MODEL 1
REMARK VINA RESULT:      -7.4      0.000      0.000
REMARK  Name = 
REMARK  7 active torsions:
REMARK  status: ('A' for Active; 'I' for Inactive)
REMARK    1  A    between atoms: S_2  and  N_4
REMARK    2  A    between atoms: S_2  and  C_19
REMARK    3  A    between atoms: N_4  and  C_5
REMARK    4  A    between atoms: C_7  and  C_8
REMARK    5  A    between atoms: C_8  and  C_9
REMARK    6  A    between atoms: C_17  and  O_18
REMARK    7  A    between atoms: C_25  and  O_26
REMARK                            x       y       z     vdW  Elec       q    Type
REMARK                         _______ _______ _______ _____ _____    ______ ____
ROOT
ATOM      1  C   UNL     1       1.943   7.583  20.249  0.00  0.00    +0.000 A 
ATOM      2  C   UNL     1       1.992   6.236  20.608  0.00  0.00    +0.000 A 
ATOM      3  C   UNL     1       2.203   5.229  19.647  0.00  0.00    +0.000 A 
ATOM      4  C   UNL     1       2.399   5.635  18.312  0.00  0.00    +0.000 A 
ATOM      5  C   UNL     1       2.373   6.986  17.946  0.00  0.00    +0.000 A 
ATOM      6  C   UNL     1       2.138   7.954  18.916  0.00  0.00    +0.000 A 
ENDROOT
BRANCH   3   7
ATOM      7  C   UNL     1       2.185   3.753  20.038  0.00  0.00    +0.000 C 
ATOM      8  C   UNL     1       1.283   3.317  21.195  0.00  0.00    +0.000 C 
ATOM      9  C   UNL     1       0.877   2.994  19.796  0.00  0.00    +0.000 C 
BRANCH   7  10
ATOM     10  C   UNL     1       3.500   3.011  19.849  0.00  0.00    +0.000 C 
ATOM     11  F   UNL     1       4.551   3.849  19.686  0.00  0.00    +0.000 F 
ATOM     12  F   UNL     1       3.774   2.230  20.924  0.00  0.00    +0.000 F 
ATOM     13  F   UNL     1       3.452   2.204  18.761  0.00  0.00    +0.000 F 
ENDBRANCH   7  10
ENDBRANCH   3   7
BRANCH   1  14
ATOM     14  N   UNL     1       1.760   8.583  21.273  0.00  0.00    +0.000 N 
ATOM     15  H   UNL     1       2.121   8.215  22.162  0.00  0.00    +0.000 HD
BRANCH  14  17
ATOM     16  O   UNL     1      -0.704   7.814  21.271  0.00  0.00    +0.000 OA
ATOM     17  S   UNL     1       0.127   8.950  21.616  0.00  0.00    +0.000 S 
ATOM     18  O   UNL     1       0.068   9.536  22.940  0.00  0.00    +0.000 OA
BRANCH  17  19
ATOM     19  C   UNL     1      -0.243  10.239  20.439  0.00  0.00    +0.000 A 
ATOM     20  C   UNL     1      -1.177   9.966  19.428  0.00  0.00    +0.000 A 
ATOM     21  C   UNL     1      -1.567  10.981  18.556  0.00  0.00    +0.000 A 
ATOM     22 BR   UNL     1      -2.841  10.620  17.207  0.00  0.00    +0.000 Br
ATOM     23  C   UNL     1      -1.039  12.265  18.681  0.00  0.00    +0.000 A 
ATOM     24  C   UNL     1      -0.100  12.533  19.681  0.00  0.00    +0.000 A 
ATOM     25  C   UNL     1       0.301  11.521  20.559  0.00  0.00    +0.000 A 
BRANCH  25  26
ATOM     26  O   UNL     1       1.231  11.801  21.518  0.00  0.00    +0.000 OA
ATOM     27  H   UNL     1       2.037  12.144  21.099  0.00  0.00    +0.000 HD
ENDBRANCH  25  26
ENDBRANCH  17  19
ENDBRANCH  14  17
ENDBRANCH   1  14
BRANCH   6  28
ATOM     28  O   UNL     1       2.062   9.278  18.587  0.00  0.00    +0.000 OA
ATOM     29  H   UNL     1       1.591   9.751  19.294  0.00  0.00    +0.000 HD
ENDBRANCH   6  28
TORSDOF 7
ENDMDL
MODEL 2
REMARK VINA RESULT:      -7.2      4.986      7.098
REMARK  Name = 
REMARK  7 active torsions:
REMARK  status: ('A' for Active; 'I' for Inactive)
REMARK    1  A    between atoms: S_2  and  N_4
REMARK    2  A    between atoms: S_2  and  C_19
REMARK    3  A    between atoms: N_4  and  C_5
REMARK    4  A    between atoms: C_7  and  C_8
REMARK    5  A    between atoms: C_8  and  C_9
REMARK    6  A    between atoms: C_17  and  O_18
REMARK    7  A    between atoms: C_25  and  O_26
REMARK                            x       y       z     vdW  Elec       q    Type
REMARK                         _______ _______ _______ _____ _____    ______ ____
ROOT
ATOM      1  C   UNL     1       4.033   5.782  17.085  0.00  0.00    +0.000 A 
ATOM      2  C   UNL     1       3.780   4.487  17.535  0.00  0.00    +0.000 A 
ATOM      3  C   UNL     1       3.115   4.251  18.754  0.00  0.00    +0.000 A 
ATOM      4  C   UNL     1       2.683   5.374  19.487  0.00  0.00    +0.000 A 
ATOM      5  C   UNL     1       2.914   6.678  19.033  0.00  0.00    +0.000 A 
ATOM      6  C   UNL     1       3.594   6.876  17.837  0.00  0.00    +0.000 A 
ENDROOT
BRANCH   3   7
ATOM      7  C   UNL     1       2.906   2.829  19.273  0.00  0.00    +0.000 C 
ATOM      8  C   UNL     1       3.708   1.694  18.632  0.00  0.00    +0.000 C 
ATOM      9  C   UNL     1       4.091   2.178  19.991  0.00  0.00    +0.000 C 
BRANCH   7  10
ATOM     10  C   UNL     1       1.499   2.513  19.760  0.00  0.00    +0.000 C 
ATOM     11  F   UNL     1       0.550   3.217  19.098  0.00  0.00    +0.000 F 
ATOM     12  F   UNL     1       1.212   1.198  19.591  0.00  0.00    +0.000 F 
ATOM     13  F   UNL     1       1.366   2.794  21.079  0.00  0.00    +0.000 F 
ENDBRANCH   7  10
ENDBRANCH   3   7
BRANCH   1  14
ATOM     14  N   UNL     1       4.685   5.976  15.813  0.00  0.00    +0.000 N 
ATOM     15  H   UNL     1       4.121   5.526  15.082  0.00  0.00    +0.000 HD
BRANCH  14  17
ATOM     16  O   UNL     1       6.067   3.800  15.948  0.00  0.00    +0.000 OA
ATOM     17  S   UNL     1       6.210   5.217  15.679  0.00  0.00    +0.000 S 
ATOM     18  O   UNL     1       6.835   5.680  14.456  0.00  0.00    +0.000 OA
BRANCH  17  19
ATOM     19  C   UNL     1       7.119   5.914  17.046  0.00  0.00    +0.000 A 
ATOM     20  C   UNL     1       7.453   7.276  16.996  0.00  0.00    +0.000 A 
ATOM     21  C   UNL     1       8.070   7.876  18.092  0.00  0.00    +0.000 A 
ATOM     22 BR   UNL     1       8.502   9.716  18.034  0.00  0.00    +0.000 Br
ATOM     23  C   UNL     1       8.357   7.136  19.238  0.00  0.00    +0.000 A 
ATOM     24  C   UNL     1       8.035   5.777  19.283  0.00  0.00    +0.000 A 
ATOM     25  C   UNL     1       7.418   5.164  18.188  0.00  0.00    +0.000 A 
BRANCH  25  26
ATOM     26  O   UNL     1       7.126   3.832  18.247  0.00  0.00    +0.000 OA
ATOM     27  H   UNL     1       7.648   3.417  18.953  0.00  0.00    +0.000 HD
ENDBRANCH  25  26
ENDBRANCH  17  19
ENDBRANCH  14  17
ENDBRANCH   1  14
BRANCH   6  28
ATOM     28  O   UNL     1       3.875   8.135  17.386  0.00  0.00    +0.000 OA
ATOM     29  H   UNL     1       3.430   8.269  16.531  0.00  0.00    +0.000 HD
ENDBRANCH   6  28
TORSDOF 7
ENDMDL
MODEL 3
REMARK VINA RESULT:      -7.1      3.479      4.593
REMARK  Name = 
REMARK  7 active torsions:
REMARK  status: ('A' for Active; 'I' for Inactive)
REMARK    1  A    between atoms: S_2  and  N_4
REMARK    2  A    between atoms: S_2  and  C_19
REMARK    3  A    between atoms: N_4  and  C_5
REMARK    4  A    between atoms: C_7  and  C_8
REMARK    5  A    between atoms: C_8  and  C_9
REMARK    6  A    between atoms: C_17  and  O_18
REMARK    7  A    between atoms: C_25  and  O_26
REMARK                            x       y       z     vdW  Elec       q    Type
REMARK                         _______ _______ _______ _____ _____    ______ ____
ROOT
ATOM      1  C   UNL     1       3.147   5.987  18.652  0.00  0.00    +0.000 A 
ATOM      2  C   UNL     1       4.362   6.066  17.973  0.00  0.00    +0.000 A 
ATOM      3  C   UNL     1       4.909   4.948  17.315  0.00  0.00    +0.000 A 
ATOM      4  C   UNL     1       4.164   3.752  17.337  0.00  0.00    +0.000 A 
ATOM      5  C   UNL     1       2.933   3.668  17.999  0.00  0.00    +0.000 A 
ATOM      6  C   UNL     1       2.433   4.785  18.659  0.00  0.00    +0.000 A 
ENDROOT
BRANCH   3   7
ATOM      7  C   UNL     1       6.274   5.026  16.634  0.00  0.00    +0.000 C 
ATOM      8  C   UNL     1       7.277   6.069  17.131  0.00  0.00    +0.000 C 
ATOM      9  C   UNL     1       7.488   4.633  17.481  0.00  0.00    +0.000 C 
BRANCH   7  10
ATOM     10  C   UNL     1       6.284   4.688  15.150  0.00  0.00    +0.000 C 
ATOM     11  F   UNL     1       7.400   5.130  14.524  0.00  0.00    +0.000 F 
ATOM     12  F   UNL     1       6.223   3.346  14.959  0.00  0.00    +0.000 F 
ATOM     13  F   UNL     1       5.219   5.238  14.518  0.00  0.00    +0.000 F 
ENDBRANCH   7  10
ENDBRANCH   3   7
BRANCH   1  14
ATOM     14  N   UNL     1       2.608   7.168  19.282  0.00  0.00    +0.000 N 
ATOM     15  H   UNL     1       1.777   6.902  19.825  0.00  0.00    +0.000 HD
BRANCH  14  17
ATOM     16  O   UNL     1       3.142   8.964  17.508  0.00  0.00    +0.000 OA
ATOM     17  S   UNL     1       2.024   8.345  18.190  0.00  0.00    +0.000 S 
ATOM     18  O   UNL     1       0.932   7.758  17.440  0.00  0.00    +0.000 OA
BRANCH  17  19
ATOM     19  C   UNL     1       1.331   9.580  19.274  0.00  0.00    +0.000 A 
ATOM     20  C   UNL     1       0.831   9.166  20.519  0.00  0.00    +0.000 A 
ATOM     21  C   UNL     1       0.379  10.117  21.432  0.00  0.00    +0.000 A 
ATOM     22 BR   UNL     1      -0.273   9.562  23.117  0.00  0.00    +0.000 Br
ATOM     23  C   UNL     1       0.421  11.475  21.121  0.00  0.00    +0.000 A 
ATOM     24  C   UNL     1       0.906  11.886  19.877  0.00  0.00    +0.000 A 
ATOM     25  C   UNL     1       1.360  10.940  18.951  0.00  0.00    +0.000 A 
BRANCH  25  26
ATOM     26  O   UNL     1       1.816  11.362  17.736  0.00  0.00    +0.000 OA
ATOM     27  H   UNL     1       1.628  12.309  17.630  0.00  0.00    +0.000 HD
ENDBRANCH  25  26
ENDBRANCH  17  19
ENDBRANCH  14  17
ENDBRANCH   1  14
BRANCH   6  28
ATOM     28  O   UNL     1       1.256   4.726  19.351  0.00  0.00    +0.000 OA
ATOM     29  H   UNL     1       0.734   5.522  19.150  0.00  0.00    +0.000 HD
ENDBRANCH   6  28
TORSDOF 7
ENDMDL
MODEL 4
REMARK VINA RESULT:      -7.1      4.572      6.666
REMARK  Name = 
REMARK  7 active torsions:
REMARK  status: ('A' for Active; 'I' for Inactive)
REMARK    1  A    between atoms: S_2  and  N_4
REMARK    2  A    between atoms: S_2  and  C_19
REMARK    3  A    between atoms: N_4  and  C_5
REMARK    4  A    between atoms: C_7  and  C_8
REMARK    5  A    between atoms: C_8  and  C_9
REMARK    6  A    between atoms: C_17  and  O_18
REMARK    7  A    between atoms: C_25  and  O_26
REMARK                            x       y       z     vdW  Elec       q    Type
REMARK                         _______ _______ _______ _____ _____    ______ ____
ROOT
ATOM      1  C   UNL     1       3.472   6.343  17.547  0.00  0.00    +0.000 A 
ATOM      2  C   UNL     1       3.239   5.039  17.984  0.00  0.00    +0.000 A 
ATOM      3  C   UNL     1       2.559   4.781  19.190  0.00  0.00    +0.000 A 
ATOM      4  C   UNL     1       2.092   5.889  19.924  0.00  0.00    +0.000 A 
ATOM      5  C   UNL     1       2.303   7.201  19.483  0.00  0.00    +0.000 A 
ATOM      6  C   UNL     1       2.999   7.422  18.299  0.00  0.00    +0.000 A 
ENDROOT
BRANCH   3   7
ATOM      7  C   UNL     1       2.370   3.352  19.695  0.00  0.00    +0.000 C 
ATOM      8  C   UNL     1       1.085   3.010  20.452  0.00  0.00    +0.000 C 
ATOM      9  C   UNL     1       1.248   2.536  19.046  0.00  0.00    +0.000 C 
BRANCH   7  10
ATOM     10  C   UNL     1       3.646   2.632  20.108  0.00  0.00    +0.000 C 
ATOM     11  F   UNL     1       3.577   2.133  21.365  0.00  0.00    +0.000 F 
ATOM     12  F   UNL     1       3.905   1.590  19.278  0.00  0.00    +0.000 F 
ATOM     13  F   UNL     1       4.713   3.466  20.061  0.00  0.00    +0.000 F 
ENDBRANCH   7  10
ENDBRANCH   3   7
BRANCH   1  14
ATOM     14  N   UNL     1       4.140   6.560  16.287  0.00  0.00    +0.000 N 
ATOM     15  H   UNL     1       3.483   6.355  15.525  0.00  0.00    +0.000 HD
BRANCH  14  17
ATOM     16  O   UNL     1       5.073   4.154  16.369  0.00  0.00    +0.000 OA
ATOM     17  S   UNL     1       5.450   5.502  15.993  0.00  0.00    +0.000 S 
ATOM     18  O   UNL     1       5.965   5.785  14.668  0.00  0.00    +0.000 OA
BRANCH  17  19
ATOM     19  C   UNL     1       6.670   6.047  17.174  0.00  0.00    +0.000 A 
ATOM     20  C   UNL     1       7.073   7.391  17.141  0.00  0.00    +0.000 A 
ATOM     21  C   UNL     1       7.945   7.874  18.114  0.00  0.00    +0.000 A 
ATOM     22 BR   UNL     1       8.471   9.690  18.083  0.00  0.00    +0.000 Br
ATOM     23  C   UNL     1       8.420   7.035  19.121  0.00  0.00    +0.000 A 
ATOM     24  C   UNL     1       8.029   5.694  19.146  0.00  0.00    +0.000 A 
ATOM     25  C   UNL     1       7.156   5.198  18.173  0.00  0.00    +0.000 A 
BRANCH  25  26
ATOM     26  O   UNL     1       6.799   3.881  18.208  0.00  0.00    +0.000 OA
ATOM     27  H   UNL     1       7.502   3.343  17.809  0.00  0.00    +0.000 HD
ENDBRANCH  25  26
ENDBRANCH  17  19
ENDBRANCH  14  17
ENDBRANCH   1  14
BRANCH   6  28
ATOM     28  O   UNL     1       3.260   8.690  17.862  0.00  0.00    +0.000 OA
ATOM     29  H   UNL     1       4.224   8.810  17.805  0.00  0.00    +0.000 HD
ENDBRANCH   6  28
TORSDOF 7
ENDMDL
MODEL 5
REMARK VINA RESULT:      -7.1      5.286      7.525
REMARK  Name = 
REMARK  7 active torsions:
REMARK  status: ('A' for Active; 'I' for Inactive)
REMARK    1  A    between atoms: S_2  and  N_4
REMARK    2  A    between atoms: S_2  and  C_19
REMARK    3  A    between atoms: N_4  and  C_5
REMARK    4  A    between atoms: C_7  and  C_8
REMARK    5  A    between atoms: C_8  and  C_9
REMARK    6  A    between atoms: C_17  and  O_18
REMARK    7  A    between atoms: C_25  and  O_26
REMARK                            x       y       z     vdW  Elec       q    Type
REMARK                         _______ _______ _______ _____ _____    ______ ____
ROOT
ATOM      1  C   UNL     1       3.683   5.719  17.792  0.00  0.00    +0.000 A 
ATOM      2  C   UNL     1       3.200   4.537  18.352  0.00  0.00    +0.000 A 
ATOM      3  C   UNL     1       2.255   4.552  19.397  0.00  0.00    +0.000 A 
ATOM      4  C   UNL     1       1.789   5.809  19.833  0.00  0.00    +0.000 A 
ATOM      5  C   UNL     1       2.253   7.000  19.262  0.00  0.00    +0.000 A 
ATOM      6  C   UNL     1       3.203   6.949  18.248  0.00  0.00    +0.000 A 
ENDROOT
BRANCH   3   7
ATOM      7  C   UNL     1       1.786   3.255  20.052  0.00  0.00    +0.000 C 
ATOM      8  C   UNL     1       0.457   2.649  19.596  0.00  0.00    +0.000 C 
ATOM      9  C   UNL     1       1.734   2.013  19.157  0.00  0.00    +0.000 C 
BRANCH   7  10
ATOM     10  C   UNL     1       2.177   3.082  21.512  0.00  0.00    +0.000 C 
ATOM     11  F   UNL     1       2.491   4.257  22.108  0.00  0.00    +0.000 F 
ATOM     12  F   UNL     1       1.162   2.530  22.224  0.00  0.00    +0.000 F 
ATOM     13  F   UNL     1       3.252   2.265  21.634  0.00  0.00    +0.000 F 
ENDBRANCH   7  10
ENDBRANCH   3   7
BRANCH   1  14
ATOM     14  N   UNL     1       4.622   5.653  16.699  0.00  0.00    +0.000 N 
ATOM     15  H   UNL     1       4.101   5.677  15.814  0.00  0.00    +0.000 HD
BRANCH  14  17
ATOM     16  O   UNL     1       6.598   4.236  17.565  0.00  0.00    +0.000 OA
ATOM     17  S   UNL     1       5.505   4.193  16.615  0.00  0.00    +0.000 S 
ATOM     18  O   UNL     1       4.558   3.096  16.625  0.00  0.00    +0.000 OA
BRANCH  17  19
ATOM     19  C   UNL     1       6.231   4.263  14.987  0.00  0.00    +0.000 A 
ATOM     20  C   UNL     1       5.730   3.402  13.998  0.00  0.00    +0.000 A 
ATOM     21  C   UNL     1       6.201   3.503  12.691  0.00  0.00    +0.000 A 
ATOM     22 BR   UNL     1       5.511   2.358  11.354  0.00  0.00    +0.000 Br
ATOM     23  C   UNL     1       7.164   4.454  12.356  0.00  0.00    +0.000 A 
ATOM     24  C   UNL     1       7.672   5.303  13.343  0.00  0.00    +0.000 A 
ATOM     25  C   UNL     1       7.208   5.208  14.659  0.00  0.00    +0.000 A 
BRANCH  25  26
ATOM     26  O   UNL     1       7.728   6.037  15.610  0.00  0.00    +0.000 OA
ATOM     27  H   UNL     1       7.846   5.545  16.439  0.00  0.00    +0.000 HD
ENDBRANCH  25  26
ENDBRANCH  17  19
ENDBRANCH  14  17
ENDBRANCH   1  14
BRANCH   6  28
ATOM     28  O   UNL     1       3.709   8.094  17.699  0.00  0.00    +0.000 OA
ATOM     29  H   UNL     1       3.139   8.841  17.949  0.00  0.00    +0.000 HD
ENDBRANCH   6  28
TORSDOF 7
ENDMDL
MODEL 6
REMARK VINA RESULT:      -7.0      0.832      1.129
REMARK  Name = 
REMARK  7 active torsions:
REMARK  status: ('A' for Active; 'I' for Inactive)
REMARK    1  A    between atoms: S_2  and  N_4
REMARK    2  A    between atoms: S_2  and  C_19
REMARK    3  A    between atoms: N_4  and  C_5
REMARK    4  A    between atoms: C_7  and  C_8
REMARK    5  A    between atoms: C_8  and  C_9
REMARK    6  A    between atoms: C_17  and  O_18
REMARK    7  A    between atoms: C_25  and  O_26
REMARK                            x       y       z     vdW  Elec       q    Type
REMARK                         _______ _______ _______ _____ _____    ______ ____
ROOT
ATOM      1  C   UNL     1       1.938   7.338  20.242  0.00  0.00    +0.000 A 
ATOM      2  C   UNL     1       1.792   5.993  20.582  0.00  0.00    +0.000 A 
ATOM      3  C   UNL     1       1.950   4.973  19.625  0.00  0.00    +0.000 A 
ATOM      4  C   UNL     1       2.296   5.359  18.314  0.00  0.00    +0.000 A 
ATOM      5  C   UNL     1       2.465   6.705  17.968  0.00  0.00    +0.000 A 
ATOM      6  C   UNL     1       2.278   7.689  18.933  0.00  0.00    +0.000 A 
ENDROOT
BRANCH   3   7
ATOM      7  C   UNL     1       1.719   3.508  19.991  0.00  0.00    +0.000 C 
ATOM      8  C   UNL     1       0.410   2.846  19.555  0.00  0.00    +0.000 C 
ATOM      9  C   UNL     1       1.672   2.509  18.831  0.00  0.00    +0.000 C 
BRANCH   7  10
ATOM     10  C   UNL     1       2.331   3.061  21.310  0.00  0.00    +0.000 C 
ATOM     11  F   UNL     1       2.467   4.080  22.192  0.00  0.00    +0.000 F 
ATOM     12  F   UNL     1       1.562   2.116  21.906  0.00  0.00    +0.000 F 
ATOM     13  F   UNL     1       3.561   2.524  21.119  0.00  0.00    +0.000 F 
ENDBRANCH   7  10
ENDBRANCH   3   7
BRANCH   1  14
ATOM     14  N   UNL     1       1.802   8.347  21.264  0.00  0.00    +0.000 N 
ATOM     15  H   UNL     1       2.115   7.953  22.159  0.00  0.00    +0.000 HD
BRANCH  14  17
ATOM     16  O   UNL     1      -0.707   7.745  21.231  0.00  0.00    +0.000 OA
ATOM     17  S   UNL     1       0.192   8.830  21.569  0.00  0.00    +0.000 S 
ATOM     18  O   UNL     1       0.149   9.446  22.880  0.00  0.00    +0.000 OA
BRANCH  17  19
ATOM     19  C   UNL     1      -0.071  10.115  20.360  0.00  0.00    +0.000 A 
ATOM     20  C   UNL     1      -0.962   9.863  19.306  0.00  0.00    +0.000 A 
ATOM     21  C   UNL     1      -1.270  10.879  18.404  0.00  0.00    +0.000 A 
ATOM     22 BR   UNL     1      -2.487  10.548  16.997  0.00  0.00    +0.000 Br
ATOM     23  C   UNL     1      -0.701  12.145  18.541  0.00  0.00    +0.000 A 
ATOM     24  C   UNL     1       0.196  12.392  19.583  0.00  0.00    +0.000 A 
ATOM     25  C   UNL     1       0.514  11.378  20.492  0.00  0.00    +0.000 A 
BRANCH  25  26
ATOM     26  O   UNL     1       1.405  11.636  21.494  0.00  0.00    +0.000 OA
ATOM     27  H   UNL     1       0.924  11.892  22.298  0.00  0.00    +0.000 HD
ENDBRANCH  25  26
ENDBRANCH  17  19
ENDBRANCH  14  17
ENDBRANCH   1  14
BRANCH   6  28
ATOM     28  O   UNL     1       2.392   9.014  18.619  0.00  0.00    +0.000 OA
ATOM     29  H   UNL     1       1.510   9.362  18.402  0.00  0.00    +0.000 HD
ENDBRANCH   6  28
TORSDOF 7
ENDMDL
MODEL 7
REMARK VINA RESULT:      -7.0      5.113      7.510
REMARK  Name = 
REMARK  7 active torsions:
REMARK  status: ('A' for Active; 'I' for Inactive)
REMARK    1  A    between atoms: S_2  and  N_4
REMARK    2  A    between atoms: S_2  and  C_19
REMARK    3  A    between atoms: N_4  and  C_5
REMARK    4  A    between atoms: C_7  and  C_8
REMARK    5  A    between atoms: C_8  and  C_9
REMARK    6  A    between atoms: C_17  and  O_18
REMARK    7  A    between atoms: C_25  and  O_26
REMARK                            x       y       z     vdW  Elec       q    Type
REMARK                         _______ _______ _______ _____ _____    ______ ____
ROOT
ATOM      1  C   UNL     1       2.857   7.226  19.305  0.00  0.00    +0.000 A 
ATOM      2  C   UNL     1       1.923   7.731  20.209  0.00  0.00    +0.000 A 
ATOM      3  C   UNL     1       1.122   8.845  19.891  0.00  0.00    +0.000 A 
ATOM      4  C   UNL     1       1.275   9.411  18.610  0.00  0.00    +0.000 A 
ATOM      5  C   UNL     1       2.196   8.898  17.688  0.00  0.00    +0.000 A 
ATOM      6  C   UNL     1       2.988   7.812  18.043  0.00  0.00    +0.000 A 
ENDROOT
BRANCH   3   7
ATOM      7  C   UNL     1       0.152   9.433  20.913  0.00  0.00    +0.000 C 
ATOM      8  C   UNL     1      -0.555   8.480  21.880  0.00  0.00    +0.000 C 
ATOM      9  C   UNL     1       0.560   9.333  22.386  0.00  0.00    +0.000 C 
BRANCH   7  10
ATOM     10  C   UNL     1      -0.611  10.667  20.455  0.00  0.00    +0.000 C 
ATOM     11  F   UNL     1      -1.388  10.425  19.373  0.00  0.00    +0.000 F 
ATOM     12  F   UNL     1      -1.425  11.127  21.438  0.00  0.00    +0.000 F 
ATOM     13  F   UNL     1       0.239  11.671  20.126  0.00  0.00    +0.000 F 
ENDBRANCH   7  10
ENDBRANCH   3   7
BRANCH   1  14
ATOM     14  N   UNL     1       3.630   6.061  19.660  0.00  0.00    +0.000 N 
ATOM     15  H   UNL     1       4.623   6.259  19.491  0.00  0.00    +0.000 HD
BRANCH  14  17
ATOM     16  O   UNL     1       3.189   3.520  19.546  0.00  0.00    +0.000 OA
ATOM     17  S   UNL     1       3.317   4.686  18.695  0.00  0.00    +0.000 S 
ATOM     18  O   UNL     1       2.274   5.031  17.749  0.00  0.00    +0.000 OA
BRANCH  17  19
ATOM     19  C   UNL     1       4.835   4.494  17.778  0.00  0.00    +0.000 A 
ATOM     20  C   UNL     1       4.751   4.240  16.400  0.00  0.00    +0.000 A 
ATOM     21  C   UNL     1       5.915   4.188  15.636  0.00  0.00    +0.000 A 
ATOM     22 BR   UNL     1       5.802   3.867  13.776  0.00  0.00    +0.000 Br
ATOM     23  C   UNL     1       7.161   4.388  16.227  0.00  0.00    +0.000 A 
ATOM     24  C   UNL     1       7.245   4.629  17.601  0.00  0.00    +0.000 A 
ATOM     25  C   UNL     1       6.084   4.680  18.378  0.00  0.00    +0.000 A 
BRANCH  25  26
ATOM     26  O   UNL     1       6.190   4.902  19.721  0.00  0.00    +0.000 OA
ATOM     27  H   UNL     1       5.722   5.720  19.953  0.00  0.00    +0.000 HD
ENDBRANCH  25  26
ENDBRANCH  17  19
ENDBRANCH  14  17
ENDBRANCH   1  14
BRANCH   6  28
ATOM     28  O   UNL     1       3.927   7.314  17.184  0.00  0.00    +0.000 OA
ATOM     29  H   UNL     1       3.495   6.693  16.573  0.00  0.00    +0.000 HD
ENDBRANCH   6  28
TORSDOF 7
ENDMDL
MODEL 8
REMARK VINA RESULT:      -7.0      1.022      1.416
REMARK  Name = 
REMARK  7 active torsions:
REMARK  status: ('A' for Active; 'I' for Inactive)
REMARK    1  A    between atoms: S_2  and  N_4
REMARK    2  A    between atoms: S_2  and  C_19
REMARK    3  A    between atoms: N_4  and  C_5
REMARK    4  A    between atoms: C_7  and  C_8
REMARK    5  A    between atoms: C_8  and  C_9
REMARK    6  A    between atoms: C_17  and  O_18
REMARK    7  A    between atoms: C_25  and  O_26
REMARK                            x       y       z     vdW  Elec       q    Type
REMARK                         _______ _______ _______ _____ _____    ______ ____
ROOT
ATOM      1  C   UNL     1       1.921   7.347  20.271  0.00  0.00    +0.000 A 
ATOM      2  C   UNL     1       1.835   5.998  20.614  0.00  0.00    +0.000 A 
ATOM      3  C   UNL     1       2.012   4.985  19.653  0.00  0.00    +0.000 A 
ATOM      4  C   UNL     1       2.315   5.383  18.335  0.00  0.00    +0.000 A 
ATOM      5  C   UNL     1       2.424   6.735  17.986  0.00  0.00    +0.000 A 
ATOM      6  C   UNL     1       2.219   7.711  18.955  0.00  0.00    +0.000 A 
ENDROOT
BRANCH   3   7
ATOM      7  C   UNL     1       1.847   3.512  20.023  0.00  0.00    +0.000 C 
ATOM      8  C   UNL     1       2.738   2.933  21.124  0.00  0.00    +0.000 C 
ATOM      9  C   UNL     1       1.303   3.213  21.423  0.00  0.00    +0.000 C 
BRANCH   7  10
ATOM     10  C   UNL     1       1.450   2.592  18.879  0.00  0.00    +0.000 C 
ATOM     11  F   UNL     1       0.107   2.454  18.764  0.00  0.00    +0.000 F 
ATOM     12  F   UNL     1       1.906   3.068  17.693  0.00  0.00    +0.000 F 
ATOM     13  F   UNL     1       1.971   1.352  19.048  0.00  0.00    +0.000 F 
ENDBRANCH   7  10
ENDBRANCH   3   7
BRANCH   1  14
ATOM     14  N   UNL     1       1.769   8.351  21.296  0.00  0.00    +0.000 N 
ATOM     15  H   UNL     1       2.072   7.955  22.193  0.00  0.00    +0.000 HD
BRANCH  14  17
ATOM     16  O   UNL     1      -0.738   7.737  21.230  0.00  0.00    +0.000 OA
ATOM     17  S   UNL     1       0.152   8.825  21.584  0.00  0.00    +0.000 S 
ATOM     18  O   UNL     1       0.091   9.434  22.897  0.00  0.00    +0.000 OA
BRANCH  17  19
ATOM     19  C   UNL     1      -0.102  10.114  20.378  0.00  0.00    +0.000 A 
ATOM     20  C   UNL     1      -0.997   9.871  19.324  0.00  0.00    +0.000 A 
ATOM     21  C   UNL     1      -1.299  10.892  18.425  0.00  0.00    +0.000 A 
ATOM     22 BR   UNL     1      -2.521  10.572  17.019  0.00  0.00    +0.000 Br
ATOM     23  C   UNL     1      -0.720  12.152  18.563  0.00  0.00    +0.000 A 
ATOM     24  C   UNL     1       0.181  12.390  19.604  0.00  0.00    +0.000 A 
ATOM     25  C   UNL     1       0.493  11.372  20.511  0.00  0.00    +0.000 A 
BRANCH  25  26
ATOM     26  O   UNL     1       1.387  11.622  21.512  0.00  0.00    +0.000 OA
ATOM     27  H   UNL     1       0.922  11.999  22.276  0.00  0.00    +0.000 HD
ENDBRANCH  25  26
ENDBRANCH  17  19
ENDBRANCH  14  17
ENDBRANCH   1  14
BRANCH   6  28
ATOM     28  O   UNL     1       2.275   9.039  18.639  0.00  0.00    +0.000 OA
ATOM     29  H   UNL     1       2.695   9.137  17.767  0.00  0.00    +0.000 HD
ENDBRANCH   6  28
TORSDOF 7
ENDMDL
MODEL 9
REMARK VINA RESULT:      -7.0      3.423      4.603
REMARK  Name = 
REMARK  7 active torsions:
REMARK  status: ('A' for Active; 'I' for Inactive)
REMARK    1  A    between atoms: S_2  and  N_4
REMARK    2  A    between atoms: S_2  and  C_19
REMARK    3  A    between atoms: N_4  and  C_5
REMARK    4  A    between atoms: C_7  and  C_8
REMARK    5  A    between atoms: C_8  and  C_9
REMARK    6  A    between atoms: C_17  and  O_18
REMARK    7  A    between atoms: C_25  and  O_26
REMARK                            x       y       z     vdW  Elec       q    Type
REMARK                         _______ _______ _______ _____ _____    ______ ____
ROOT
ATOM      1  C   UNL     1       3.263   5.908  19.024  0.00  0.00    +0.000 A 
ATOM      2  C   UNL     1       4.431   5.996  18.267  0.00  0.00    +0.000 A 
ATOM      3  C   UNL     1       4.994   4.861  17.652  0.00  0.00    +0.000 A 
ATOM      4  C   UNL     1       4.313   3.636  17.801  0.00  0.00    +0.000 A 
ATOM      5  C   UNL     1       3.129   3.542  18.542  0.00  0.00    +0.000 A 
ATOM      6  C   UNL     1       2.614   4.678  19.157  0.00  0.00    +0.000 A 
ENDROOT
BRANCH   3   7
ATOM      7  C   UNL     1       6.310   4.955  16.884  0.00  0.00    +0.000 C 
ATOM      8  C   UNL     1       7.308   6.046  17.278  0.00  0.00    +0.000 C 
ATOM      9  C   UNL     1       7.587   4.632  17.665  0.00  0.00    +0.000 C 
BRANCH   7  10
ATOM     10  C   UNL     1       6.239   4.562  15.416  0.00  0.00    +0.000 C 
ATOM     11  F   UNL     1       5.179   5.116  14.780  0.00  0.00    +0.000 F 
ATOM     12  F   UNL     1       7.354   4.957  14.753  0.00  0.00    +0.000 F 
ATOM     13  F   UNL     1       6.137   3.217  15.276  0.00  0.00    +0.000 F 
ENDBRANCH   7  10
ENDBRANCH   3   7
BRANCH   1  14
ATOM     14  N   UNL     1       2.703   7.103  19.606  0.00  0.00    +0.000 N 
ATOM     15  H   UNL     1       1.902   6.840  20.194  0.00  0.00    +0.000 HD
BRANCH  14  17
ATOM     16  O   UNL     1       3.066   9.112  18.026  0.00  0.00    +0.000 OA
ATOM     17  S   UNL     1       2.037   8.194  18.472  0.00  0.00    +0.000 S 
ATOM     18  O   UNL     1       1.263   7.428  17.515  0.00  0.00    +0.000 OA
BRANCH  17  19
ATOM     19  C   UNL     1       0.892   9.140  19.459  0.00  0.00    +0.000 A 
ATOM     20  C   UNL     1       0.887   8.937  20.848  0.00  0.00    +0.000 A 
ATOM     21  C   UNL     1       0.080   9.732  21.659  0.00  0.00    +0.000 A 
ATOM     22 BR   UNL     1       0.090   9.475  23.532  0.00  0.00    +0.000 Br
ATOM     23  C   UNL     1      -0.720  10.729  21.104  0.00  0.00    +0.000 A 
ATOM     24  C   UNL     1      -0.725  10.923  19.720  0.00  0.00    +0.000 A 
ATOM     25  C   UNL     1       0.078  10.128  18.896  0.00  0.00    +0.000 A 
BRANCH  25  26
ATOM     26  O   UNL     1       0.047  10.324  17.545  0.00  0.00    +0.000 OA
ATOM     27  H   UNL     1      -0.653  10.960  17.326  0.00  0.00    +0.000 HD
ENDBRANCH  25  26
ENDBRANCH  17  19
ENDBRANCH  14  17
ENDBRANCH   1  14
BRANCH   6  28
ATOM     28  O   UNL     1       1.484   4.612  19.923  0.00  0.00    +0.000 OA
ATOM     29  H   UNL     1       1.242   3.678  20.046  0.00  0.00    +0.000 HD
ENDBRANCH   6  28
TORSDOF 7
ENDMDL
