MODEL 1
REMARK VINA RESULT:      -8.7      0.000      0.000
REMARK  Name = 
REMARK  3 active torsions:
REMARK  status: ('A' for Active; 'I' for Inactive)
REMARK    1  A    between atoms: C_2  and  C_18
REMARK    2  A    between atoms: N_3  and  S_4
REMARK    3  A    between atoms: S_4  and  C_7
REMARK                            x       y       z     vdW  Elec       q    Type
REMARK                         _______ _______ _______ _____ _____    ______ ____
ROOT
ATOM      1  S   UNL     1       6.632   5.291  18.320  0.00  0.00    +0.000 S 
ATOM      2  O   UNL     1       6.490   6.733  18.357  0.00  0.00    +0.000 OA
ATOM      3  O   UNL     1       7.835   4.655  18.801  0.00  0.00    +0.000 OA
ENDROOT
BRANCH   1   4
ATOM      4  C   UNL     1       6.338   4.795  16.637  0.00  0.00    +0.000 A 
ATOM      5  C   UNL     1       5.300   3.906  16.340  0.00  0.00    +0.000 A 
ATOM      6  C   UNL     1       5.127   3.453  15.025  0.00  0.00    +0.000 A 
ATOM      7  C   UNL     1       5.979   3.882  14.004  0.00  0.00    +0.000 A 
ATOM      8  N   UNL     1       5.778   3.391  12.702  0.00  0.00    +0.000 NA
ATOM      9  C   UNL     1       6.588   3.790  11.782  0.00  0.00    +0.000 A 
ATOM     10  N   UNL     1       7.618   4.663  11.993  0.00  0.00    +0.000 N 
ATOM     11  C   UNL     1       7.888   5.209  13.223  0.00  0.00    +0.000 A 
ATOM     12  O   UNL     1       8.797   6.013  13.396  0.00  0.00    +0.000 OA
ATOM     13  C   UNL     1       7.008   4.775  14.322  0.00  0.00    +0.000 A 
ATOM     14  C   UNL     1       7.206   5.233  15.631  0.00  0.00    +0.000 A 
ATOM     15  H   UNL     1       8.216   4.948  11.231  0.00  0.00    +0.000 HD
ENDBRANCH   1   4
BRANCH   1  18
ATOM     16  O   UNL     1       3.829   6.349  18.596  0.00  0.00    +0.000 OA
ATOM     17  C   UNL     1       4.055   5.294  19.167  0.00  0.00    +0.000 C 
ATOM     18  N   UNL     1       5.320   4.691  19.148  0.00  0.00    +0.000 N 
ATOM     19  H   UNL     1       5.510   3.820  19.634  0.00  0.00    +0.000 HD
BRANCH  17  20
ATOM     20  C   UNL     1       3.007   4.550  19.986  0.00  0.00    +0.000 C 
ATOM     21  C   UNL     1       3.347   3.063  20.243  0.00  0.00    +0.000 C 
ATOM     22  C   UNL     1       2.164   2.319  19.597  0.00  0.00    +0.000 C 
ATOM     23  C   UNL     1       2.252   2.465  18.067  0.00  0.00    +0.000 C 
ATOM     24  C   UNL     1       1.824   3.920  17.832  0.00  0.00    +0.000 C 
ATOM     25  C   UNL     1       1.640   4.457  19.263  0.00  0.00    +0.000 C 
ATOM     26  C   UNL     1       0.999   3.244  19.944  0.00  0.00    +0.000 C 
ENDBRANCH  17  20
ENDBRANCH   1  18
TORSDOF 3
ENDMDL
MODEL 2
REMARK VINA RESULT:      -7.9      0.789      1.281
REMARK  Name = 
REMARK  3 active torsions:
REMARK  status: ('A' for Active; 'I' for Inactive)
REMARK    1  A    between atoms: C_2  and  C_18
REMARK    2  A    between atoms: N_3  and  S_4
REMARK    3  A    between atoms: S_4  and  C_7
REMARK                            x       y       z     vdW  Elec       q    Type
REMARK                         _______ _______ _______ _____ _____    ______ ____
ROOT
ATOM      1  S   UNL     1       6.638   4.932  18.339  0.00  0.00    +0.000 S 
ATOM      2  O   UNL     1       6.117   6.264  18.570  0.00  0.00    +0.000 OA
ATOM      3  O   UNL     1       8.004   4.605  18.672  0.00  0.00    +0.000 OA
ENDROOT
BRANCH   1   4
ATOM      4  C   UNL     1       6.349   4.566  16.622  0.00  0.00    +0.000 A 
ATOM      5  C   UNL     1       5.309   3.705  16.255  0.00  0.00    +0.000 A 
ATOM      6  C   UNL     1       5.139   3.353  14.909  0.00  0.00    +0.000 A 
ATOM      7  C   UNL     1       5.996   3.855  13.927  0.00  0.00    +0.000 A 
ATOM      8  N   UNL     1       5.798   3.465  12.590  0.00  0.00    +0.000 NA
ATOM      9  C   UNL     1       6.613   3.930  11.706  0.00  0.00    +0.000 A 
ATOM     10  N   UNL     1       7.645   4.780  11.986  0.00  0.00    +0.000 N 
ATOM     11  C   UNL     1       7.913   5.230  13.254  0.00  0.00    +0.000 A 
ATOM     12  O   UNL     1       8.824   6.016  13.490  0.00  0.00    +0.000 OA
ATOM     13  C   UNL     1       7.027   4.718  14.315  0.00  0.00    +0.000 A 
ATOM     14  C   UNL     1       7.222   5.075  15.655  0.00  0.00    +0.000 A 
ATOM     15  H   UNL     1       8.247   5.119  11.249  0.00  0.00    +0.000 HD
ENDBRANCH   1   4
BRANCH   1  18
ATOM     16  O   UNL     1       3.720   5.202  19.018  0.00  0.00    +0.000 OA
ATOM     17  C   UNL     1       4.251   4.161  19.371  0.00  0.00    +0.000 C 
ATOM     18  N   UNL     1       5.610   3.903  19.145  0.00  0.00    +0.000 N 
ATOM     19  H   UNL     1       6.054   3.043  19.451  0.00  0.00    +0.000 HD
BRANCH  17  20
ATOM     20  C   UNL     1       3.511   3.062  20.123  0.00  0.00    +0.000 C 
ATOM     21  C   UNL     1       2.406   2.365  19.294  0.00  0.00    +0.000 C 
ATOM     22  C   UNL     1       1.132   2.635  20.114  0.00  0.00    +0.000 C 
ATOM     23  C   UNL     1       0.781   4.131  20.021  0.00  0.00    +0.000 C 
ATOM     24  C   UNL     1       1.834   4.790  20.923  0.00  0.00    +0.000 C 
ATOM     25  C   UNL     1       2.719   3.602  21.340  0.00  0.00    +0.000 C 
ATOM     26  C   UNL     1       1.660   2.514  21.542  0.00  0.00    +0.000 C 
ENDBRANCH  17  20
ENDBRANCH   1  18
TORSDOF 3
ENDMDL
MODEL 3
REMARK VINA RESULT:      -7.9      4.236      7.833
REMARK  Name = 
REMARK  3 active torsions:
REMARK  status: ('A' for Active; 'I' for Inactive)
REMARK    1  A    between atoms: C_2  and  C_18
REMARK    2  A    between atoms: N_3  and  S_4
REMARK    3  A    between atoms: S_4  and  C_7
REMARK                            x       y       z     vdW  Elec       q    Type
REMARK                         _______ _______ _______ _____ _____    ______ ____
ROOT
ATOM      1  S   UNL     1       2.491   5.361  19.748  0.00  0.00    +0.000 S 
ATOM      2  O   UNL     1       1.677   4.579  18.840  0.00  0.00    +0.000 OA
ATOM      3  O   UNL     1       2.582   5.011  21.146  0.00  0.00    +0.000 OA
ENDROOT
BRANCH   1   4
ATOM      4  C   UNL     1       1.942   7.046  19.600  0.00  0.00    +0.000 A 
ATOM      5  C   UNL     1       2.111   7.735  18.393  0.00  0.00    +0.000 A 
ATOM      6  C   UNL     1       1.754   9.087  18.307  0.00  0.00    +0.000 A 
ATOM      7  C   UNL     1       1.228   9.758  19.415  0.00  0.00    +0.000 A 
ATOM      8  N   UNL     1       0.896  11.119  19.289  0.00  0.00    +0.000 NA
ATOM      9  C   UNL     1       0.428  11.717  20.329  0.00  0.00    +0.000 A 
ATOM     10  N   UNL     1       0.227  11.111  21.537  0.00  0.00    +0.000 N 
ATOM     11  C   UNL     1       0.504   9.786  21.758  0.00  0.00    +0.000 A 
ATOM     12  O   UNL     1       0.294   9.245  22.838  0.00  0.00    +0.000 OA
ATOM     13  C   UNL     1       1.063   9.050  20.610  0.00  0.00    +0.000 A 
ATOM     14  C   UNL     1       1.422   7.701  20.721  0.00  0.00    +0.000 A 
ATOM     15  H   UNL     1      -0.152  11.630  22.316  0.00  0.00    +0.000 HD
ENDBRANCH   1   4
BRANCH   1  18
ATOM     16  O   UNL     1       4.386   3.111  19.120  0.00  0.00    +0.000 OA
ATOM     17  C   UNL     1       4.778   4.229  18.828  0.00  0.00    +0.000 C 
ATOM     18  N   UNL     1       4.015   5.377  19.082  0.00  0.00    +0.000 N 
ATOM     19  H   UNL     1       4.348   6.308  18.851  0.00  0.00    +0.000 HD
BRANCH  17  20
ATOM     20  C   UNL     1       6.141   4.496  18.202  0.00  0.00    +0.000 C 
ATOM     21  C   UNL     1       6.502   5.996  18.092  0.00  0.00    +0.000 C 
ATOM     22  C   UNL     1       6.693   6.199  16.578  0.00  0.00    +0.000 C 
ATOM     23  C   UNL     1       5.326   6.091  15.879  0.00  0.00    +0.000 C 
ATOM     24  C   UNL     1       5.033   4.584  15.921  0.00  0.00    +0.000 C 
ATOM     25  C   UNL     1       6.221   4.028  16.726  0.00  0.00    +0.000 C 
ATOM     26  C   UNL     1       7.365   4.887  16.180  0.00  0.00    +0.000 C 
ENDBRANCH  17  20
ENDBRANCH   1  18
TORSDOF 3
ENDMDL
MODEL 4
REMARK VINA RESULT:      -7.9      3.992      7.543
REMARK  Name = 
REMARK  3 active torsions:
REMARK  status: ('A' for Active; 'I' for Inactive)
REMARK    1  A    between atoms: C_2  and  C_18
REMARK    2  A    between atoms: N_3  and  S_4
REMARK    3  A    between atoms: S_4  and  C_7
REMARK                            x       y       z     vdW  Elec       q    Type
REMARK                         _______ _______ _______ _____ _____    ______ ____
ROOT
ATOM      1  S   UNL     1       2.445   4.891  19.757  0.00  0.00    +0.000 S 
ATOM      2  O   UNL     1       1.455   4.111  19.043  0.00  0.00    +0.000 OA
ATOM      3  O   UNL     1       2.676   4.679  21.167  0.00  0.00    +0.000 OA
ENDROOT
BRANCH   1   4
ATOM      4  C   UNL     1       2.040   6.601  19.480  0.00  0.00    +0.000 A 
ATOM      5  C   UNL     1       2.257   7.177  18.224  0.00  0.00    +0.000 A 
ATOM      6  C   UNL     1       2.016   8.544  18.034  0.00  0.00    +0.000 A 
ATOM      7  C   UNL     1       1.558   9.341  19.087  0.00  0.00    +0.000 A 
ATOM      8  N   UNL     1       1.342  10.712  18.856  0.00  0.00    +0.000 NA
ATOM      9  C   UNL     1       0.935  11.426  19.848  0.00  0.00    +0.000 A 
ATOM     10  N   UNL     1       0.693  10.935  21.100  0.00  0.00    +0.000 N 
ATOM     11  C   UNL     1       0.858   9.612  21.422  0.00  0.00    +0.000 A 
ATOM     12  O   UNL     1       0.611   9.175  22.540  0.00  0.00    +0.000 OA
ATOM     13  C   UNL     1       1.343   8.744  20.333  0.00  0.00    +0.000 A 
ATOM     14  C   UNL     1       1.587   7.382  20.548  0.00  0.00    +0.000 A 
ATOM     15  H   UNL     1       0.365  11.542  21.837  0.00  0.00    +0.000 HD
ENDBRANCH   1   4
BRANCH   1  18
ATOM     16  O   UNL     1       2.969   3.788  17.009  0.00  0.00    +0.000 OA
ATOM     17  C   UNL     1       3.954   4.162  17.624  0.00  0.00    +0.000 C 
ATOM     18  N   UNL     1       3.869   4.677  18.925  0.00  0.00    +0.000 N 
ATOM     19  H   UNL     1       4.690   4.977  19.442  0.00  0.00    +0.000 HD
BRANCH  17  20
ATOM     20  C   UNL     1       5.368   4.072  17.066  0.00  0.00    +0.000 C 
ATOM     21  C   UNL     1       6.456   4.634  18.012  0.00  0.00    +0.000 C 
ATOM     22  C   UNL     1       7.093   5.761  17.180  0.00  0.00    +0.000 C 
ATOM     23  C   UNL     1       6.084   6.916  17.042  0.00  0.00    +0.000 C 
ATOM     24  C   UNL     1       5.066   6.368  16.031  0.00  0.00    +0.000 C 
ATOM     25  C   UNL     1       5.563   4.931  15.792  0.00  0.00    +0.000 C 
ATOM     26  C   UNL     1       7.078   5.150  15.780  0.00  0.00    +0.000 C 
ENDBRANCH  17  20
ENDBRANCH   1  18
TORSDOF 3
ENDMDL
MODEL 5
REMARK VINA RESULT:      -7.8      4.022      7.255
REMARK  Name = 
REMARK  3 active torsions:
REMARK  status: ('A' for Active; 'I' for Inactive)
REMARK    1  A    between atoms: C_2  and  C_18
REMARK    2  A    between atoms: N_3  and  S_4
REMARK    3  A    between atoms: S_4  and  C_7
REMARK                            x       y       z     vdW  Elec       q    Type
REMARK                         _______ _______ _______ _____ _____    ______ ____
ROOT
ATOM      1  S   UNL     1       2.411   5.108  20.073  0.00  0.00    +0.000 S 
ATOM      2  O   UNL     1       1.586   4.483  19.060  0.00  0.00    +0.000 OA
ATOM      3  O   UNL     1       2.517   4.536  21.395  0.00  0.00    +0.000 OA
ENDROOT
BRANCH   1   4
ATOM      4  C   UNL     1       1.862   6.795  20.207  0.00  0.00    +0.000 A 
ATOM      5  C   UNL     1       1.137   7.209  21.330  0.00  0.00    +0.000 A 
ATOM      6  C   UNL     1       0.635   8.515  21.392  0.00  0.00    +0.000 A 
ATOM      7  C   UNL     1       0.850   9.413  20.343  0.00  0.00    +0.000 A 
ATOM      8  N   UNL     1       0.316  10.710  20.439  0.00  0.00    +0.000 NA
ATOM      9  C   UNL     1       0.516  11.513  19.451  0.00  0.00    +0.000 A 
ATOM     10  N   UNL     1       1.218  11.184  18.327  0.00  0.00    +0.000 N 
ATOM     11  C   UNL     1       1.791   9.952  18.143  0.00  0.00    +0.000 A 
ATOM     12  O   UNL     1       2.444   9.676  17.143  0.00  0.00    +0.000 OA
ATOM     13  C   UNL     1       1.580   8.980  19.231  0.00  0.00    +0.000 A 
ATOM     14  C   UNL     1       2.084   7.676  19.144  0.00  0.00    +0.000 A 
ATOM     15  H   UNL     1       1.351  11.859  17.587  0.00  0.00    +0.000 HD
ENDBRANCH   1   4
BRANCH   1  18
ATOM     16  O   UNL     1       4.263   2.999  18.992  0.00  0.00    +0.000 OA
ATOM     17  C   UNL     1       4.669   4.147  18.918  0.00  0.00    +0.000 C 
ATOM     18  N   UNL     1       3.927   5.234  19.402  0.00  0.00    +0.000 N 
ATOM     19  H   UNL     1       4.272   6.187  19.351  0.00  0.00    +0.000 HD
BRANCH  17  20
ATOM     20  C   UNL     1       6.029   4.513  18.336  0.00  0.00    +0.000 C 
ATOM     21  C   UNL     1       6.392   6.010  18.475  0.00  0.00    +0.000 C 
ATOM     22  C   UNL     1       6.574   6.462  17.015  0.00  0.00    +0.000 C 
ATOM     23  C   UNL     1       5.202   6.473  16.317  0.00  0.00    +0.000 C 
ATOM     24  C   UNL     1       4.907   4.981  16.109  0.00  0.00    +0.000 C 
ATOM     25  C   UNL     1       6.098   4.297  16.803  0.00  0.00    +0.000 C 
ATOM     26  C   UNL     1       7.241   5.233  16.399  0.00  0.00    +0.000 C 
ENDBRANCH  17  20
ENDBRANCH   1  18
TORSDOF 3
ENDMDL
MODEL 6
REMARK VINA RESULT:      -7.7      3.249      6.844
REMARK  Name = 
REMARK  3 active torsions:
REMARK  status: ('A' for Active; 'I' for Inactive)
REMARK    1  A    between atoms: C_2  and  C_18
REMARK    2  A    between atoms: N_3  and  S_4
REMARK    3  A    between atoms: S_4  and  C_7
REMARK                            x       y       z     vdW  Elec       q    Type
REMARK                         _______ _______ _______ _____ _____    ______ ____
ROOT
ATOM      1  S   UNL     1       2.420   3.419  18.701  0.00  0.00    +0.000 S 
ATOM      2  O   UNL     1       1.303   3.106  17.834  0.00  0.00    +0.000 OA
ATOM      3  O   UNL     1       2.788   2.533  19.781  0.00  0.00    +0.000 OA
ENDROOT
BRANCH   1   4
ATOM      4  C   UNL     1       2.116   5.045  19.354  0.00  0.00    +0.000 A 
ATOM      5  C   UNL     1       1.663   5.199  20.669  0.00  0.00    +0.000 A 
ATOM      6  C   UNL     1       1.345   6.475  21.151  0.00  0.00    +0.000 A 
ATOM      7  C   UNL     1       1.476   7.600  20.332  0.00  0.00    +0.000 A 
ATOM      8  N   UNL     1       1.132   8.861  20.852  0.00  0.00    +0.000 NA
ATOM      9  C   UNL     1       1.249   9.880  20.071  0.00  0.00    +0.000 A 
ATOM     10  N   UNL     1       1.691   9.811  18.781  0.00  0.00    +0.000 N 
ATOM     11  C   UNL     1       2.065   8.632  18.186  0.00  0.00    +0.000 A 
ATOM     12  O   UNL     1       2.488   8.584  17.037  0.00  0.00    +0.000 OA
ATOM     13  C   UNL     1       1.936   7.425  19.023  0.00  0.00    +0.000 A 
ATOM     14  C   UNL     1       2.250   6.157  18.517  0.00  0.00    +0.000 A 
ATOM     15  H   UNL     1       1.771  10.646  18.218  0.00  0.00    +0.000 HD
ENDBRANCH   1   4
BRANCH   1  18
ATOM     16  O   UNL     1       5.300   4.036  19.314  0.00  0.00    +0.000 OA
ATOM     17  C   UNL     1       5.029   3.898  18.133  0.00  0.00    +0.000 C 
ATOM     18  N   UNL     1       3.725   3.630  17.692  0.00  0.00    +0.000 N 
ATOM     19  H   UNL     1       3.498   3.528  16.708  0.00  0.00    +0.000 HD
BRANCH  17  20
ATOM     20  C   UNL     1       6.060   4.040  17.020  0.00  0.00    +0.000 C 
ATOM     21  C   UNL     1       7.383   4.704  17.468  0.00  0.00    +0.000 C 
ATOM     22  C   UNL     1       7.468   5.952  16.570  0.00  0.00    +0.000 C 
ATOM     23  C   UNL     1       6.381   6.955  16.998  0.00  0.00    +0.000 C 
ATOM     24  C   UNL     1       5.091   6.318  16.464  0.00  0.00    +0.000 C 
ATOM     25  C   UNL     1       5.586   4.980  15.884  0.00  0.00    +0.000 C 
ATOM     26  C   UNL     1       6.911   5.415  15.253  0.00  0.00    +0.000 C 
ENDBRANCH  17  20
ENDBRANCH   1  18
TORSDOF 3
ENDMDL
MODEL 7
REMARK VINA RESULT:      -7.5      3.509      6.782
REMARK  Name = 
REMARK  3 active torsions:
REMARK  status: ('A' for Active; 'I' for Inactive)
REMARK    1  A    between atoms: C_2  and  C_18
REMARK    2  A    between atoms: N_3  and  S_4
REMARK    3  A    between atoms: S_4  and  C_7
REMARK                            x       y       z     vdW  Elec       q    Type
REMARK                         _______ _______ _______ _____ _____    ______ ____
ROOT
ATOM      1  S   UNL     1       2.799   3.922  19.535  0.00  0.00    +0.000 S 
ATOM      2  O   UNL     1       1.821   3.333  18.643  0.00  0.00    +0.000 OA
ATOM      3  O   UNL     1       3.084   3.324  20.818  0.00  0.00    +0.000 OA
ENDROOT
BRANCH   1   4
ATOM      4  C   UNL     1       2.313   5.617  19.774  0.00  0.00    +0.000 A 
ATOM      5  C   UNL     1       1.665   6.000  20.953  0.00  0.00    +0.000 A 
ATOM      6  C   UNL     1       1.210   7.317  21.100  0.00  0.00    +0.000 A 
ATOM      7  C   UNL     1       1.396   8.255  20.082  0.00  0.00    +0.000 A 
ATOM      8  N   UNL     1       0.911   9.562  20.265  0.00  0.00    +0.000 NA
ATOM      9  C   UNL     1       1.082  10.403  19.304  0.00  0.00    +0.000 A 
ATOM     10  N   UNL     1       1.711  10.105  18.128  0.00  0.00    +0.000 N 
ATOM     11  C   UNL     1       2.233   8.866  17.858  0.00  0.00    +0.000 A 
ATOM     12  O   UNL     1       2.821   8.617  16.812  0.00  0.00    +0.000 OA
ATOM     13  C   UNL     1       2.050   7.852  18.912  0.00  0.00    +0.000 A 
ATOM     14  C   UNL     1       2.505   6.539  18.740  0.00  0.00    +0.000 A 
ATOM     15  H   UNL     1       1.825  10.809  17.413  0.00  0.00    +0.000 HD
ENDBRANCH   1   4
BRANCH   1  18
ATOM     16  O   UNL     1       3.286   3.659  16.579  0.00  0.00    +0.000 OA
ATOM     17  C   UNL     1       4.271   3.903  17.257  0.00  0.00    +0.000 C 
ATOM     18  N   UNL     1       4.203   4.030  18.651  0.00  0.00    +0.000 N 
ATOM     19  H   UNL     1       5.026   4.220  19.216  0.00  0.00    +0.000 HD
BRANCH  17  20
ATOM     20  C   UNL     1       5.669   4.052  16.670  0.00  0.00    +0.000 C 
ATOM     21  C   UNL     1       6.718   4.591  17.671  0.00  0.00    +0.000 C 
ATOM     22  C   UNL     1       7.202   5.890  17.002  0.00  0.00    +0.000 C 
ATOM     23  C   UNL     1       6.070   6.933  17.048  0.00  0.00    +0.000 C 
ATOM     24  C   UNL     1       5.087   6.424  15.984  0.00  0.00    +0.000 C 
ATOM     25  C   UNL     1       5.729   5.101  15.531  0.00  0.00    +0.000 C 
ATOM     26  C   UNL     1       7.211   5.487  15.529  0.00  0.00    +0.000 C 
ENDBRANCH  17  20
ENDBRANCH   1  18
TORSDOF 3
ENDMDL
MODEL 8
REMARK VINA RESULT:      -7.3      3.993      7.372
REMARK  Name = 
REMARK  3 active torsions:
REMARK  status: ('A' for Active; 'I' for Inactive)
REMARK    1  A    between atoms: C_2  and  C_18
REMARK    2  A    between atoms: N_3  and  S_4
REMARK    3  A    between atoms: S_4  and  C_7
REMARK                            x       y       z     vdW  Elec       q    Type
REMARK                         _______ _______ _______ _____ _____    ______ ____
ROOT
ATOM      1  S   UNL     1       2.444   5.139  19.565  0.00  0.00    +0.000 S 
ATOM      2  O   UNL     1       1.261   4.382  19.211  0.00  0.00    +0.000 OA
ATOM      3  O   UNL     1       3.319   4.691  20.623  0.00  0.00    +0.000 OA
ENDROOT
BRANCH   1   4
ATOM      4  C   UNL     1       1.900   6.796  19.917  0.00  0.00    +0.000 A 
ATOM      5  C   UNL     1       1.233   7.075  21.114  0.00  0.00    +0.000 A 
ATOM      6  C   UNL     1       0.732   8.362  21.349  0.00  0.00    +0.000 A 
ATOM      7  C   UNL     1       0.893   9.374  20.399  0.00  0.00    +0.000 A 
ATOM      8  N   UNL     1       0.362  10.649  20.669  0.00  0.00    +0.000 NA
ATOM      9  C   UNL     1       0.511  11.560  19.770  0.00  0.00    +0.000 A 
ATOM     10  N   UNL     1       1.157  11.366  18.582  0.00  0.00    +0.000 N 
ATOM     11  C   UNL     1       1.721  10.166  18.230  0.00  0.00    +0.000 A 
ATOM     12  O   UNL     1       2.323  10.010  17.174  0.00  0.00    +0.000 OA
ATOM     13  C   UNL     1       1.567   9.076  19.210  0.00  0.00    +0.000 A 
ATOM     14  C   UNL     1       2.067   7.793  18.951  0.00  0.00    +0.000 A 
ATOM     15  H   UNL     1       1.251  12.121  17.917  0.00  0.00    +0.000 HD
ENDBRANCH   1   4
BRANCH   1  18
ATOM     16  O   UNL     1       4.119   3.146  18.059  0.00  0.00    +0.000 OA
ATOM     17  C   UNL     1       4.040   4.255  17.558  0.00  0.00    +0.000 C 
ATOM     18  N   UNL     1       3.315   5.295  18.157  0.00  0.00    +0.000 N 
ATOM     19  H   UNL     1       3.260   6.221  17.745  0.00  0.00    +0.000 HD
BRANCH  17  20
ATOM     20  C   UNL     1       4.747   4.636  16.263  0.00  0.00    +0.000 C 
ATOM     21  C   UNL     1       5.745   3.571  15.753  0.00  0.00    +0.000 C 
ATOM     22  C   UNL     1       7.085   4.329  15.731  0.00  0.00    +0.000 C 
ATOM     23  C   UNL     1       7.533   4.599  17.179  0.00  0.00    +0.000 C 
ATOM     24  C   UNL     1       6.588   5.721  17.631  0.00  0.00    +0.000 C 
ATOM     25  C   UNL     1       5.651   5.885  16.422  0.00  0.00    +0.000 C 
ATOM     26  C   UNL     1       6.640   5.715  15.267  0.00  0.00    +0.000 C 
ENDBRANCH  17  20
ENDBRANCH   1  18
TORSDOF 3
ENDMDL
MODEL 9
REMARK VINA RESULT:      -7.3      4.279      7.926
REMARK  Name = 
REMARK  3 active torsions:
REMARK  status: ('A' for Active; 'I' for Inactive)
REMARK    1  A    between atoms: C_2  and  C_18
REMARK    2  A    between atoms: N_3  and  S_4
REMARK    3  A    between atoms: S_4  and  C_7
REMARK                            x       y       z     vdW  Elec       q    Type
REMARK                         _______ _______ _______ _____ _____    ______ ____
ROOT
ATOM      1  S   UNL     1       2.566   5.634  19.262  0.00  0.00    +0.000 S 
ATOM      2  O   UNL     1       1.398   4.779  19.189  0.00  0.00    +0.000 OA
ATOM      3  O   UNL     1       3.534   5.474  20.321  0.00  0.00    +0.000 OA
ENDROOT
BRANCH   1   4
ATOM      4  C   UNL     1       1.969   7.310  19.261  0.00  0.00    +0.000 A 
ATOM      5  C   UNL     1       2.076   8.091  18.106  0.00  0.00    +0.000 A 
ATOM      6  C   UNL     1       1.682   9.435  18.135  0.00  0.00    +0.000 A 
ATOM      7  C   UNL     1       1.181  10.006  19.308  0.00  0.00    +0.000 A 
ATOM      8  N   UNL     1       0.810  11.363  19.298  0.00  0.00    +0.000 NA
ATOM      9  C   UNL     1       0.365  11.868  20.396  0.00  0.00    +0.000 A 
ATOM     10  N   UNL     1       0.224  11.168  21.561  0.00  0.00    +0.000 N 
ATOM     11  C   UNL     1       0.543   9.838  21.671  0.00  0.00    +0.000 A 
ATOM     12  O   UNL     1       0.386   9.212  22.712  0.00  0.00    +0.000 OA
ATOM     13  C   UNL     1       1.078   9.206  20.451  0.00  0.00    +0.000 A 
ATOM     14  C   UNL     1       1.474   7.863  20.447  0.00  0.00    +0.000 A 
ATOM     15  H   UNL     1      -0.139  11.616  22.390  0.00  0.00    +0.000 HD
ENDBRANCH   1   4
BRANCH   1  18
ATOM     16  O   UNL     1       4.228   3.396  18.133  0.00  0.00    +0.000 OA
ATOM     17  C   UNL     1       4.059   4.352  17.395  0.00  0.00    +0.000 C 
ATOM     18  N   UNL     1       3.326   5.480  17.791  0.00  0.00    +0.000 N 
ATOM     19  H   UNL     1       3.196   6.280  17.180  0.00  0.00    +0.000 HD
BRANCH  17  20
ATOM     20  C   UNL     1       4.653   4.438  15.994  0.00  0.00    +0.000 C 
ATOM     21  C   UNL     1       5.686   3.332  15.679  0.00  0.00    +0.000 C 
ATOM     22  C   UNL     1       6.966   4.129  15.369  0.00  0.00    +0.000 C 
ATOM     23  C   UNL     1       7.488   4.769  16.668  0.00  0.00    +0.000 C 
ATOM     24  C   UNL     1       6.499   5.918  16.910  0.00  0.00    +0.000 C 
ATOM     25  C   UNL     1       5.476   5.732  15.775  0.00  0.00    +0.000 C 
ATOM     26  C   UNL     1       6.399   5.333  14.620  0.00  0.00    +0.000 C 
ENDBRANCH  17  20
ENDBRANCH   1  18
TORSDOF 3
ENDMDL
