MODEL 1
REMARK VINA RESULT:      -6.3      0.000      0.000
REMARK  Name = 
REMARK  7 active torsions:
REMARK  status: ('A' for Active; 'I' for Inactive)
REMARK    1  A    between atoms: C_2  and  C_3
REMARK    2  A    between atoms: N_5  and  C_6
REMARK    3  A    between atoms: C_6  and  C_7
REMARK    4  A    between atoms: C_7  and  C_8
REMARK    5  A    between atoms: C_8  and  C_9
REMARK    6  A    between atoms: C_9  and  N_10
REMARK    7  A    between atoms: N_10  and  C_11
REMARK                            x       y       z     vdW  Elec       q    Type
REMARK                         _______ _______ _______ _____ _____    ______ ____
ROOT
ATOM      1  N   UNL     1       4.538   3.176  18.317  0.00  0.00    +0.000 N 
ATOM      2  H   UNL     1       3.649   3.340  17.854  0.00  0.00    +0.000 HD
ENDROOT
BRANCH   1   3
ATOM      3  C   UNL     1       5.479   4.188  17.996  0.00  0.00    +0.000 A 
ATOM      4  C   UNL     1       6.070   4.961  19.001  0.00  0.00    +0.000 A 
ATOM      5  C   UNL     1       7.028   5.896  18.668  0.00  0.00    +0.000 A 
ATOM      6  N   UNL     1       7.468   6.102  17.416  0.00  0.00    +0.000 NA
ATOM      7  C   UNL     1       6.959   5.340  16.441  0.00  0.00    +0.000 A 
ATOM      8  C   UNL     1       7.457   5.547  15.165  0.00  0.00    +0.000 A 
ATOM      9  C   UNL     1       7.000   4.805  14.081  0.00  0.00    +0.000 A 
ATOM     10 CL   UNL     1       7.648   5.091  12.514  0.00  0.00    +0.000 Cl
ATOM     11  C   UNL     1       6.028   3.834  14.263  0.00  0.00    +0.000 A 
ATOM     12  C   UNL     1       5.518   3.604  15.541  0.00  0.00    +0.000 A 
ATOM     13  C   UNL     1       5.964   4.351  16.662  0.00  0.00    +0.000 A 
ENDBRANCH   1   3
BRANCH   1  14
ATOM     14  C   UNL     1       4.341   2.855  19.732  0.00  0.00    +0.000 C 
BRANCH  14  15
ATOM     15  C   UNL     1       2.919   2.342  19.965  0.00  0.00    +0.000 C 
BRANCH  15  16
ATOM     16  C   UNL     1       2.238   3.137  21.081  0.00  0.00    +0.000 C 
BRANCH  16  17
ATOM     17  C   UNL     1       1.220   4.125  20.521  0.00  0.00    +0.000 C 
BRANCH  17  20
ATOM     18  O   UNL     1       2.040   5.073  17.986  0.00  0.00    +0.000 OA
ATOM     19  C   UNL     1       2.202   5.794  18.969  0.00  0.00    +0.000 C 
ATOM     20  N   UNL     1       1.826   5.409  20.235  0.00  0.00    +0.000 N 
ATOM     21  H   UNL     1       2.051   6.031  21.005  0.00  0.00    +0.000 HD
BRANCH  19  22
ATOM     22  C   UNL     1       2.821   7.177  18.828  0.00  0.00    +0.000 C 
ATOM     23 CL   UNL     1       3.833   7.342  17.373  0.00  0.00    +0.000 Cl
ENDBRANCH  19  22
ENDBRANCH  17  20
ENDBRANCH  16  17
ENDBRANCH  15  16
ENDBRANCH  14  15
ENDBRANCH   1  14
TORSDOF 7
ENDMDL
MODEL 2
REMARK VINA RESULT:      -6.2      2.460      6.055
REMARK  Name = 
REMARK  7 active torsions:
REMARK  status: ('A' for Active; 'I' for Inactive)
REMARK    1  A    between atoms: C_2  and  C_3
REMARK    2  A    between atoms: N_5  and  C_6
REMARK    3  A    between atoms: C_6  and  C_7
REMARK    4  A    between atoms: C_7  and  C_8
REMARK    5  A    between atoms: C_8  and  C_9
REMARK    6  A    between atoms: C_9  and  N_10
REMARK    7  A    between atoms: N_10  and  C_11
REMARK                            x       y       z     vdW  Elec       q    Type
REMARK                         _______ _______ _______ _____ _____    ______ ____
ROOT
ATOM      1  N   UNL     1       4.841   3.566  18.265  0.00  0.00    +0.000 N 
ATOM      2  H   UNL     1       5.495   4.343  18.271  0.00  0.00    +0.000 HD
ENDROOT
BRANCH   1   3
ATOM      3  C   UNL     1       3.862   3.713  19.281  0.00  0.00    +0.000 A 
ATOM      4  C   UNL     1       3.604   2.674  20.182  0.00  0.00    +0.000 A 
ATOM      5  C   UNL     1       2.692   2.865  21.200  0.00  0.00    +0.000 A 
ATOM      6  N   UNL     1       2.037   4.018  21.411  0.00  0.00    +0.000 NA
ATOM      7  C   UNL     1       2.304   5.046  20.597  0.00  0.00    +0.000 A 
ATOM      8  C   UNL     1       1.643   6.235  20.859  0.00  0.00    +0.000 A 
ATOM      9  C   UNL     1       1.852   7.366  20.077  0.00  0.00    +0.000 A 
ATOM     10 CL   UNL     1       1.014   8.824  20.439  0.00  0.00    +0.000 Cl
ATOM     11  C   UNL     1       2.736   7.321  19.010  0.00  0.00    +0.000 A 
ATOM     12  C   UNL     1       3.417   6.136  18.732  0.00  0.00    +0.000 A 
ATOM     13  C   UNL     1       3.217   4.967  19.512  0.00  0.00    +0.000 A 
ENDBRANCH   1   3
BRANCH   1  14
ATOM     14  C   UNL     1       4.374   3.282  16.907  0.00  0.00    +0.000 C 
BRANCH  14  15
ATOM     15  C   UNL     1       4.865   4.362  15.942  0.00  0.00    +0.000 C 
BRANCH  15  16
ATOM     16  C   UNL     1       6.152   3.915  15.246  0.00  0.00    +0.000 C 
BRANCH  16  17
ATOM     17  C   UNL     1       7.389   4.443  15.966  0.00  0.00    +0.000 C 
BRANCH  17  20
ATOM     18  O   UNL     1       7.268   5.761  18.464  0.00  0.00    +0.000 OA
ATOM     19  C   UNL     1       7.247   6.437  17.436  0.00  0.00    +0.000 C 
ATOM     20  N   UNL     1       7.308   5.873  16.184  0.00  0.00    +0.000 N 
ATOM     21  H   UNL     1       7.220   6.490  15.382  0.00  0.00    +0.000 HD
BRANCH  19  22
ATOM     22  C   UNL     1       7.170   7.955  17.503  0.00  0.00    +0.000 C 
ATOM     23 CL   UNL     1       8.510   8.682  18.423  0.00  0.00    +0.000 Cl
ENDBRANCH  19  22
ENDBRANCH  17  20
ENDBRANCH  16  17
ENDBRANCH  15  16
ENDBRANCH  14  15
ENDBRANCH   1  14
TORSDOF 7
ENDMDL
MODEL 3
REMARK VINA RESULT:      -6.2      2.440      6.337
REMARK  Name = 
REMARK  7 active torsions:
REMARK  status: ('A' for Active; 'I' for Inactive)
REMARK    1  A    between atoms: C_2  and  C_3
REMARK    2  A    between atoms: N_5  and  C_6
REMARK    3  A    between atoms: C_6  and  C_7
REMARK    4  A    between atoms: C_7  and  C_8
REMARK    5  A    between atoms: C_8  and  C_9
REMARK    6  A    between atoms: C_9  and  N_10
REMARK    7  A    between atoms: N_10  and  C_11
REMARK                            x       y       z     vdW  Elec       q    Type
REMARK                         _______ _______ _______ _____ _____    ______ ____
ROOT
ATOM      1  N   UNL     1       2.971   3.415  16.990  0.00  0.00    +0.000 N 
ATOM      2  H   UNL     1       2.769   2.512  16.571  0.00  0.00    +0.000 HD
ENDROOT
BRANCH   1   3
ATOM      3  C   UNL     1       2.377   3.530  18.273  0.00  0.00    +0.000 A 
ATOM      4  C   UNL     1       2.076   2.392  19.028  0.00  0.00    +0.000 A 
ATOM      5  C   UNL     1       1.557   2.532  20.298  0.00  0.00    +0.000 A 
ATOM      6  N   UNL     1       1.341   3.718  20.890  0.00  0.00    +0.000 NA
ATOM      7  C   UNL     1       1.670   4.824  20.213  0.00  0.00    +0.000 A 
ATOM      8  C   UNL     1       1.473   6.033  20.861  0.00  0.00    +0.000 A 
ATOM      9  C   UNL     1       1.786   7.241  20.248  0.00  0.00    +0.000 A 
ATOM     10 CL   UNL     1       1.529   8.719  21.089  0.00  0.00    +0.000 Cl
ATOM     11  C   UNL     1       2.308   7.256  18.964  0.00  0.00    +0.000 A 
ATOM     12  C   UNL     1       2.522   6.050  18.296  0.00  0.00    +0.000 A 
ATOM     13  C   UNL     1       2.205   4.804  18.898  0.00  0.00    +0.000 A 
ENDBRANCH   1   3
BRANCH   1  14
ATOM     14  C   UNL     1       4.393   3.744  16.867  0.00  0.00    +0.000 C 
BRANCH  14  15
ATOM     15  C   UNL     1       4.648   4.505  15.565  0.00  0.00    +0.000 C 
BRANCH  15  16
ATOM     16  C   UNL     1       5.855   3.917  14.829  0.00  0.00    +0.000 C 
BRANCH  16  17
ATOM     17  C   UNL     1       7.019   4.901  14.791  0.00  0.00    +0.000 C 
BRANCH  17  20
ATOM     18  O   UNL     1       8.054   4.165  17.317  0.00  0.00    +0.000 OA
ATOM     19  C   UNL     1       7.577   5.291  17.177  0.00  0.00    +0.000 C 
ATOM     20  N   UNL     1       7.058   5.726  15.981  0.00  0.00    +0.000 N 
ATOM     21  H   UNL     1       6.623   6.643  15.959  0.00  0.00    +0.000 HD
BRANCH  19  22
ATOM     22  C   UNL     1       7.552   6.276  18.336  0.00  0.00    +0.000 C 
ATOM     23 CL   UNL     1       7.837   7.958  17.827  0.00  0.00    +0.000 Cl
ENDBRANCH  19  22
ENDBRANCH  17  20
ENDBRANCH  16  17
ENDBRANCH  15  16
ENDBRANCH  14  15
ENDBRANCH   1  14
TORSDOF 7
ENDMDL
MODEL 4
REMARK VINA RESULT:      -6.2      3.587      7.244
REMARK  Name = 
REMARK  7 active torsions:
REMARK  status: ('A' for Active; 'I' for Inactive)
REMARK    1  A    between atoms: C_2  and  C_3
REMARK    2  A    between atoms: N_5  and  C_6
REMARK    3  A    between atoms: C_6  and  C_7
REMARK    4  A    between atoms: C_7  and  C_8
REMARK    5  A    between atoms: C_8  and  C_9
REMARK    6  A    between atoms: C_9  and  N_10
REMARK    7  A    between atoms: N_10  and  C_11
REMARK                            x       y       z     vdW  Elec       q    Type
REMARK                         _______ _______ _______ _____ _____    ______ ____
ROOT
ATOM      1  N   UNL     1       2.550   6.511  20.249  0.00  0.00    +0.000 N 
ATOM      2  H   UNL     1       3.361   6.182  19.734  0.00  0.00    +0.000 HD
ENDROOT
BRANCH   1   3
ATOM      3  C   UNL     1       2.065   7.734  19.717  0.00  0.00    +0.000 A 
ATOM      4  C   UNL     1       2.190   8.020  18.353  0.00  0.00    +0.000 A 
ATOM      5  C   UNL     1       1.655   9.188  17.850  0.00  0.00    +0.000 A 
ATOM      6  N   UNL     1       0.978  10.080  18.591  0.00  0.00    +0.000 NA
ATOM      7  C   UNL     1       0.797   9.807  19.888  0.00  0.00    +0.000 A 
ATOM      8  C   UNL     1       0.063  10.725  20.621  0.00  0.00    +0.000 A 
ATOM      9  C   UNL     1      -0.187  10.534  21.976  0.00  0.00    +0.000 A 
ATOM     10 CL   UNL     1      -1.106  11.697  22.849  0.00  0.00    +0.000 Cl
ATOM     11  C   UNL     1       0.297   9.407  22.621  0.00  0.00    +0.000 A 
ATOM     12  C   UNL     1       1.033   8.466  21.901  0.00  0.00    +0.000 A 
ATOM     13  C   UNL     1       1.306   8.641  20.519  0.00  0.00    +0.000 A 
ENDBRANCH   1   3
BRANCH   1  14
ATOM     14  C   UNL     1       1.584   5.430  20.456  0.00  0.00    +0.000 C 
BRANCH  14  15
ATOM     15  C   UNL     1       2.062   4.154  19.760  0.00  0.00    +0.000 C 
BRANCH  15  16
ATOM     16  C   UNL     1       2.095   4.351  18.243  0.00  0.00    +0.000 C 
BRANCH  16  17
ATOM     17  C   UNL     1       3.422   3.890  17.649  0.00  0.00    +0.000 C 
BRANCH  17  20
ATOM     18  O   UNL     1       5.279   5.486  19.062  0.00  0.00    +0.000 OA
ATOM     19  C   UNL     1       5.067   5.734  17.876  0.00  0.00    +0.000 C 
ATOM     20  N   UNL     1       4.183   5.002  17.118  0.00  0.00    +0.000 N 
ATOM     21  H   UNL     1       4.011   5.307  16.165  0.00  0.00    +0.000 HD
BRANCH  19  22
ATOM     22  C   UNL     1       5.796   6.870  17.174  0.00  0.00    +0.000 C 
ATOM     23 CL   UNL     1       7.509   6.993  17.641  0.00  0.00    +0.000 Cl
ENDBRANCH  19  22
ENDBRANCH  17  20
ENDBRANCH  16  17
ENDBRANCH  15  16
ENDBRANCH  14  15
ENDBRANCH   1  14
TORSDOF 7
ENDMDL
MODEL 5
REMARK VINA RESULT:      -6.2      2.786      6.865
REMARK  Name = 
REMARK  7 active torsions:
REMARK  status: ('A' for Active; 'I' for Inactive)
REMARK    1  A    between atoms: C_2  and  C_3
REMARK    2  A    between atoms: N_5  and  C_6
REMARK    3  A    between atoms: C_6  and  C_7
REMARK    4  A    between atoms: C_7  and  C_8
REMARK    5  A    between atoms: C_8  and  C_9
REMARK    6  A    between atoms: C_9  and  N_10
REMARK    7  A    between atoms: N_10  and  C_11
REMARK                            x       y       z     vdW  Elec       q    Type
REMARK                         _______ _______ _______ _____ _____    ______ ____
ROOT
ATOM      1  N   UNL     1       3.165   3.561  17.181  0.00  0.00    +0.000 N 
ATOM      2  H   UNL     1       2.860   2.678  16.780  0.00  0.00    +0.000 HD
ENDROOT
BRANCH   1   3
ATOM      3  C   UNL     1       2.654   3.732  18.493  0.00  0.00    +0.000 A 
ATOM      4  C   UNL     1       2.542   2.645  19.366  0.00  0.00    +0.000 A 
ATOM      5  C   UNL     1       2.102   2.850  20.657  0.00  0.00    +0.000 A 
ATOM      6  N   UNL     1       1.791   4.056  21.159  0.00  0.00    +0.000 NA
ATOM      7  C   UNL     1       1.939   5.121  20.363  0.00  0.00    +0.000 A 
ATOM      8  C   UNL     1       1.648   6.357  20.917  0.00  0.00    +0.000 A 
ATOM      9  C   UNL     1       1.772   7.528  20.177  0.00  0.00    +0.000 A 
ATOM     10 CL   UNL     1       1.404   9.043  20.904  0.00  0.00    +0.000 Cl
ATOM     11  C   UNL     1       2.197   7.477  18.859  0.00  0.00    +0.000 A 
ATOM     12  C   UNL     1       2.503   6.244  18.283  0.00  0.00    +0.000 A 
ATOM     13  C   UNL     1       2.378   5.034  19.015  0.00  0.00    +0.000 A 
ENDBRANCH   1   3
BRANCH   1  14
ATOM     14  C   UNL     1       4.601   3.761  16.979  0.00  0.00    +0.000 C 
BRANCH  14  15
ATOM     15  C   UNL     1       4.842   4.720  15.812  0.00  0.00    +0.000 C 
BRANCH  15  16
ATOM     16  C   UNL     1       6.288   5.223  15.822  0.00  0.00    +0.000 C 
BRANCH  16  17
ATOM     17  C   UNL     1       7.105   4.595  14.697  0.00  0.00    +0.000 C 
BRANCH  17  20
ATOM     18  O   UNL     1       7.230   4.271  11.892  0.00  0.00    +0.000 OA
ATOM     19  C   UNL     1       6.423   3.598  12.530  0.00  0.00    +0.000 C 
ATOM     20  N   UNL     1       6.303   3.693  13.897  0.00  0.00    +0.000 N 
ATOM     21  H   UNL     1       5.570   3.154  14.347  0.00  0.00    +0.000 HD
BRANCH  19  22
ATOM     22  C   UNL     1       5.513   2.599  11.829  0.00  0.00    +0.000 C 
ATOM     23 CL   UNL     1       4.019   3.336  11.203  0.00  0.00    +0.000 Cl
ENDBRANCH  19  22
ENDBRANCH  17  20
ENDBRANCH  16  17
ENDBRANCH  15  16
ENDBRANCH  14  15
ENDBRANCH   1  14
TORSDOF 7
ENDMDL
MODEL 6
REMARK VINA RESULT:      -6.1      2.942      6.891
REMARK  Name = 
REMARK  7 active torsions:
REMARK  status: ('A' for Active; 'I' for Inactive)
REMARK    1  A    between atoms: C_2  and  C_3
REMARK    2  A    between atoms: N_5  and  C_6
REMARK    3  A    between atoms: C_6  and  C_7
REMARK    4  A    between atoms: C_7  and  C_8
REMARK    5  A    between atoms: C_8  and  C_9
REMARK    6  A    between atoms: C_9  and  N_10
REMARK    7  A    between atoms: N_10  and  C_11
REMARK                            x       y       z     vdW  Elec       q    Type
REMARK                         _______ _______ _______ _____ _____    ______ ____
ROOT
ATOM      1  N   UNL     1       4.695   5.615  16.788  0.00  0.00    +0.000 N 
ATOM      2  H   UNL     1       4.483   4.669  16.485  0.00  0.00    +0.000 HD
ENDROOT
BRANCH   1   3
ATOM      3  C   UNL     1       3.824   6.028  17.829  0.00  0.00    +0.000 A 
ATOM      4  C   UNL     1       3.321   7.332  17.867  0.00  0.00    +0.000 A 
ATOM      5  C   UNL     1       2.426   7.690  18.854  0.00  0.00    +0.000 A 
ATOM      6  N   UNL     1       1.969   6.843  19.791  0.00  0.00    +0.000 NA
ATOM      7  C   UNL     1       2.393   5.575  19.748  0.00  0.00    +0.000 A 
ATOM      8  C   UNL     1       1.877   4.714  20.703  0.00  0.00    +0.000 A 
ATOM      9  C   UNL     1       2.248   3.374  20.743  0.00  0.00    +0.000 A 
ATOM     10 CL   UNL     1       1.581   2.337  21.942  0.00  0.00    +0.000 Cl
ATOM     11  C   UNL     1       3.149   2.873  19.816  0.00  0.00    +0.000 A 
ATOM     12  C   UNL     1       3.675   3.721  18.842  0.00  0.00    +0.000 A 
ATOM     13  C   UNL     1       3.317   5.093  18.783  0.00  0.00    +0.000 A 
ENDBRANCH   1   3
BRANCH   1  14
ATOM     14  C   UNL     1       6.133   5.792  16.994  0.00  0.00    +0.000 C 
BRANCH  14  15
ATOM     15  C   UNL     1       6.906   4.642  16.346  0.00  0.00    +0.000 C 
BRANCH  15  16
ATOM     16  C   UNL     1       6.067   3.984  15.249  0.00  0.00    +0.000 C 
BRANCH  16  17
ATOM     17  C   UNL     1       6.525   4.416  13.860  0.00  0.00    +0.000 C 
BRANCH  17  20
ATOM     18  O   UNL     1       4.388   3.717  12.145  0.00  0.00    +0.000 OA
ATOM     19  C   UNL     1       5.413   3.036  12.124  0.00  0.00    +0.000 C 
ATOM     20  N   UNL     1       6.497   3.313  12.922  0.00  0.00    +0.000 N 
ATOM     21  H   UNL     1       7.281   2.668  12.897  0.00  0.00    +0.000 HD
BRANCH  19  22
ATOM     22  C   UNL     1       5.537   1.844  11.185  0.00  0.00    +0.000 C 
ATOM     23 CL   UNL     1       7.207   1.247  11.035  0.00  0.00    +0.000 Cl
ENDBRANCH  19  22
ENDBRANCH  17  20
ENDBRANCH  16  17
ENDBRANCH  15  16
ENDBRANCH  14  15
ENDBRANCH   1  14
TORSDOF 7
ENDMDL
MODEL 7
REMARK VINA RESULT:      -6.1      2.548      6.261
REMARK  Name = 
REMARK  7 active torsions:
REMARK  status: ('A' for Active; 'I' for Inactive)
REMARK    1  A    between atoms: C_2  and  C_3
REMARK    2  A    between atoms: N_5  and  C_6
REMARK    3  A    between atoms: C_6  and  C_7
REMARK    4  A    between atoms: C_7  and  C_8
REMARK    5  A    between atoms: C_8  and  C_9
REMARK    6  A    between atoms: C_9  and  N_10
REMARK    7  A    between atoms: N_10  and  C_11
REMARK                            x       y       z     vdW  Elec       q    Type
REMARK                         _______ _______ _______ _____ _____    ______ ____
ROOT
ATOM      1  N   UNL     1       2.847   3.067  17.245  0.00  0.00    +0.000 N 
ATOM      2  H   UNL     1       2.462   2.226  16.825  0.00  0.00    +0.000 HD
ENDROOT
BRANCH   1   3
ATOM      3  C   UNL     1       2.294   3.298  18.531  0.00  0.00    +0.000 A 
ATOM      4  C   UNL     1       2.005   2.231  19.388  0.00  0.00    +0.000 A 
ATOM      5  C   UNL     1       1.527   2.486  20.657  0.00  0.00    +0.000 A 
ATOM      6  N   UNL     1       1.341   3.720  21.152  0.00  0.00    +0.000 NA
ATOM      7  C   UNL     1       1.660   4.761  20.373  0.00  0.00    +0.000 A 
ATOM      8  C   UNL     1       1.495   6.022  20.922  0.00  0.00    +0.000 A 
ATOM      9  C   UNL     1       1.801   7.170  20.199  0.00  0.00    +0.000 A 
ATOM     10 CL   UNL     1       1.586   8.717  20.919  0.00  0.00    +0.000 Cl
ATOM     11  C   UNL     1       2.284   7.069  18.904  0.00  0.00    +0.000 A 
ATOM     12  C   UNL     1       2.464   5.809  18.334  0.00  0.00    +0.000 A 
ATOM     13  C   UNL     1       2.154   4.622  19.049  0.00  0.00    +0.000 A 
ENDBRANCH   1   3
BRANCH   1  14
ATOM     14  C   UNL     1       4.305   3.096  17.117  0.00  0.00    +0.000 C 
BRANCH  14  15
ATOM     15  C   UNL     1       4.730   4.219  16.169  0.00  0.00    +0.000 C 
BRANCH  15  16
ATOM     16  C   UNL     1       6.025   3.846  15.443  0.00  0.00    +0.000 C 
BRANCH  16  17
ATOM     17  C   UNL     1       6.942   5.054  15.281  0.00  0.00    +0.000 C 
BRANCH  17  20
ATOM     18  O   UNL     1       6.452   7.390  16.797  0.00  0.00    +0.000 OA
ATOM     19  C   UNL     1       7.279   6.578  17.210  0.00  0.00    +0.000 C 
ATOM     20  N   UNL     1       7.571   5.417  16.534  0.00  0.00    +0.000 N 
ATOM     21  H   UNL     1       8.311   4.828  16.903  0.00  0.00    +0.000 HD
BRANCH  19  22
ATOM     22  C   UNL     1       8.020   6.817  18.518  0.00  0.00    +0.000 C 
ATOM     23 CL   UNL     1       7.695   5.564  19.741  0.00  0.00    +0.000 Cl
ENDBRANCH  19  22
ENDBRANCH  17  20
ENDBRANCH  16  17
ENDBRANCH  15  16
ENDBRANCH  14  15
ENDBRANCH   1  14
TORSDOF 7
ENDMDL
MODEL 8
REMARK VINA RESULT:      -6.1      3.684      7.644
REMARK  Name = 
REMARK  7 active torsions:
REMARK  status: ('A' for Active; 'I' for Inactive)
REMARK    1  A    between atoms: C_2  and  C_3
REMARK    2  A    between atoms: N_5  and  C_6
REMARK    3  A    between atoms: C_6  and  C_7
REMARK    4  A    between atoms: C_7  and  C_8
REMARK    5  A    between atoms: C_8  and  C_9
REMARK    6  A    between atoms: C_9  and  N_10
REMARK    7  A    between atoms: N_10  and  C_11
REMARK                            x       y       z     vdW  Elec       q    Type
REMARK                         _______ _______ _______ _____ _____    ______ ____
ROOT
ATOM      1  N   UNL     1       2.606   6.641  20.125  0.00  0.00    +0.000 N 
ATOM      2  H   UNL     1       3.077   6.781  21.014  0.00  0.00    +0.000 HD
ENDROOT
BRANCH   1   3
ATOM      3  C   UNL     1       2.050   7.855  19.643  0.00  0.00    +0.000 A 
ATOM      4  C   UNL     1       2.144   8.197  18.290  0.00  0.00    +0.000 A 
ATOM      5  C   UNL     1       1.540   9.352  17.835  0.00  0.00    +0.000 A 
ATOM      6  N   UNL     1       0.824  10.178  18.615  0.00  0.00    +0.000 NA
ATOM      7  C   UNL     1       0.673   9.847  19.903  0.00  0.00    +0.000 A 
ATOM      8  C   UNL     1      -0.102  10.697  20.676  0.00  0.00    +0.000 A 
ATOM      9  C   UNL     1      -0.326  10.442  22.025  0.00  0.00    +0.000 A 
ATOM     10 CL   UNL     1      -1.297  11.520  22.949  0.00  0.00    +0.000 Cl
ATOM     11  C   UNL     1       0.226   9.321  22.624  0.00  0.00    +0.000 A 
ATOM     12  C   UNL     1       1.004   8.449  21.862  0.00  0.00    +0.000 A 
ATOM     13  C   UNL     1       1.252   8.689  20.485  0.00  0.00    +0.000 A 
ENDBRANCH   1   3
BRANCH   1  14
ATOM     14  C   UNL     1       3.439   5.863  19.206  0.00  0.00    +0.000 C 
BRANCH  14  15
ATOM     15  C   UNL     1       3.107   4.375  19.323  0.00  0.00    +0.000 C 
BRANCH  15  16
ATOM     16  C   UNL     1       3.890   3.567  18.286  0.00  0.00    +0.000 C 
BRANCH  16  17
ATOM     17  C   UNL     1       5.312   4.095  18.125  0.00  0.00    +0.000 C 
BRANCH  17  20
ATOM     18  O   UNL     1       7.889   4.419  17.009  0.00  0.00    +0.000 OA
ATOM     19  C   UNL     1       6.908   4.520  16.273  0.00  0.00    +0.000 C 
ATOM     20  N   UNL     1       5.623   4.371  16.737  0.00  0.00    +0.000 N 
ATOM     21  H   UNL     1       4.862   4.533  16.084  0.00  0.00    +0.000 HD
BRANCH  19  22
ATOM     22  C   UNL     1       7.074   4.802  14.787  0.00  0.00    +0.000 C 
ATOM     23 CL   UNL     1       5.883   3.947  13.778  0.00  0.00    +0.000 Cl
ENDBRANCH  19  22
ENDBRANCH  17  20
ENDBRANCH  16  17
ENDBRANCH  15  16
ENDBRANCH  14  15
ENDBRANCH   1  14
TORSDOF 7
ENDMDL
MODEL 9
REMARK VINA RESULT:      -6.1      3.561      7.227
REMARK  Name = 
REMARK  7 active torsions:
REMARK  status: ('A' for Active; 'I' for Inactive)
REMARK    1  A    between atoms: C_2  and  C_3
REMARK    2  A    between atoms: N_5  and  C_6
REMARK    3  A    between atoms: C_6  and  C_7
REMARK    4  A    between atoms: C_7  and  C_8
REMARK    5  A    between atoms: C_8  and  C_9
REMARK    6  A    between atoms: C_9  and  N_10
REMARK    7  A    between atoms: N_10  and  C_11
REMARK                            x       y       z     vdW  Elec       q    Type
REMARK                         _______ _______ _______ _____ _____    ______ ____
ROOT
ATOM      1  N   UNL     1       2.470   6.642  20.329  0.00  0.00    +0.000 N 
ATOM      2  H   UNL     1       3.246   6.292  19.776  0.00  0.00    +0.000 HD
ENDROOT
BRANCH   1   3
ATOM      3  C   UNL     1       1.956   7.848  19.785  0.00  0.00    +0.000 A 
ATOM      4  C   UNL     1       2.058   8.117  18.417  0.00  0.00    +0.000 A 
ATOM      5  C   UNL     1       1.495   9.267  17.903  0.00  0.00    +0.000 A 
ATOM      6  N   UNL     1       0.810  10.157  18.640  0.00  0.00    +0.000 NA
ATOM      7  C   UNL     1       0.650   9.899  19.943  0.00  0.00    +0.000 A 
ATOM      8  C   UNL     1      -0.092  10.814  20.672  0.00  0.00    +0.000 A 
ATOM      9  C   UNL     1      -0.322  10.638  22.033  0.00  0.00    +0.000 A 
ATOM     10 CL   UNL     1      -1.253  11.795  22.900  0.00  0.00    +0.000 Cl
ATOM     11  C   UNL     1       0.192   9.530  22.688  0.00  0.00    +0.000 A 
ATOM     12  C   UNL     1       0.936   8.592  21.972  0.00  0.00    +0.000 A 
ATOM     13  C   UNL     1       1.190   8.752  20.584  0.00  0.00    +0.000 A 
ENDBRANCH   1   3
BRANCH   1  14
ATOM     14  C   UNL     1       1.517   5.574  20.634  0.00  0.00    +0.000 C 
BRANCH  14  15
ATOM     15  C   UNL     1       2.255   4.340  21.156  0.00  0.00    +0.000 C 
BRANCH  15  16
ATOM     16  C   UNL     1       1.349   3.108  21.096  0.00  0.00    +0.000 C 
BRANCH  16  17
ATOM     17  C   UNL     1       1.203   2.591  19.668  0.00  0.00    +0.000 C 
BRANCH  17  20
ATOM     18  O   UNL     1       1.315   4.013  17.227  0.00  0.00    +0.000 OA
ATOM     19  C   UNL     1       2.358   3.559  17.697  0.00  0.00    +0.000 C 
ATOM     20  N   UNL     1       2.388   2.861  18.881  0.00  0.00    +0.000 N 
ATOM     21  H   UNL     1       3.275   2.461  19.172  0.00  0.00    +0.000 HD
BRANCH  19  22
ATOM     22  C   UNL     1       3.688   3.767  16.987  0.00  0.00    +0.000 C 
ATOM     23 CL   UNL     1       4.289   5.438  17.106  0.00  0.00    +0.000 Cl
ENDBRANCH  19  22
ENDBRANCH  17  20
ENDBRANCH  16  17
ENDBRANCH  15  16
ENDBRANCH  14  15
ENDBRANCH   1  14
TORSDOF 7
ENDMDL
