MODEL 1
REMARK VINA RESULT:      -8.1      0.000      0.000
REMARK  Name = 
REMARK  4 active torsions:
REMARK  status: ('A' for Active; 'I' for Inactive)
REMARK    1  A    between atoms: C_1  and  C_2
REMARK    2  A    between atoms: C_5  and  C_6
REMARK    3  A    between atoms: C_7  and  C_8
REMARK    4  A    between atoms: C_14  and  C_15
REMARK                            x       y       z     vdW  Elec       q    Type
REMARK                         _______ _______ _______ _____ _____    ______ ____
ROOT
ATOM      1  C   UNL     1       5.010   6.132  17.641  0.00  0.00    +0.000 A 
ATOM      2  C   UNL     1       4.451   7.235  16.952  0.00  0.00    +0.000 A 
ATOM      3  C   UNL     1       3.331   7.922  17.437  0.00  0.00    +0.000 A 
ATOM      4  C   UNL     1       2.803   7.502  18.633  0.00  0.00    +0.000 A 
ATOM      5  C   UNL     1       3.334   6.433  19.341  0.00  0.00    +0.000 A 
ATOM      6  C   UNL     1       4.423   5.732  18.853  0.00  0.00    +0.000 A 
ATOM      7  C   UNL     1       2.509   6.186  20.583  0.00  0.00    +0.000 C 
ATOM      8  C   UNL     1       1.442   7.298  20.468  0.00  0.00    +0.000 C 
ATOM      9  O   UNL     1       0.526   7.534  21.236  0.00  0.00    +0.000 OA
ATOM     10  N   UNL     1       1.697   8.006  19.296  0.00  0.00    +0.000 N 
ATOM     11  H   UNL     1       1.117   8.769  18.984  0.00  0.00    +0.000 HD
ENDROOT
BRANCH   1  18
ATOM     12  C   UNL     1       5.397   4.659  14.672  0.00  0.00    +0.000 C 
ATOM     13  C   UNL     1       6.334   4.775  15.815  0.00  0.00    +0.000 A 
ATOM     14  N   UNL     1       7.546   4.216  15.717  0.00  0.00    +0.000 NA
ATOM     15  O   UNL     1       8.177   4.470  16.913  0.00  0.00    +0.000 OA
ATOM     16  C   UNL     1       7.354   5.182  17.729  0.00  0.00    +0.000 A 
ATOM     17  C   UNL     1       7.937   5.541  19.039  0.00  0.00    +0.000 C 
ATOM     18  C   UNL     1       6.148   5.408  17.089  0.00  0.00    +0.000 A 
ENDBRANCH   1  18
BRANCH   7  19
ATOM     19  C   UNL     1       1.924   4.790  20.627  0.00  0.00    +0.000 A 
ATOM     20  C   UNL     1       2.204   3.937  21.706  0.00  0.00    +0.000 A 
ATOM     21  C   UNL     1       1.755   2.615  21.694  0.00  0.00    +0.000 A 
ATOM     22  C   UNL     1       1.005   2.139  20.622  0.00  0.00    +0.000 A 
ATOM     23  C   UNL     1       0.692   2.981  19.561  0.00  0.00    +0.000 A 
ATOM     24  C   UNL     1       1.150   4.298  19.560  0.00  0.00    +0.000 A 
ENDBRANCH   7  19
TORSDOF 2
ENDMDL
MODEL 2
REMARK VINA RESULT:      -7.9      2.378      6.290
REMARK  Name = 
REMARK  4 active torsions:
REMARK  status: ('A' for Active; 'I' for Inactive)
REMARK    1  A    between atoms: C_1  and  C_2
REMARK    2  A    between atoms: C_5  and  C_6
REMARK    3  A    between atoms: C_7  and  C_8
REMARK    4  A    between atoms: C_14  and  C_15
REMARK                            x       y       z     vdW  Elec       q    Type
REMARK                         _______ _______ _______ _____ _____    ______ ____
ROOT
ATOM      1  C   UNL     1       1.987   6.569  20.062  0.00  0.00    +0.000 A 
ATOM      2  C   UNL     1       1.004   5.638  20.474  0.00  0.00    +0.000 A 
ATOM      3  C   UNL     1       1.280   4.271  20.591  0.00  0.00    +0.000 A 
ATOM      4  C   UNL     1       2.562   3.860  20.315  0.00  0.00    +0.000 A 
ATOM      5  C   UNL     1       3.554   4.748  19.921  0.00  0.00    +0.000 A 
ATOM      6  C   UNL     1       3.279   6.097  19.777  0.00  0.00    +0.000 A 
ATOM      7  C   UNL     1       4.833   3.991  19.646  0.00  0.00    +0.000 C 
ATOM      8  C   UNL     1       4.405   2.542  19.965  0.00  0.00    +0.000 C 
ATOM      9  O   UNL     1       5.085   1.533  19.901  0.00  0.00    +0.000 OA
ATOM     10  N   UNL     1       3.064   2.571  20.341  0.00  0.00    +0.000 N 
ATOM     11  H   UNL     1       2.545   1.738  20.572  0.00  0.00    +0.000 HD
ENDROOT
BRANCH   1  18
ATOM     12  C   UNL     1       0.626   8.720  22.220  0.00  0.00    +0.000 C 
ATOM     13  C   UNL     1       1.079   8.920  20.823  0.00  0.00    +0.000 A 
ATOM     14  N   UNL     1       0.945  10.129  20.266  0.00  0.00    +0.000 NA
ATOM     15  O   UNL     1       1.430  10.012  18.984  0.00  0.00    +0.000 OA
ATOM     16  C   UNL     1       1.859   8.740  18.767  0.00  0.00    +0.000 A 
ATOM     17  C   UNL     1       2.431   8.498  17.425  0.00  0.00    +0.000 C 
ATOM     18  C   UNL     1       1.658   7.981  19.906  0.00  0.00    +0.000 A 
ENDBRANCH   1  18
BRANCH   7  19
ATOM     19  C   UNL     1       5.326   4.177  18.226  0.00  0.00    +0.000 A 
ATOM     20  C   UNL     1       6.621   4.663  17.984  0.00  0.00    +0.000 A 
ATOM     21  C   UNL     1       7.037   4.937  16.680  0.00  0.00    +0.000 A 
ATOM     22  C   UNL     1       6.179   4.707  15.606  0.00  0.00    +0.000 A 
ATOM     23  C   UNL     1       4.905   4.196  15.829  0.00  0.00    +0.000 A 
ATOM     24  C   UNL     1       4.478   3.934  17.130  0.00  0.00    +0.000 A 
ENDBRANCH   7  19
TORSDOF 2
ENDMDL
MODEL 3
REMARK VINA RESULT:      -7.8      2.359      6.368
REMARK  Name = 
REMARK  4 active torsions:
REMARK  status: ('A' for Active; 'I' for Inactive)
REMARK    1  A    between atoms: C_1  and  C_2
REMARK    2  A    between atoms: C_5  and  C_6
REMARK    3  A    between atoms: C_7  and  C_8
REMARK    4  A    between atoms: C_14  and  C_15
REMARK                            x       y       z     vdW  Elec       q    Type
REMARK                         _______ _______ _______ _____ _____    ______ ____
ROOT
ATOM      1  C   UNL     1       1.980   6.581  20.044  0.00  0.00    +0.000 A 
ATOM      2  C   UNL     1       1.010   5.633  20.450  0.00  0.00    +0.000 A 
ATOM      3  C   UNL     1       1.300   4.267  20.539  0.00  0.00    +0.000 A 
ATOM      4  C   UNL     1       2.583   3.874  20.242  0.00  0.00    +0.000 A 
ATOM      5  C   UNL     1       3.562   4.777  19.854  0.00  0.00    +0.000 A 
ATOM      6  C   UNL     1       3.274   6.126  19.737  0.00  0.00    +0.000 A 
ATOM      7  C   UNL     1       4.845   4.038  19.552  0.00  0.00    +0.000 C 
ATOM      8  C   UNL     1       4.434   2.579  19.849  0.00  0.00    +0.000 C 
ATOM      9  O   UNL     1       5.123   1.578  19.760  0.00  0.00    +0.000 OA
ATOM     10  N   UNL     1       3.097   2.589  20.240  0.00  0.00    +0.000 N 
ATOM     11  H   UNL     1       2.588   1.747  20.462  0.00  0.00    +0.000 HD
ENDROOT
BRANCH   1  18
ATOM     12  C   UNL     1       0.590   8.671  22.243  0.00  0.00    +0.000 C 
ATOM     13  C   UNL     1       1.045   8.906  20.852  0.00  0.00    +0.000 A 
ATOM     14  N   UNL     1       0.900  10.125  20.320  0.00  0.00    +0.000 NA
ATOM     15  O   UNL     1       1.390  10.040  19.038  0.00  0.00    +0.000 OA
ATOM     16  C   UNL     1       1.833   8.777  18.794  0.00  0.00    +0.000 A 
ATOM     17  C   UNL     1       2.412   8.569  17.450  0.00  0.00    +0.000 C 
ATOM     18  C   UNL     1       1.636   7.992  19.917  0.00  0.00    +0.000 A 
ENDBRANCH   1  18
BRANCH   7  19
ATOM     19  C   UNL     1       5.321   4.254  18.130  0.00  0.00    +0.000 A 
ATOM     20  C   UNL     1       4.498   3.909  17.047  0.00  0.00    +0.000 A 
ATOM     21  C   UNL     1       4.977   4.006  15.739  0.00  0.00    +0.000 A 
ATOM     22  C   UNL     1       6.268   4.470  15.498  0.00  0.00    +0.000 A 
ATOM     23  C   UNL     1       7.083   4.846  16.560  0.00  0.00    +0.000 A 
ATOM     24  C   UNL     1       6.616   4.738  17.868  0.00  0.00    +0.000 A 
ENDBRANCH   7  19
TORSDOF 2
ENDMDL
MODEL 4
REMARK VINA RESULT:      -7.8      2.356      6.209
REMARK  Name = 
REMARK  4 active torsions:
REMARK  status: ('A' for Active; 'I' for Inactive)
REMARK    1  A    between atoms: C_1  and  C_2
REMARK    2  A    between atoms: C_5  and  C_6
REMARK    3  A    between atoms: C_7  and  C_8
REMARK    4  A    between atoms: C_14  and  C_15
REMARK                            x       y       z     vdW  Elec       q    Type
REMARK                         _______ _______ _______ _____ _____    ______ ____
ROOT
ATOM      1  C   UNL     1       1.975   6.639  20.059  0.00  0.00    +0.000 A 
ATOM      2  C   UNL     1       0.991   5.709  20.472  0.00  0.00    +0.000 A 
ATOM      3  C   UNL     1       1.266   4.342  20.589  0.00  0.00    +0.000 A 
ATOM      4  C   UNL     1       2.548   3.931  20.313  0.00  0.00    +0.000 A 
ATOM      5  C   UNL     1       3.540   4.817  19.919  0.00  0.00    +0.000 A 
ATOM      6  C   UNL     1       3.267   6.166  19.774  0.00  0.00    +0.000 A 
ATOM      7  C   UNL     1       4.819   4.060  19.644  0.00  0.00    +0.000 C 
ATOM      8  C   UNL     1       4.390   2.611  19.964  0.00  0.00    +0.000 C 
ATOM      9  O   UNL     1       5.070   1.602  19.901  0.00  0.00    +0.000 OA
ATOM     10  N   UNL     1       3.050   2.641  20.340  0.00  0.00    +0.000 N 
ATOM     11  H   UNL     1       2.530   1.808  20.573  0.00  0.00    +0.000 HD
ENDROOT
BRANCH   1  18
ATOM     12  C   UNL     1       2.258   8.640  17.403  0.00  0.00    +0.000 C 
ATOM     13  C   UNL     1       1.755   8.924  18.768  0.00  0.00    +0.000 A 
ATOM     14  N   UNL     1       1.338  10.161  19.061  0.00  0.00    +0.000 NA
ATOM     15  O   UNL     1       0.947  10.127  20.379  0.00  0.00    +0.000 OA
ATOM     16  C   UNL     1       1.123   8.876  20.882  0.00  0.00    +0.000 A 
ATOM     17  C   UNL     1       0.709   8.709  22.292  0.00  0.00    +0.000 C 
ATOM     18  C   UNL     1       1.646   8.051  19.902  0.00  0.00    +0.000 A 
ENDBRANCH   1  18
BRANCH   7  19
ATOM     19  C   UNL     1       5.312   4.245  18.224  0.00  0.00    +0.000 A 
ATOM     20  C   UNL     1       4.464   3.973  17.139  0.00  0.00    +0.000 A 
ATOM     21  C   UNL     1       4.951   4.038  15.832  0.00  0.00    +0.000 A 
ATOM     22  C   UNL     1       6.275   4.399  15.594  0.00  0.00    +0.000 A 
ATOM     23  C   UNL     1       7.117   4.703  16.658  0.00  0.00    +0.000 A 
ATOM     24  C   UNL     1       6.642   4.625  17.965  0.00  0.00    +0.000 A 
ENDBRANCH   7  19
TORSDOF 2
ENDMDL
MODEL 5
REMARK VINA RESULT:      -7.8      2.339      6.141
REMARK  Name = 
REMARK  4 active torsions:
REMARK  status: ('A' for Active; 'I' for Inactive)
REMARK    1  A    between atoms: C_1  and  C_2
REMARK    2  A    between atoms: C_5  and  C_6
REMARK    3  A    between atoms: C_7  and  C_8
REMARK    4  A    between atoms: C_14  and  C_15
REMARK                            x       y       z     vdW  Elec       q    Type
REMARK                         _______ _______ _______ _____ _____    ______ ____
ROOT
ATOM      1  C   UNL     1       2.000   6.596  20.035  0.00  0.00    +0.000 A 
ATOM      2  C   UNL     1       1.016   5.673  20.461  0.00  0.00    +0.000 A 
ATOM      3  C   UNL     1       1.289   4.306  20.594  0.00  0.00    +0.000 A 
ATOM      4  C   UNL     1       2.569   3.890  20.320  0.00  0.00    +0.000 A 
ATOM      5  C   UNL     1       3.562   4.770  19.913  0.00  0.00    +0.000 A 
ATOM      6  C   UNL     1       3.291   6.117  19.752  0.00  0.00    +0.000 A 
ATOM      7  C   UNL     1       4.839   4.007  19.644  0.00  0.00    +0.000 C 
ATOM      8  C   UNL     1       4.408   2.562  19.982  0.00  0.00    +0.000 C 
ATOM      9  O   UNL     1       5.086   1.551  19.929  0.00  0.00    +0.000 OA
ATOM     10  N   UNL     1       3.068   2.599  20.361  0.00  0.00    +0.000 N 
ATOM     11  H   UNL     1       2.548   1.770  20.604  0.00  0.00    +0.000 HD
ENDROOT
BRANCH   1  18
ATOM     12  C   UNL     1       2.354   8.585  17.379  0.00  0.00    +0.000 C 
ATOM     13  C   UNL     1       1.813   8.874  18.728  0.00  0.00    +0.000 A 
ATOM     14  N   UNL     1       1.386  10.112  19.003  0.00  0.00    +0.000 NA
ATOM     15  O   UNL     1       0.959  10.084  20.310  0.00  0.00    +0.000 OA
ATOM     16  C   UNL     1       1.122   8.836  20.824  0.00  0.00    +0.000 A 
ATOM     17  C   UNL     1       0.670   8.675  22.222  0.00  0.00    +0.000 C 
ATOM     18  C   UNL     1       1.674   8.007  19.862  0.00  0.00    +0.000 A 
ENDBRANCH   1  18
BRANCH   7  19
ATOM     19  C   UNL     1       5.329   4.174  18.221  0.00  0.00    +0.000 A 
ATOM     20  C   UNL     1       6.618   4.668  17.969  0.00  0.00    +0.000 A 
ATOM     21  C   UNL     1       7.030   4.925  16.660  0.00  0.00    +0.000 A 
ATOM     22  C   UNL     1       6.173   4.669  15.591  0.00  0.00    +0.000 A 
ATOM     23  C   UNL     1       4.905   4.148  15.824  0.00  0.00    +0.000 A 
ATOM     24  C   UNL     1       4.482   3.904  17.130  0.00  0.00    +0.000 A 
ENDBRANCH   7  19
TORSDOF 2
ENDMDL
MODEL 6
REMARK VINA RESULT:      -7.7      0.412      1.696
REMARK  Name = 
REMARK  4 active torsions:
REMARK  status: ('A' for Active; 'I' for Inactive)
REMARK    1  A    between atoms: C_1  and  C_2
REMARK    2  A    between atoms: C_5  and  C_6
REMARK    3  A    between atoms: C_7  and  C_8
REMARK    4  A    between atoms: C_14  and  C_15
REMARK                            x       y       z     vdW  Elec       q    Type
REMARK                         _______ _______ _______ _____ _____    ______ ____
ROOT
ATOM      1  C   UNL     1       5.005   6.096  17.663  0.00  0.00    +0.000 A 
ATOM      2  C   UNL     1       4.448   7.192  16.961  0.00  0.00    +0.000 A 
ATOM      3  C   UNL     1       3.330   7.886  17.437  0.00  0.00    +0.000 A 
ATOM      4  C   UNL     1       2.799   7.480  18.638  0.00  0.00    +0.000 A 
ATOM      5  C   UNL     1       3.328   6.418  19.358  0.00  0.00    +0.000 A 
ATOM      6  C   UNL     1       4.416   5.710  18.879  0.00  0.00    +0.000 A 
ATOM      7  C   UNL     1       2.501   6.187  20.602  0.00  0.00    +0.000 C 
ATOM      8  C   UNL     1       1.437   7.299  20.473  0.00  0.00    +0.000 C 
ATOM      9  O   UNL     1       0.521   7.546  21.238  0.00  0.00    +0.000 OA
ATOM     10  N   UNL     1       1.694   7.994  19.294  0.00  0.00    +0.000 N 
ATOM     11  H   UNL     1       1.115   8.755  18.973  0.00  0.00    +0.000 HD
ENDROOT
BRANCH   1  18
ATOM     12  C   UNL     1       7.981   5.420  19.011  0.00  0.00    +0.000 C 
ATOM     13  C   UNL     1       7.424   5.058  17.686  0.00  0.00    +0.000 A 
ATOM     14  N   UNL     1       8.181   4.356  16.835  0.00  0.00    +0.000 NA
ATOM     15  O   UNL     1       7.419   4.184  15.704  0.00  0.00    +0.000 OA
ATOM     16  C   UNL     1       6.205   4.775  15.868  0.00  0.00    +0.000 A 
ATOM     17  C   UNL     1       5.283   4.631  14.722  0.00  0.00    +0.000 C 
ATOM     18  C   UNL     1       6.142   5.363  17.119  0.00  0.00    +0.000 A 
ENDBRANCH   1  18
BRANCH   7  19
ATOM     19  C   UNL     1       1.914   4.792  20.660  0.00  0.00    +0.000 A 
ATOM     20  C   UNL     1       2.221   3.938  21.731  0.00  0.00    +0.000 A 
ATOM     21  C   UNL     1       1.768   2.617  21.730  0.00  0.00    +0.000 A 
ATOM     22  C   UNL     1       0.987   2.144  20.678  0.00  0.00    +0.000 A 
ATOM     23  C   UNL     1       0.647   2.989  19.627  0.00  0.00    +0.000 A 
ATOM     24  C   UNL     1       1.108   4.304  19.615  0.00  0.00    +0.000 A 
ENDBRANCH   7  19
TORSDOF 2
ENDMDL
MODEL 7
REMARK VINA RESULT:      -7.7      2.596      6.736
REMARK  Name = 
REMARK  4 active torsions:
REMARK  status: ('A' for Active; 'I' for Inactive)
REMARK    1  A    between atoms: C_1  and  C_2
REMARK    2  A    between atoms: C_5  and  C_6
REMARK    3  A    between atoms: C_7  and  C_8
REMARK    4  A    between atoms: C_14  and  C_15
REMARK                            x       y       z     vdW  Elec       q    Type
REMARK                         _______ _______ _______ _____ _____    ______ ____
ROOT
ATOM      1  C   UNL     1       3.833   3.602  18.724  0.00  0.00    +0.000 A 
ATOM      2  C   UNL     1       3.001   3.506  17.583  0.00  0.00    +0.000 A 
ATOM      3  C   UNL     1       3.464   3.811  16.298  0.00  0.00    +0.000 A 
ATOM      4  C   UNL     1       4.780   4.186  16.175  0.00  0.00    +0.000 A 
ATOM      5  C   UNL     1       5.628   4.278  17.270  0.00  0.00    +0.000 A 
ATOM      6  C   UNL     1       5.168   4.005  18.546  0.00  0.00    +0.000 A 
ATOM      7  C   UNL     1       6.989   4.758  16.820  0.00  0.00    +0.000 C 
ATOM      8  C   UNL     1       6.774   4.903  15.298  0.00  0.00    +0.000 C 
ATOM      9  O   UNL     1       7.583   5.266  14.462  0.00  0.00    +0.000 OA
ATOM     10  N   UNL     1       5.455   4.550  15.023  0.00  0.00    +0.000 N 
ATOM     11  H   UNL     1       5.062   4.591  14.094  0.00  0.00    +0.000 HD
ENDROOT
BRANCH   1  18
ATOM     12  C   UNL     1       1.352   5.056  20.417  0.00  0.00    +0.000 C 
ATOM     13  C   UNL     1       2.241   3.931  20.795  0.00  0.00    +0.000 A 
ATOM     14  N   UNL     1       2.091   3.362  21.996  0.00  0.00    +0.000 NA
ATOM     15  O   UNL     1       3.045   2.374  22.069  0.00  0.00    +0.000 OA
ATOM     16  C   UNL     1       3.768   2.342  20.918  0.00  0.00    +0.000 A 
ATOM     17  C   UNL     1       4.812   1.297  20.868  0.00  0.00    +0.000 C 
ATOM     18  C   UNL     1       3.309   3.322  20.055  0.00  0.00    +0.000 A 
ENDBRANCH   1  18
BRANCH   7  19
ATOM     19  C   UNL     1       7.405   6.047  17.497  0.00  0.00    +0.000 A 
ATOM     20  C   UNL     1       7.199   7.281  16.860  0.00  0.00    +0.000 A 
ATOM     21  C   UNL     1       7.680   8.459  17.434  0.00  0.00    +0.000 A 
ATOM     22  C   UNL     1       8.346   8.422  18.657  0.00  0.00    +0.000 A 
ATOM     23  C   UNL     1       8.528   7.211  19.315  0.00  0.00    +0.000 A 
ATOM     24  C   UNL     1       8.064   6.030  18.740  0.00  0.00    +0.000 A 
ENDBRANCH   7  19
TORSDOF 2
ENDMDL
MODEL 8
REMARK VINA RESULT:      -7.5      0.114      1.013
REMARK  Name = 
REMARK  4 active torsions:
REMARK  status: ('A' for Active; 'I' for Inactive)
REMARK    1  A    between atoms: C_1  and  C_2
REMARK    2  A    between atoms: C_5  and  C_6
REMARK    3  A    between atoms: C_7  and  C_8
REMARK    4  A    between atoms: C_14  and  C_15
REMARK                            x       y       z     vdW  Elec       q    Type
REMARK                         _______ _______ _______ _____ _____    ______ ____
ROOT
ATOM      1  C   UNL     1       5.028   6.124  17.576  0.00  0.00    +0.000 A 
ATOM      2  C   UNL     1       4.440   7.224  16.906  0.00  0.00    +0.000 A 
ATOM      3  C   UNL     1       3.319   7.889  17.415  0.00  0.00    +0.000 A 
ATOM      4  C   UNL     1       2.817   7.450  18.617  0.00  0.00    +0.000 A 
ATOM      5  C   UNL     1       3.376   6.383  19.306  0.00  0.00    +0.000 A 
ATOM      6  C   UNL     1       4.467   5.704  18.794  0.00  0.00    +0.000 A 
ATOM      7  C   UNL     1       2.576   6.113  20.560  0.00  0.00    +0.000 C 
ATOM      8  C   UNL     1       1.491   7.209  20.472  0.00  0.00    +0.000 C 
ATOM      9  O   UNL     1       0.584   7.424  21.257  0.00  0.00    +0.000 OA
ATOM     10  N   UNL     1       1.715   7.932  19.303  0.00  0.00    +0.000 N 
ATOM     11  H   UNL     1       1.118   8.688  19.007  0.00  0.00    +0.000 HD
ENDROOT
BRANCH   1  18
ATOM     12  C   UNL     1       5.415   4.751  14.559  0.00  0.00    +0.000 C 
ATOM     13  C   UNL     1       6.354   4.832  15.703  0.00  0.00    +0.000 A 
ATOM     14  N   UNL     1       7.567   4.281  15.586  0.00  0.00    +0.000 NA
ATOM     15  O   UNL     1       8.200   4.498  16.788  0.00  0.00    +0.000 OA
ATOM     16  C   UNL     1       7.376   5.179  17.628  0.00  0.00    +0.000 A 
ATOM     17  C   UNL     1       7.959   5.497  18.949  0.00  0.00    +0.000 C 
ATOM     18  C   UNL     1       6.168   5.422  16.998  0.00  0.00    +0.000 A 
ENDBRANCH   1  18
BRANCH   7  19
ATOM     19  C   UNL     1       2.014   4.707  20.600  0.00  0.00    +0.000 A 
ATOM     20  C   UNL     1       1.228   4.228  19.540  0.00  0.00    +0.000 A 
ATOM     21  C   UNL     1       0.620   2.974  19.626  0.00  0.00    +0.000 A 
ATOM     22  C   UNL     1       0.810   2.178  20.754  0.00  0.00    +0.000 A 
ATOM     23  C   UNL     1       1.612   2.627  21.797  0.00  0.00    +0.000 A 
ATOM     24  C   UNL     1       2.209   3.884  21.724  0.00  0.00    +0.000 A 
ENDBRANCH   7  19
TORSDOF 2
ENDMDL
MODEL 9
REMARK VINA RESULT:      -7.5      2.951      7.335
REMARK  Name = 
REMARK  4 active torsions:
REMARK  status: ('A' for Active; 'I' for Inactive)
REMARK    1  A    between atoms: C_1  and  C_2
REMARK    2  A    between atoms: C_5  and  C_6
REMARK    3  A    between atoms: C_7  and  C_8
REMARK    4  A    between atoms: C_14  and  C_15
REMARK                            x       y       z     vdW  Elec       q    Type
REMARK                         _______ _______ _______ _____ _____    ______ ____
ROOT
ATOM      1  C   UNL     1       4.645   4.172  17.145  0.00  0.00    +0.000 A 
ATOM      2  C   UNL     1       5.873   4.323  17.833  0.00  0.00    +0.000 A 
ATOM      3  C   UNL     1       7.053   4.686  17.174  0.00  0.00    +0.000 A 
ATOM      4  C   UNL     1       6.973   4.922  15.823  0.00  0.00    +0.000 A 
ATOM      5  C   UNL     1       5.783   4.797  15.119  0.00  0.00    +0.000 A 
ATOM      6  C   UNL     1       4.619   4.410  15.761  0.00  0.00    +0.000 A 
ATOM      7  C   UNL     1       6.028   5.073  13.654  0.00  0.00    +0.000 C 
ATOM      8  C   UNL     1       7.540   5.391  13.651  0.00  0.00    +0.000 C 
ATOM      9  O   UNL     1       8.237   5.685  12.696  0.00  0.00    +0.000 OA
ATOM     10  N   UNL     1       7.998   5.272  14.961  0.00  0.00    +0.000 N 
ATOM     11  H   UNL     1       8.965   5.404  15.214  0.00  0.00    +0.000 HD
ENDROOT
BRANCH   1  18
ATOM     12  C   UNL     1       3.751   1.160  18.270  0.00  0.00    +0.000 C 
ATOM     13  C   UNL     1       3.045   2.461  18.347  0.00  0.00    +0.000 A 
ATOM     14  N   UNL     1       1.847   2.514  18.941  0.00  0.00    +0.000 NA
ATOM     15  O   UNL     1       1.437   3.824  18.851  0.00  0.00    +0.000 OA
ATOM     16  C   UNL     1       2.382   4.562  18.210  0.00  0.00    +0.000 A 
ATOM     17  C   UNL     1       2.064   5.999  18.077  0.00  0.00    +0.000 C 
ATOM     18  C   UNL     1       3.442   3.748  17.851  0.00  0.00    +0.000 A 
ENDBRANCH   1  18
BRANCH   7  19
ATOM     19  C   UNL     1       5.655   3.901  12.770  0.00  0.00    +0.000 A 
ATOM     20  C   UNL     1       6.569   2.859  12.552  0.00  0.00    +0.000 A 
ATOM     21  C   UNL     1       6.267   1.834  11.652  0.00  0.00    +0.000 A 
ATOM     22  C   UNL     1       5.045   1.826  10.983  0.00  0.00    +0.000 A 
ATOM     23  C   UNL     1       4.117   2.835  11.214  0.00  0.00    +0.000 A 
ATOM     24  C   UNL     1       4.418   3.868  12.099  0.00  0.00    +0.000 A 
ENDBRANCH   7  19
TORSDOF 2
ENDMDL
