MODEL 1
REMARK VINA RESULT:      -5.5      0.000      0.000
REMARK  Name = 
REMARK  12 active torsions:
REMARK  status: ('A' for Active; 'I' for Inactive)
REMARK    1  A    between atoms: C_1  and  C_2
REMARK    2  A    between atoms: C_2  and  C_3
REMARK    3  A    between atoms: C_3  and  C_4
REMARK    4  A    between atoms: C_3  and  C_6
REMARK    5  A    between atoms: C_4  and  C_5
REMARK    6  A    between atoms: C_8  and  C_9
REMARK    7  A    between atoms: C_12  and  C_13
REMARK    8  A    between atoms: C_16  and  O_17
REMARK    9  A    between atoms: O_17  and  C_18
REMARK   10  A    between atoms: C_20  and  C_21
REMARK   11  A    between atoms: N_22  and  C_23
REMARK   12  A    between atoms: C_23  and  C_24
REMARK                            x       y       z     vdW  Elec       q    Type
REMARK                         _______ _______ _______ _____ _____    ______ ____
ROOT
ATOM      1  C   UNL     1      -5.037  11.338  18.622  0.00  0.00    +0.000 A 
ATOM      2  C   UNL     1      -4.731  10.762  17.354  0.00  0.00    +0.000 A 
ATOM      3  C   UNL     1      -3.418  11.060  17.054  0.00  0.00    +0.000 A 
ATOM      4  C   UNL     1      -2.623  10.700  15.854  0.00  0.00    +0.000 C 
ATOM      5  N   UNL     1      -2.909  11.784  18.101  0.00  0.00    +0.000 N 
ATOM      6  N   UNL     1      -1.646  12.222  18.217  0.00  0.00    +0.000 NA
ATOM      7  C   UNL     1      -1.357  12.960  19.251  0.00  0.00    +0.000 A 
ATOM      8  N   UNL     1      -2.322  13.337  20.215  0.00  0.00    +0.000 N 
ATOM      9  C   UNL     1      -3.536  12.634  20.259  0.00  0.00    +0.000 A 
ATOM     10  O   UNL     1      -4.237  12.564  21.266  0.00  0.00    +0.000 OA
ATOM     11  C   UNL     1      -3.866  11.946  19.057  0.00  0.00    +0.000 A 
ENDROOT
BRANCH   7  12
ATOM     12  C   UNL     1       0.115  13.358  19.370  0.00  0.00    +0.000 A 
ATOM     13  C   UNL     1       0.569  14.561  18.805  0.00  0.00    +0.000 A 
ATOM     14  C   UNL     1       1.896  14.983  18.927  0.00  0.00    +0.000 A 
ATOM     15  C   UNL     1       2.797  14.271  19.705  0.00  0.00    +0.000 A 
ATOM     16  C   UNL     1       2.360  13.110  20.337  0.00  0.00    +0.000 A 
ATOM     17  C   UNL     1       1.032  12.636  20.180  0.00  0.00    +0.000 A 
ATOM     18  C   UNL     1       0.668  11.394  20.957  0.00  0.00    +0.000 C 
BRANCH  15  19
ATOM     19  O   UNL     1       4.043  14.823  19.784  0.00  0.00    +0.000 OA
ATOM     20  C   UNL     1       4.737  15.025  18.560  0.00  0.00    +0.000 C 
ENDBRANCH  15  19
ENDBRANCH   7  12
BRANCH   8  21
ATOM     21  C   UNL     1      -2.048  14.210  21.375  0.00  0.00    +0.000 C 
ATOM     22  C   UNL     1      -2.358  15.705  21.270  0.00  0.00    +0.000 C 
ENDBRANCH   8  21
BRANCH   1  23
ATOM     23  C   UNL     1      -6.370  11.299  19.344  0.00  0.00    +0.000 C 
BRANCH  23  25
ATOM     24  C   UNL     1      -7.567  13.436  20.142  0.00  0.00    +0.000 C 
ATOM     25  C   UNL     1      -7.248  12.517  18.974  0.00  0.00    +0.000 C 
ENDBRANCH  23  25
BRANCH  23  26
ATOM     26  C   UNL     1      -7.075   9.934  19.187  0.00  0.00    +0.000 C 
ATOM     27  C   UNL     1      -7.543   9.289  20.484  0.00  0.00    +0.000 C 
ENDBRANCH  23  26
ENDBRANCH   1  23
TORSDOF 6
ENDMDL
MODEL 2
REMARK VINA RESULT:      -5.5      3.034      6.820
REMARK  Name = 
REMARK  12 active torsions:
REMARK  status: ('A' for Active; 'I' for Inactive)
REMARK    1  A    between atoms: C_1  and  C_2
REMARK    2  A    between atoms: C_2  and  C_3
REMARK    3  A    between atoms: C_3  and  C_4
REMARK    4  A    between atoms: C_3  and  C_6
REMARK    5  A    between atoms: C_4  and  C_5
REMARK    6  A    between atoms: C_8  and  C_9
REMARK    7  A    between atoms: C_12  and  C_13
REMARK    8  A    between atoms: C_16  and  O_17
REMARK    9  A    between atoms: O_17  and  C_18
REMARK   10  A    between atoms: C_20  and  C_21
REMARK   11  A    between atoms: N_22  and  C_23
REMARK   12  A    between atoms: C_23  and  C_24
REMARK                            x       y       z     vdW  Elec       q    Type
REMARK                         _______ _______ _______ _____ _____    ______ ____
ROOT
ATOM      1  C   UNL     1      -0.431  10.392  18.891  0.00  0.00    +0.000 A 
ATOM      2  C   UNL     1      -1.079  10.114  17.652  0.00  0.00    +0.000 A 
ATOM      3  C   UNL     1      -2.311  10.734  17.664  0.00  0.00    +0.000 A 
ATOM      4  C   UNL     1      -3.367  10.745  16.623  0.00  0.00    +0.000 C 
ATOM      5  N   UNL     1      -2.430  11.394  18.859  0.00  0.00    +0.000 N 
ATOM      6  N   UNL     1      -3.463  12.162  19.237  0.00  0.00    +0.000 NA
ATOM      7  C   UNL     1      -3.438  12.654  20.444  0.00  0.00    +0.000 A 
ATOM      8  N   UNL     1      -2.395  12.379  21.360  0.00  0.00    +0.000 N 
ATOM      9  C   UNL     1      -1.192  11.849  20.868  0.00  0.00    +0.000 A 
ATOM     10  O   UNL     1      -0.116  11.971  21.448  0.00  0.00    +0.000 OA
ATOM     11  C   UNL     1      -1.302  11.209  19.601  0.00  0.00    +0.000 A 
ENDROOT
BRANCH   7  12
ATOM     12  C   UNL     1      -4.601  13.586  20.786  0.00  0.00    +0.000 A 
ATOM     13  C   UNL     1      -5.838  13.055  21.184  0.00  0.00    +0.000 A 
ATOM     14  C   UNL     1      -6.914  13.871  21.546  0.00  0.00    +0.000 A 
ATOM     15  C   UNL     1      -6.763  15.248  21.622  0.00  0.00    +0.000 A 
ATOM     16  C   UNL     1      -5.528  15.803  21.301  0.00  0.00    +0.000 A 
ATOM     17  C   UNL     1      -4.441  14.995  20.878  0.00  0.00    +0.000 A 
ATOM     18  C   UNL     1      -3.140  15.711  20.607  0.00  0.00    +0.000 C 
BRANCH  15  19
ATOM     19  O   UNL     1      -7.875  15.921  22.042  0.00  0.00    +0.000 OA
ATOM     20  C   UNL     1      -7.770  16.641  23.263  0.00  0.00    +0.000 C 
ENDBRANCH  15  19
ENDBRANCH   7  12
BRANCH   8  21
ATOM     21  C   UNL     1      -2.352  12.878  22.750  0.00  0.00    +0.000 C 
ATOM     22  C   UNL     1      -3.293  12.264  23.790  0.00  0.00    +0.000 C 
ENDBRANCH   8  21
BRANCH   1  23
ATOM     23  C   UNL     1       0.929   9.894  19.342  0.00  0.00    +0.000 C 
BRANCH  23  25
ATOM     24  C   UNL     1       1.304   8.969  21.717  0.00  0.00    +0.000 C 
ATOM     25  C   UNL     1       0.797   8.695  20.310  0.00  0.00    +0.000 C 
ENDBRANCH  23  25
BRANCH  23  26
ATOM     26  C   UNL     1       1.882   9.650  18.151  0.00  0.00    +0.000 C 
ATOM     27  C   UNL     1       2.417   8.230  18.024  0.00  0.00    +0.000 C 
ENDBRANCH  23  26
ENDBRANCH   1  23
TORSDOF 6
ENDMDL
MODEL 3
REMARK VINA RESULT:      -5.5      3.551      6.499
REMARK  Name = 
REMARK  12 active torsions:
REMARK  status: ('A' for Active; 'I' for Inactive)
REMARK    1  A    between atoms: C_1  and  C_2
REMARK    2  A    between atoms: C_2  and  C_3
REMARK    3  A    between atoms: C_3  and  C_4
REMARK    4  A    between atoms: C_3  and  C_6
REMARK    5  A    between atoms: C_4  and  C_5
REMARK    6  A    between atoms: C_8  and  C_9
REMARK    7  A    between atoms: C_12  and  C_13
REMARK    8  A    between atoms: C_16  and  O_17
REMARK    9  A    between atoms: O_17  and  C_18
REMARK   10  A    between atoms: C_20  and  C_21
REMARK   11  A    between atoms: N_22  and  C_23
REMARK   12  A    between atoms: C_23  and  C_24
REMARK                            x       y       z     vdW  Elec       q    Type
REMARK                         _______ _______ _______ _____ _____    ______ ____
ROOT
ATOM      1  C   UNL     1       0.006  14.868  19.949  0.00  0.00    +0.000 A 
ATOM      2  C   UNL     1       1.274  15.225  20.492  0.00  0.00    +0.000 A 
ATOM      3  C   UNL     1       2.049  14.085  20.557  0.00  0.00    +0.000 A 
ATOM      4  C   UNL     1       3.437  13.919  21.050  0.00  0.00    +0.000 C 
ATOM      5  N   UNL     1       1.302  13.049  20.057  0.00  0.00    +0.000 N 
ATOM      6  N   UNL     1       1.715  11.782  19.900  0.00  0.00    +0.000 NA
ATOM      7  C   UNL     1       0.843  10.912  19.477  0.00  0.00    +0.000 A 
ATOM      8  N   UNL     1      -0.508  11.248  19.218  0.00  0.00    +0.000 N 
ATOM      9  C   UNL     1      -0.848  12.602  19.082  0.00  0.00    +0.000 A 
ATOM     10  O   UNL     1      -1.832  12.989  18.456  0.00  0.00    +0.000 OA
ATOM     11  C   UNL     1       0.077  13.508  19.675  0.00  0.00    +0.000 A 
ENDROOT
BRANCH   7  12
ATOM     12  C   UNL     1       1.395   9.506  19.240  0.00  0.00    +0.000 A 
ATOM     13  C   UNL     1       2.033   9.193  18.030  0.00  0.00    +0.000 A 
ATOM     14  C   UNL     1       2.589   7.933  17.788  0.00  0.00    +0.000 A 
ATOM     15  C   UNL     1       2.619   6.970  18.787  0.00  0.00    +0.000 A 
ATOM     16  C   UNL     1       2.057   7.272  20.023  0.00  0.00    +0.000 A 
ATOM     17  C   UNL     1       1.439   8.526  20.269  0.00  0.00    +0.000 A 
ATOM     18  C   UNL     1       0.911   8.751  21.665  0.00  0.00    +0.000 C 
BRANCH  15  19
ATOM     19  O   UNL     1       3.241   5.806  18.437  0.00  0.00    +0.000 OA
ATOM     20  C   UNL     1       4.141   5.245  19.384  0.00  0.00    +0.000 C 
ENDBRANCH  15  19
ENDBRANCH   7  12
BRANCH   8  21
ATOM     21  C   UNL     1      -1.539  10.283  18.782  0.00  0.00    +0.000 C 
ATOM     22  C   UNL     1      -1.627   9.909  17.300  0.00  0.00    +0.000 C 
ENDBRANCH   8  21
BRANCH   1  23
ATOM     23  C   UNL     1      -1.180  15.785  19.722  0.00  0.00    +0.000 C 
BRANCH  23  25
ATOM     24  C   UNL     1      -1.837  16.620  22.069  0.00  0.00    +0.000 C 
ATOM     25  C   UNL     1      -2.182  15.713  20.898  0.00  0.00    +0.000 C 
ENDBRANCH  23  25
BRANCH  23  26
ATOM     26  C   UNL     1      -0.743  17.217  19.344  0.00  0.00    +0.000 C 
ATOM     27  C   UNL     1      -0.703  17.515  17.852  0.00  0.00    +0.000 C 
ENDBRANCH  23  26
ENDBRANCH   1  23
TORSDOF 6
ENDMDL
MODEL 4
REMARK VINA RESULT:      -5.4      3.126      4.434
REMARK  Name = 
REMARK  12 active torsions:
REMARK  status: ('A' for Active; 'I' for Inactive)
REMARK    1  A    between atoms: C_1  and  C_2
REMARK    2  A    between atoms: C_2  and  C_3
REMARK    3  A    between atoms: C_3  and  C_4
REMARK    4  A    between atoms: C_3  and  C_6
REMARK    5  A    between atoms: C_4  and  C_5
REMARK    6  A    between atoms: C_8  and  C_9
REMARK    7  A    between atoms: C_12  and  C_13
REMARK    8  A    between atoms: C_16  and  O_17
REMARK    9  A    between atoms: O_17  and  C_18
REMARK   10  A    between atoms: C_20  and  C_21
REMARK   11  A    between atoms: N_22  and  C_23
REMARK   12  A    between atoms: C_23  and  C_24
REMARK                            x       y       z     vdW  Elec       q    Type
REMARK                         _______ _______ _______ _____ _____    ______ ____
ROOT
ATOM      1  C   UNL     1      -3.918  13.144  20.240  0.00  0.00    +0.000 A 
ATOM      2  C   UNL     1      -4.768  12.517  19.282  0.00  0.00    +0.000 A 
ATOM      3  C   UNL     1      -4.049  11.516  18.662  0.00  0.00    +0.000 A 
ATOM      4  C   UNL     1      -4.472  10.580  17.592  0.00  0.00    +0.000 C 
ATOM      5  N   UNL     1      -2.798  11.499  19.221  0.00  0.00    +0.000 N 
ATOM      6  N   UNL     1      -1.814  10.634  18.929  0.00  0.00    +0.000 NA
ATOM      7  C   UNL     1      -0.661  10.814  19.508  0.00  0.00    +0.000 A 
ATOM      8  N   UNL     1      -0.409  11.892  20.390  0.00  0.00    +0.000 N 
ATOM      9  C   UNL     1      -1.502  12.591  20.925  0.00  0.00    +0.000 A 
ATOM     10  O   UNL     1      -1.448  13.219  21.979  0.00  0.00    +0.000 OA
ATOM     11  C   UNL     1      -2.709  12.462  20.181  0.00  0.00    +0.000 A 
ENDROOT
BRANCH   7  12
ATOM     12  C   UNL     1       0.392   9.749  19.198  0.00  0.00    +0.000 A 
ATOM     13  C   UNL     1       1.107   9.795  17.991  0.00  0.00    +0.000 A 
ATOM     14  C   UNL     1       2.107   8.867  17.685  0.00  0.00    +0.000 A 
ATOM     15  C   UNL     1       2.501   7.919  18.619  0.00  0.00    +0.000 A 
ATOM     16  C   UNL     1       1.860   7.891  19.853  0.00  0.00    +0.000 A 
ATOM     17  C   UNL     1       0.806   8.789  20.160  0.00  0.00    +0.000 A 
ATOM     18  C   UNL     1       0.224   8.691  21.550  0.00  0.00    +0.000 C 
BRANCH  15  19
ATOM     19  O   UNL     1       3.525   7.112  18.213  0.00  0.00    +0.000 OA
ATOM     20  C   UNL     1       3.201   5.761  17.913  0.00  0.00    +0.000 C 
ENDBRANCH  15  19
ENDBRANCH   7  12
BRANCH   8  21
ATOM     21  C   UNL     1       0.895  12.159  21.031  0.00  0.00    +0.000 C 
ATOM     22  C   UNL     1       1.951  12.958  20.264  0.00  0.00    +0.000 C 
ENDBRANCH   8  21
BRANCH   1  23
ATOM     23  C   UNL     1      -4.264  14.317  21.137  0.00  0.00    +0.000 C 
BRANCH  23  25
ATOM     24  C   UNL     1      -6.576  15.418  20.851  0.00  0.00    +0.000 C 
ATOM     25  C   UNL     1      -5.127  15.361  20.391  0.00  0.00    +0.000 C 
ENDBRANCH  23  25
BRANCH  23  26
ATOM     26  C   UNL     1      -4.846  13.860  22.493  0.00  0.00    +0.000 C 
ATOM     27  C   UNL     1      -4.257  14.544  23.719  0.00  0.00    +0.000 C 
ENDBRANCH  23  26
ENDBRANCH   1  23
TORSDOF 6
ENDMDL
MODEL 5
REMARK VINA RESULT:      -5.4      3.144      6.516
REMARK  Name = 
REMARK  12 active torsions:
REMARK  status: ('A' for Active; 'I' for Inactive)
REMARK    1  A    between atoms: C_1  and  C_2
REMARK    2  A    between atoms: C_2  and  C_3
REMARK    3  A    between atoms: C_3  and  C_4
REMARK    4  A    between atoms: C_3  and  C_6
REMARK    5  A    between atoms: C_4  and  C_5
REMARK    6  A    between atoms: C_8  and  C_9
REMARK    7  A    between atoms: C_12  and  C_13
REMARK    8  A    between atoms: C_16  and  O_17
REMARK    9  A    between atoms: O_17  and  C_18
REMARK   10  A    between atoms: C_20  and  C_21
REMARK   11  A    between atoms: N_22  and  C_23
REMARK   12  A    between atoms: C_23  and  C_24
REMARK                            x       y       z     vdW  Elec       q    Type
REMARK                         _______ _______ _______ _____ _____    ______ ____
ROOT
ATOM      1  C   UNL     1      -0.476  10.604  19.301  0.00  0.00    +0.000 A 
ATOM      2  C   UNL     1      -1.354  10.377  18.200  0.00  0.00    +0.000 A 
ATOM      3  C   UNL     1      -2.464  11.180  18.366  0.00  0.00    +0.000 A 
ATOM      4  C   UNL     1      -3.665  11.311  17.505  0.00  0.00    +0.000 C 
ATOM      5  N   UNL     1      -2.286  11.899  19.519  0.00  0.00    +0.000 N 
ATOM      6  N   UNL     1      -3.120  12.831  20.004  0.00  0.00    +0.000 NA
ATOM      7  C   UNL     1      -2.825  13.363  21.156  0.00  0.00    +0.000 A 
ATOM      8  N   UNL     1      -1.696  12.968  21.913  0.00  0.00    +0.000 N 
ATOM      9  C   UNL     1      -0.681  12.240  21.274  0.00  0.00    +0.000 A 
ATOM     10  O   UNL     1       0.482  12.219  21.669  0.00  0.00    +0.000 OA
ATOM     11  C   UNL     1      -1.090  11.573  20.084  0.00  0.00    +0.000 A 
ENDROOT
BRANCH   7  12
ATOM     12  C   UNL     1      -3.768  14.476  21.615  0.00  0.00    +0.000 A 
ATOM     13  C   UNL     1      -3.672  15.759  21.051  0.00  0.00    +0.000 A 
ATOM     14  C   UNL     1      -4.540  16.794  21.410  0.00  0.00    +0.000 A 
ATOM     15  C   UNL     1      -5.603  16.559  22.271  0.00  0.00    +0.000 A 
ATOM     16  C   UNL     1      -5.768  15.280  22.794  0.00  0.00    +0.000 A 
ATOM     17  C   UNL     1      -4.865  14.231  22.484  0.00  0.00    +0.000 A 
ATOM     18  C   UNL     1      -5.181  12.877  23.074  0.00  0.00    +0.000 C 
BRANCH  15  19
ATOM     19  O   UNL     1      -6.405  17.641  22.494  0.00  0.00    +0.000 OA
ATOM     20  C   UNL     1      -6.194  18.363  23.700  0.00  0.00    +0.000 C 
ENDBRANCH  15  19
ENDBRANCH   7  12
BRANCH   8  21
ATOM     21  C   UNL     1      -1.351  13.512  23.243  0.00  0.00    +0.000 C 
ATOM     22  C   UNL     1      -0.750  14.916  23.340  0.00  0.00    +0.000 C 
ENDBRANCH   8  21
BRANCH   1  23
ATOM     23  C   UNL     1       0.852   9.921  19.564  0.00  0.00    +0.000 C 
BRANCH  23  25
ATOM     24  C   UNL     1       1.379   8.928  21.883  0.00  0.00    +0.000 C 
ATOM     25  C   UNL     1       0.691   8.733  20.540  0.00  0.00    +0.000 C 
ENDBRANCH  23  25
BRANCH  23  26
ATOM     26  C   UNL     1       1.596   9.575  18.256  0.00  0.00    +0.000 C 
ATOM     27  C   UNL     1       2.166   8.166  18.183  0.00  0.00    +0.000 C 
ENDBRANCH  23  26
ENDBRANCH   1  23
TORSDOF 6
ENDMDL
MODEL 6
REMARK VINA RESULT:      -5.3      3.273      6.840
REMARK  Name = 
REMARK  12 active torsions:
REMARK  status: ('A' for Active; 'I' for Inactive)
REMARK    1  A    between atoms: C_1  and  C_2
REMARK    2  A    between atoms: C_2  and  C_3
REMARK    3  A    between atoms: C_3  and  C_4
REMARK    4  A    between atoms: C_3  and  C_6
REMARK    5  A    between atoms: C_4  and  C_5
REMARK    6  A    between atoms: C_8  and  C_9
REMARK    7  A    between atoms: C_12  and  C_13
REMARK    8  A    between atoms: C_16  and  O_17
REMARK    9  A    between atoms: O_17  and  C_18
REMARK   10  A    between atoms: C_20  and  C_21
REMARK   11  A    between atoms: N_22  and  C_23
REMARK   12  A    between atoms: C_23  and  C_24
REMARK                            x       y       z     vdW  Elec       q    Type
REMARK                         _______ _______ _______ _____ _____    ______ ____
ROOT
ATOM      1  C   UNL     1      -1.684  14.943  24.519  0.00  0.00    +0.000 A 
ATOM      2  C   UNL     1      -2.876  14.355  25.034  0.00  0.00    +0.000 A 
ATOM      3  C   UNL     1      -3.353  13.462  24.096  0.00  0.00    +0.000 A 
ATOM      4  C   UNL     1      -4.562  12.604  24.145  0.00  0.00    +0.000 C 
ATOM      5  N   UNL     1      -2.485  13.474  23.035  0.00  0.00    +0.000 N 
ATOM      6  N   UNL     1      -2.567  12.704  21.939  0.00  0.00    +0.000 NA
ATOM      7  C   UNL     1      -1.692  12.904  20.996  0.00  0.00    +0.000 A 
ATOM      8  N   UNL     1      -0.699  13.910  21.074  0.00  0.00    +0.000 N 
ATOM      9  C   UNL     1      -0.424  14.485  22.324  0.00  0.00    +0.000 A 
ATOM     10  O   UNL     1       0.649  15.016  22.599  0.00  0.00    +0.000 OA
ATOM     11  C   UNL     1      -1.469  14.349  23.282  0.00  0.00    +0.000 A 
ENDROOT
BRANCH   7  12
ATOM     12  C   UNL     1      -1.787  11.942  19.811  0.00  0.00    +0.000 A 
ATOM     13  C   UNL     1      -2.742  12.156  18.804  0.00  0.00    +0.000 A 
ATOM     14  C   UNL     1      -2.836  11.325  17.683  0.00  0.00    +0.000 A 
ATOM     15  C   UNL     1      -1.913  10.310  17.474  0.00  0.00    +0.000 A 
ATOM     16  C   UNL     1      -0.911  10.116  18.420  0.00  0.00    +0.000 A 
ATOM     17  C   UNL     1      -0.832  10.912  19.591  0.00  0.00    +0.000 A 
ATOM     18  C   UNL     1       0.330  10.636  20.514  0.00  0.00    +0.000 C 
BRANCH  15  19
ATOM     19  O   UNL     1      -2.086   9.612  16.314  0.00  0.00    +0.000 OA
ATOM     20  C   UNL     1      -2.920  10.202  15.325  0.00  0.00    +0.000 C 
ENDBRANCH  15  19
ENDBRANCH   7  12
BRANCH   8  21
ATOM     21  C   UNL     1       0.282  14.199  20.008  0.00  0.00    +0.000 C 
ATOM     22  C   UNL     1      -0.105  15.160  18.882  0.00  0.00    +0.000 C 
ENDBRANCH   8  21
BRANCH   1  23
ATOM     23  C   UNL     1      -0.829  16.004  25.184  0.00  0.00    +0.000 C 
BRANCH  23  25
ATOM     24  C   UNL     1      -2.405  18.040  25.286  0.00  0.00    +0.000 C 
ATOM     25  C   UNL     1      -1.170  17.416  24.655  0.00  0.00    +0.000 C 
ENDBRANCH  23  25
BRANCH  23  26
ATOM     26  C   UNL     1      -0.843  15.880  26.724  0.00  0.00    +0.000 C 
ATOM     27  C   UNL     1       0.322  16.546  27.442  0.00  0.00    +0.000 C 
ENDBRANCH  23  26
ENDBRANCH   1  23
TORSDOF 6
ENDMDL
MODEL 7
REMARK VINA RESULT:      -5.3      5.597      8.859
REMARK  Name = 
REMARK  12 active torsions:
REMARK  status: ('A' for Active; 'I' for Inactive)
REMARK    1  A    between atoms: C_1  and  C_2
REMARK    2  A    between atoms: C_2  and  C_3
REMARK    3  A    between atoms: C_3  and  C_4
REMARK    4  A    between atoms: C_3  and  C_6
REMARK    5  A    between atoms: C_4  and  C_5
REMARK    6  A    between atoms: C_8  and  C_9
REMARK    7  A    between atoms: C_12  and  C_13
REMARK    8  A    between atoms: C_16  and  O_17
REMARK    9  A    between atoms: O_17  and  C_18
REMARK   10  A    between atoms: C_20  and  C_21
REMARK   11  A    between atoms: N_22  and  C_23
REMARK   12  A    between atoms: C_23  and  C_24
REMARK                            x       y       z     vdW  Elec       q    Type
REMARK                         _______ _______ _______ _____ _____    ______ ____
ROOT
ATOM      1  C   UNL     1       3.689   5.997  18.059  0.00  0.00    +0.000 A 
ATOM      2  C   UNL     1       3.430   5.029  19.073  0.00  0.00    +0.000 A 
ATOM      3  C   UNL     1       2.568   5.591  19.992  0.00  0.00    +0.000 A 
ATOM      4  C   UNL     1       2.002   5.005  21.231  0.00  0.00    +0.000 C 
ATOM      5  N   UNL     1       2.280   6.862  19.565  0.00  0.00    +0.000 N 
ATOM      6  N   UNL     1       1.436   7.721  20.156  0.00  0.00    +0.000 NA
ATOM      7  C   UNL     1       1.341   8.917  19.650  0.00  0.00    +0.000 A 
ATOM      8  N   UNL     1       2.111   9.341  18.541  0.00  0.00    +0.000 N 
ATOM      9  C   UNL     1       2.741   8.367  17.750  0.00  0.00    +0.000 A 
ATOM     10  O   UNL     1       3.053   8.552  16.576  0.00  0.00    +0.000 OA
ATOM     11  C   UNL     1       2.935   7.114  18.397  0.00  0.00    +0.000 A 
ENDROOT
BRANCH   7  12
ATOM     12  C   UNL     1       0.303   9.821  20.317  0.00  0.00    +0.000 A 
ATOM     13  C   UNL     1       0.520  10.305  21.617  0.00  0.00    +0.000 A 
ATOM     14  C   UNL     1      -0.382  11.167  22.248  0.00  0.00    +0.000 A 
ATOM     15  C   UNL     1      -1.485  11.661  21.565  0.00  0.00    +0.000 A 
ATOM     16  C   UNL     1      -1.691  11.256  20.250  0.00  0.00    +0.000 A 
ATOM     17  C   UNL     1      -0.817  10.339  19.611  0.00  0.00    +0.000 A 
ATOM     18  C   UNL     1      -1.121  10.017  18.168  0.00  0.00    +0.000 C 
BRANCH  15  19
ATOM     19  O   UNL     1      -2.252  12.536  22.278  0.00  0.00    +0.000 OA
ATOM     20  C   UNL     1      -1.576  13.382  23.200  0.00  0.00    +0.000 C 
ENDBRANCH  15  19
ENDBRANCH   7  12
BRANCH   8  21
ATOM     21  C   UNL     1       2.067  10.701  17.964  0.00  0.00    +0.000 C 
ATOM     22  C   UNL     1       2.312  11.904  18.879  0.00  0.00    +0.000 C 
ENDBRANCH   8  21
BRANCH   1  23
ATOM     23  C   UNL     1       4.603   5.840  16.860  0.00  0.00    +0.000 C 
BRANCH  23  25
ATOM     24  C   UNL     1       6.849   6.092  18.099  0.00  0.00    +0.000 C 
ATOM     25  C   UNL     1       5.910   6.647  17.039  0.00  0.00    +0.000 C 
ENDBRANCH  23  25
BRANCH  23  26
ATOM     26  C   UNL     1       4.817   4.357  16.483  0.00  0.00    +0.000 C 
ATOM     27  C   UNL     1       5.641   4.116  15.226  0.00  0.00    +0.000 C 
ENDBRANCH  23  26
ENDBRANCH   1  23
TORSDOF 6
ENDMDL
MODEL 8
REMARK VINA RESULT:      -5.3      5.501      7.836
REMARK  Name = 
REMARK  12 active torsions:
REMARK  status: ('A' for Active; 'I' for Inactive)
REMARK    1  A    between atoms: C_1  and  C_2
REMARK    2  A    between atoms: C_2  and  C_3
REMARK    3  A    between atoms: C_3  and  C_4
REMARK    4  A    between atoms: C_3  and  C_6
REMARK    5  A    between atoms: C_4  and  C_5
REMARK    6  A    between atoms: C_8  and  C_9
REMARK    7  A    between atoms: C_12  and  C_13
REMARK    8  A    between atoms: C_16  and  O_17
REMARK    9  A    between atoms: O_17  and  C_18
REMARK   10  A    between atoms: C_20  and  C_21
REMARK   11  A    between atoms: N_22  and  C_23
REMARK   12  A    between atoms: C_23  and  C_24
REMARK                            x       y       z     vdW  Elec       q    Type
REMARK                         _______ _______ _______ _____ _____    ______ ____
ROOT
ATOM      1  C   UNL     1       3.090   5.535  19.259  0.00  0.00    +0.000 A 
ATOM      2  C   UNL     1       3.831   5.698  18.052  0.00  0.00    +0.000 A 
ATOM      3  C   UNL     1       3.567   6.957  17.554  0.00  0.00    +0.000 A 
ATOM      4  C   UNL     1       4.081   7.607  16.324  0.00  0.00    +0.000 C 
ATOM      5  N   UNL     1       2.704   7.573  18.423  0.00  0.00    +0.000 N 
ATOM      6  N   UNL     1       2.246   8.829  18.322  0.00  0.00    +0.000 NA
ATOM      7  C   UNL     1       1.371   9.225  19.203  0.00  0.00    +0.000 A 
ATOM      8  N   UNL     1       0.873   8.375  20.220  0.00  0.00    +0.000 N 
ATOM      9  C   UNL     1       1.572   7.193  20.508  0.00  0.00    +0.000 A 
ATOM     10  O   UNL     1       1.509   6.622  21.594  0.00  0.00    +0.000 OA
ATOM     11  C   UNL     1       2.420   6.735  19.460  0.00  0.00    +0.000 A 
ENDROOT
BRANCH   7  12
ATOM     12  C   UNL     1       0.950  10.690  19.084  0.00  0.00    +0.000 A 
ATOM     13  C   UNL     1       1.850  11.712  19.423  0.00  0.00    +0.000 A 
ATOM     14  C   UNL     1       1.522  13.065  19.290  0.00  0.00    +0.000 A 
ATOM     15  C   UNL     1       0.318  13.447  18.715  0.00  0.00    +0.000 A 
ATOM     16  C   UNL     1      -0.569  12.457  18.303  0.00  0.00    +0.000 A 
ATOM     17  C   UNL     1      -0.276  11.080  18.481  0.00  0.00    +0.000 A 
ATOM     18  C   UNL     1      -1.296  10.103  17.947  0.00  0.00    +0.000 C 
BRANCH  15  19
ATOM     19  O   UNL     1       0.148  14.796  18.593  0.00  0.00    +0.000 OA
ATOM     20  C   UNL     1       1.063  15.627  19.295  0.00  0.00    +0.000 C 
ENDBRANCH  15  19
ENDBRANCH   7  12
BRANCH   8  21
ATOM     21  C   UNL     1      -0.152   8.768  21.209  0.00  0.00    +0.000 C 
ATOM     22  C   UNL     1       0.264   9.621  22.410  0.00  0.00    +0.000 C 
ENDBRANCH   8  21
BRANCH   1  23
ATOM     23  C   UNL     1       3.039   4.301  20.140  0.00  0.00    +0.000 C 
BRANCH  23  25
ATOM     24  C   UNL     1       1.270   2.929  21.414  0.00  0.00    +0.000 C 
ATOM     25  C   UNL     1       1.633   3.659  20.130  0.00  0.00    +0.000 C 
ENDBRANCH  23  25
BRANCH  23  26
ATOM     26  C   UNL     1       4.191   3.319  19.830  0.00  0.00    +0.000 C 
ATOM     27  C   UNL     1       3.807   2.109  18.989  0.00  0.00    +0.000 C 
ENDBRANCH  23  26
ENDBRANCH   1  23
TORSDOF 6
ENDMDL
MODEL 9
REMARK VINA RESULT:      -5.3      2.621      5.781
REMARK  Name = 
REMARK  12 active torsions:
REMARK  status: ('A' for Active; 'I' for Inactive)
REMARK    1  A    between atoms: C_1  and  C_2
REMARK    2  A    between atoms: C_2  and  C_3
REMARK    3  A    between atoms: C_3  and  C_4
REMARK    4  A    between atoms: C_3  and  C_6
REMARK    5  A    between atoms: C_4  and  C_5
REMARK    6  A    between atoms: C_8  and  C_9
REMARK    7  A    between atoms: C_12  and  C_13
REMARK    8  A    between atoms: C_16  and  O_17
REMARK    9  A    between atoms: O_17  and  C_18
REMARK   10  A    between atoms: C_20  and  C_21
REMARK   11  A    between atoms: N_22  and  C_23
REMARK   12  A    between atoms: C_23  and  C_24
REMARK                            x       y       z     vdW  Elec       q    Type
REMARK                         _______ _______ _______ _____ _____    ______ ____
ROOT
ATOM      1  C   UNL     1      -3.627  11.396  17.697  0.00  0.00    +0.000 A 
ATOM      2  C   UNL     1      -5.020  11.106  17.795  0.00  0.00    +0.000 A 
ATOM      3  C   UNL     1      -5.501  11.702  18.942  0.00  0.00    +0.000 A 
ATOM      4  C   UNL     1      -6.876  11.694  19.499  0.00  0.00    +0.000 C 
ATOM      5  N   UNL     1      -4.456  12.358  19.538  0.00  0.00    +0.000 N 
ATOM      6  N   UNL     1      -4.523  13.105  20.650  0.00  0.00    +0.000 NA
ATOM      7  C   UNL     1      -3.410  13.595  21.115  0.00  0.00    +0.000 A 
ATOM      8  N   UNL     1      -2.153  13.340  20.517  0.00  0.00    +0.000 N 
ATOM      9  C   UNL     1      -2.124  12.835  19.208  0.00  0.00    +0.000 A 
ATOM     10  O   UNL     1      -1.165  12.977  18.453  0.00  0.00    +0.000 OA
ATOM     11  C   UNL     1      -3.326  12.195  18.793  0.00  0.00    +0.000 A 
ENDROOT
BRANCH   7  12
ATOM     12  C   UNL     1      -3.563  14.504  22.336  0.00  0.00    +0.000 A 
ATOM     13  C   UNL     1      -3.837  15.871  22.167  0.00  0.00    +0.000 A 
ATOM     14  C   UNL     1      -4.027  16.729  23.255  0.00  0.00    +0.000 A 
ATOM     15  C   UNL     1      -4.052  16.233  24.551  0.00  0.00    +0.000 A 
ATOM     16  C   UNL     1      -3.853  14.871  24.748  0.00  0.00    +0.000 A 
ATOM     17  C   UNL     1      -3.604  13.993  23.661  0.00  0.00    +0.000 A 
ATOM     18  C   UNL     1      -3.455  12.530  24.001  0.00  0.00    +0.000 C 
BRANCH  15  19
ATOM     19  O   UNL     1      -4.302  17.169  25.514  0.00  0.00    +0.000 OA
ATOM     20  C   UNL     1      -5.308  18.133  25.230  0.00  0.00    +0.000 C 
ENDBRANCH  15  19
ENDBRANCH   7  12
BRANCH   8  21
ATOM     21  C   UNL     1      -0.863  13.838  21.038  0.00  0.00    +0.000 C 
ATOM     22  C   UNL     1      -0.010  12.917  21.913  0.00  0.00    +0.000 C 
ENDBRANCH   8  21
BRANCH   1  23
ATOM     23  C   UNL     1      -2.671  10.924  16.619  0.00  0.00    +0.000 C 
BRANCH  23  25
ATOM     24  C   UNL     1      -0.660   9.764  17.736  0.00  0.00    +0.000 C 
ATOM     25  C   UNL     1      -1.987   9.595  17.014  0.00  0.00    +0.000 C 
ENDBRANCH  23  25
BRANCH  23  26
ATOM     26  C   UNL     1      -3.330  10.911  15.222  0.00  0.00    +0.000 C 
ATOM     27  C   UNL     1      -2.858   9.805  14.289  0.00  0.00    +0.000 C 
ENDBRANCH  23  26
ENDBRANCH   1  23
TORSDOF 6
ENDMDL
