MODEL 1
REMARK VINA RESULT:      -7.2      0.000      0.000
REMARK  Name = 
REMARK  7 active torsions:
REMARK  status: ('A' for Active; 'I' for Inactive)
REMARK    1  A    between atoms: C_1  and  O_2
REMARK    2  A    between atoms: O_2  and  C_3
REMARK    3  A    between atoms: C_6  and  C_7
REMARK    4  A    between atoms: N_8  and  N_9
REMARK    5  A    between atoms: C_11  and  C_12
REMARK    6  A    between atoms: C_19  and  S_20
REMARK    7  A    between atoms: C_22  and  O_23
REMARK                            x       y       z     vdW  Elec       q    Type
REMARK                         _______ _______ _______ _____ _____    ______ ____
ROOT
ATOM      1  N   UNL     1       2.688   6.096  19.532  0.00  0.00    +0.000 N 
ATOM      2  C   UNL     1       3.487   6.394  18.452  0.00  0.00    +0.000 A 
ATOM      3  C   UNL     1       4.125   5.218  18.114  0.00  0.00    +0.000 A 
ATOM      4  N   UNL     1       3.757   4.203  18.962  0.00  0.00    +0.000 NA
ATOM      5  C   UNL     1       2.914   4.759  19.801  0.00  0.00    +0.000 A 
ENDROOT
BRANCH   3   6
ATOM      6  C   UNL     1       5.112   5.051  17.062  0.00  0.00    +0.000 A 
ATOM      7  C   UNL     1       4.893   4.095  16.062  0.00  0.00    +0.000 A 
ATOM      8  C   UNL     1       5.835   3.889  15.052  0.00  0.00    +0.000 A 
ATOM      9  C   UNL     1       7.005   4.647  15.029  0.00  0.00    +0.000 A 
ATOM     10  C   UNL     1       7.227   5.614  16.007  0.00  0.00    +0.000 A 
ATOM     11  C   UNL     1       6.285   5.816  17.020  0.00  0.00    +0.000 A 
ENDBRANCH   3   6
BRANCH   1  13
ATOM     12  C   UNL     1       1.736   8.139  19.882  0.00  0.00    +0.000 C 
ATOM     13  N   UNL     1       1.893   6.918  20.274  0.00  0.00    +0.000 NA
BRANCH  12  17
ATOM     14  C   UNL     1      -0.659  10.800  22.234  0.00  0.00    +0.000 A 
ATOM     15  C   UNL     1      -0.549  10.969  20.843  0.00  0.00    +0.000 A 
ATOM     16  C   UNL     1       0.232  10.109  20.067  0.00  0.00    +0.000 A 
ATOM     17  C   UNL     1       0.911   9.064  20.687  0.00  0.00    +0.000 A 
ATOM     18  C   UNL     1       0.815   8.883  22.072  0.00  0.00    +0.000 A 
ATOM     19  C   UNL     1       0.034   9.747  22.842  0.00  0.00    +0.000 A 
BRANCH  14  21
ATOM     20  C   UNL     1      -1.056  13.092  22.790  0.00  0.00    +0.000 C 
ATOM     21  O   UNL     1      -1.470  11.733  22.822  0.00  0.00    +0.000 OA
ENDBRANCH  14  21
BRANCH  19  22
ATOM     22  O   UNL     1      -0.023   9.526  24.190  0.00  0.00    +0.000 OA
ATOM     23  H   UNL     1      -0.692  10.110  24.584  0.00  0.00    +0.000 HD
ENDBRANCH  19  22
ENDBRANCH  12  17
ENDBRANCH   1  13
BRANCH   5  24
ATOM     24  S   UNL     1       2.140   3.917  21.100  0.00  0.00    +0.000 S 
ATOM     25  H   UNL     1       2.519   4.764  22.066  0.00  0.00    +0.000 HD
ENDBRANCH   5  24
TORSDOF 6
ENDMDL
MODEL 2
REMARK VINA RESULT:      -7.2      1.916      3.175
REMARK  Name = 
REMARK  7 active torsions:
REMARK  status: ('A' for Active; 'I' for Inactive)
REMARK    1  A    between atoms: C_1  and  O_2
REMARK    2  A    between atoms: O_2  and  C_3
REMARK    3  A    between atoms: C_6  and  C_7
REMARK    4  A    between atoms: N_8  and  N_9
REMARK    5  A    between atoms: C_11  and  C_12
REMARK    6  A    between atoms: C_19  and  S_20
REMARK    7  A    between atoms: C_22  and  O_23
REMARK                            x       y       z     vdW  Elec       q    Type
REMARK                         _______ _______ _______ _____ _____    ______ ____
ROOT
ATOM      1  N   UNL     1       4.334   5.588  17.498  0.00  0.00    +0.000 N 
ATOM      2  C   UNL     1       4.807   5.860  16.234  0.00  0.00    +0.000 A 
ATOM      3  C   UNL     1       5.316   4.671  15.753  0.00  0.00    +0.000 A 
ATOM      4  N   UNL     1       5.186   3.673  16.687  0.00  0.00    +0.000 NA
ATOM      5  C   UNL     1       4.613   4.251  17.715  0.00  0.00    +0.000 A 
ENDROOT
BRANCH   3   6
ATOM      6  C   UNL     1       5.973   4.477  14.473  0.00  0.00    +0.000 A 
ATOM      7  C   UNL     1       7.148   5.188  14.191  0.00  0.00    +0.000 A 
ATOM      8  C   UNL     1       7.788   5.046  12.958  0.00  0.00    +0.000 A 
ATOM      9  C   UNL     1       7.264   4.184  11.997  0.00  0.00    +0.000 A 
ATOM     10  C   UNL     1       6.107   3.457  12.271  0.00  0.00    +0.000 A 
ATOM     11  C   UNL     1       5.463   3.603  13.504  0.00  0.00    +0.000 A 
ENDBRANCH   3   6
BRANCH   1  13
ATOM     12  C   UNL     1       2.622   6.939  18.164  0.00  0.00    +0.000 C 
ATOM     13  N   UNL     1       3.783   6.430  18.417  0.00  0.00    +0.000 NA
BRANCH  12  17
ATOM     14  C   UNL     1       0.874   9.705  20.929  0.00  0.00    +0.000 A 
ATOM     15  C   UNL     1       1.307   8.439  21.354  0.00  0.00    +0.000 A 
ATOM     16  C   UNL     1       1.875   7.527  20.461  0.00  0.00    +0.000 A 
ATOM     17  C   UNL     1       2.016   7.886  19.124  0.00  0.00    +0.000 A 
ATOM     18  C   UNL     1       1.587   9.143  18.681  0.00  0.00    +0.000 A 
ATOM     19  C   UNL     1       1.018  10.048  19.580  0.00  0.00    +0.000 A 
BRANCH  14  21
ATOM     20  C   UNL     1      -0.242   9.781  23.042  0.00  0.00    +0.000 C 
ATOM     21  O   UNL     1       0.350  10.459  21.944  0.00  0.00    +0.000 OA
ENDBRANCH  14  21
BRANCH  19  22
ATOM     22  O   UNL     1       0.615  11.261  19.094  0.00  0.00    +0.000 OA
ATOM     23  H   UNL     1      -0.291  11.444  19.394  0.00  0.00    +0.000 HD
ENDBRANCH  19  22
ENDBRANCH  12  17
ENDBRANCH   1  13
BRANCH   5  24
ATOM     24  S   UNL     1       4.218   3.438  19.191  0.00  0.00    +0.000 S 
ATOM     25  H   UNL     1       4.185   2.204  18.671  0.00  0.00    +0.000 HD
ENDBRANCH   5  24
TORSDOF 6
ENDMDL
MODEL 3
REMARK VINA RESULT:      -7.2      1.951      3.058
REMARK  Name = 
REMARK  7 active torsions:
REMARK  status: ('A' for Active; 'I' for Inactive)
REMARK    1  A    between atoms: C_1  and  O_2
REMARK    2  A    between atoms: O_2  and  C_3
REMARK    3  A    between atoms: C_6  and  C_7
REMARK    4  A    between atoms: N_8  and  N_9
REMARK    5  A    between atoms: C_11  and  C_12
REMARK    6  A    between atoms: C_19  and  S_20
REMARK    7  A    between atoms: C_22  and  O_23
REMARK                            x       y       z     vdW  Elec       q    Type
REMARK                         _______ _______ _______ _____ _____    ______ ____
ROOT
ATOM      1  N   UNL     1       4.378   5.642  17.425  0.00  0.00    +0.000 N 
ATOM      2  C   UNL     1       4.881   5.928  16.177  0.00  0.00    +0.000 A 
ATOM      3  C   UNL     1       5.364   4.736  15.677  0.00  0.00    +0.000 A 
ATOM      4  N   UNL     1       5.188   3.721  16.584  0.00  0.00    +0.000 NA
ATOM      5  C   UNL     1       4.613   4.293  17.616  0.00  0.00    +0.000 A 
ENDROOT
BRANCH   3   6
ATOM      6  C   UNL     1       6.038   4.552  14.405  0.00  0.00    +0.000 A 
ATOM      7  C   UNL     1       5.507   3.651  13.472  0.00  0.00    +0.000 A 
ATOM      8  C   UNL     1       6.147   3.429  12.250  0.00  0.00    +0.000 A 
ATOM      9  C   UNL     1       7.321   4.115  11.946  0.00  0.00    +0.000 A 
ATOM     10  C   UNL     1       7.850   5.027  12.857  0.00  0.00    +0.000 A 
ATOM     11  C   UNL     1       7.212   5.246  14.081  0.00  0.00    +0.000 A 
ENDBRANCH   3   6
BRANCH   1  13
ATOM     12  C   UNL     1       2.628   6.902  18.168  0.00  0.00    +0.000 C 
ATOM     13  N   UNL     1       3.834   6.478  18.354  0.00  0.00    +0.000 NA
BRANCH  12  17
ATOM     14  C   UNL     1       0.893   9.647  20.962  0.00  0.00    +0.000 A 
ATOM     15  C   UNL     1       1.294   8.363  21.368  0.00  0.00    +0.000 A 
ATOM     16  C   UNL     1       1.858   7.458  20.464  0.00  0.00    +0.000 A 
ATOM     17  C   UNL     1       2.026   7.841  19.137  0.00  0.00    +0.000 A 
ATOM     18  C   UNL     1       1.629   9.116  18.714  0.00  0.00    +0.000 A 
ATOM     19  C   UNL     1       1.065  10.014  19.622  0.00  0.00    +0.000 A 
BRANCH  14  21
ATOM     20  C   UNL     1      -0.118   9.703  23.128  0.00  0.00    +0.000 C 
ATOM     21  O   UNL     1       0.369  10.390  21.984  0.00  0.00    +0.000 OA
ENDBRANCH  14  21
BRANCH  19  22
ATOM     22  O   UNL     1       0.694  11.245  19.156  0.00  0.00    +0.000 OA
ATOM     23  H   UNL     1      -0.247  11.392  19.347  0.00  0.00    +0.000 HD
ENDBRANCH  19  22
ENDBRANCH  12  17
ENDBRANCH   1  13
BRANCH   5  24
ATOM     24  S   UNL     1       4.168   3.457  19.066  0.00  0.00    +0.000 S 
ATOM     25  H   UNL     1       3.020   2.954  18.595  0.00  0.00    +0.000 HD
ENDBRANCH   5  24
TORSDOF 6
ENDMDL
MODEL 4
REMARK VINA RESULT:      -7.2      0.531      1.133
REMARK  Name = 
REMARK  7 active torsions:
REMARK  status: ('A' for Active; 'I' for Inactive)
REMARK    1  A    between atoms: C_1  and  O_2
REMARK    2  A    between atoms: O_2  and  C_3
REMARK    3  A    between atoms: C_6  and  C_7
REMARK    4  A    between atoms: N_8  and  N_9
REMARK    5  A    between atoms: C_11  and  C_12
REMARK    6  A    between atoms: C_19  and  S_20
REMARK    7  A    between atoms: C_22  and  O_23
REMARK                            x       y       z     vdW  Elec       q    Type
REMARK                         _______ _______ _______ _____ _____    ______ ____
ROOT
ATOM      1  N   UNL     1       2.529   6.174  19.400  0.00  0.00    +0.000 N 
ATOM      2  C   UNL     1       3.489   6.461  18.456  0.00  0.00    +0.000 A 
ATOM      3  C   UNL     1       3.907   5.246  17.954  0.00  0.00    +0.000 A 
ATOM      4  N   UNL     1       3.246   4.211  18.570  0.00  0.00    +0.000 NA
ATOM      5  C   UNL     1       2.446   4.794  19.432  0.00  0.00    +0.000 A 
ENDROOT
BRANCH   3   6
ATOM      6  C   UNL     1       4.951   5.041  16.966  0.00  0.00    +0.000 A 
ATOM      7  C   UNL     1       6.175   5.707  17.114  0.00  0.00    +0.000 A 
ATOM      8  C   UNL     1       7.189   5.555  16.166  0.00  0.00    +0.000 A 
ATOM      9  C   UNL     1       6.991   4.726  15.064  0.00  0.00    +0.000 A 
ATOM     10  C   UNL     1       5.785   4.043  14.914  0.00  0.00    +0.000 A 
ATOM     11  C   UNL     1       4.769   4.200  15.860  0.00  0.00    +0.000 A 
ENDBRANCH   3   6
BRANCH   1  13
ATOM     12  C   UNL     1       1.722   8.254  19.869  0.00  0.00    +0.000 C 
ATOM     13  N   UNL     1       1.841   7.016  20.220  0.00  0.00    +0.000 NA
BRANCH  12  17
ATOM     14  C   UNL     1      -0.338  10.976  22.458  0.00  0.00    +0.000 A 
ATOM     15  C   UNL     1      -0.156  11.274  21.097  0.00  0.00    +0.000 A 
ATOM     16  C   UNL     1       0.518  10.396  20.244  0.00  0.00    +0.000 A 
ATOM     17  C   UNL     1       1.014   9.201  20.756  0.00  0.00    +0.000 A 
ATOM     18  C   UNL     1       0.844   8.888  22.110  0.00  0.00    +0.000 A 
ATOM     19  C   UNL     1       0.172   9.772  22.957  0.00  0.00    +0.000 A 
BRANCH  14  21
ATOM     20  C   UNL     1      -2.440  11.961  23.032  0.00  0.00    +0.000 C 
ATOM     21  O   UNL     1      -1.023  11.951  23.131  0.00  0.00    +0.000 OA
ENDBRANCH  14  21
BRANCH  19  22
ATOM     22  O   UNL     1       0.035   9.418  24.271  0.00  0.00    +0.000 OA
ATOM     23  H   UNL     1      -0.152   8.466  24.330  0.00  0.00    +0.000 HD
ENDBRANCH  19  22
ENDBRANCH  12  17
ENDBRANCH   1  13
BRANCH   5  24
ATOM     24  S   UNL     1       1.375   3.942  20.492  0.00  0.00    +0.000 S 
ATOM     25  H   UNL     1       0.817   3.175  19.546  0.00  0.00    +0.000 HD
ENDBRANCH   5  24
TORSDOF 6
ENDMDL
MODEL 5
REMARK VINA RESULT:      -7.1      0.982      1.550
REMARK  Name = 
REMARK  7 active torsions:
REMARK  status: ('A' for Active; 'I' for Inactive)
REMARK    1  A    between atoms: C_1  and  O_2
REMARK    2  A    between atoms: O_2  and  C_3
REMARK    3  A    between atoms: C_6  and  C_7
REMARK    4  A    between atoms: N_8  and  N_9
REMARK    5  A    between atoms: C_11  and  C_12
REMARK    6  A    between atoms: C_19  and  S_20
REMARK    7  A    between atoms: C_22  and  O_23
REMARK                            x       y       z     vdW  Elec       q    Type
REMARK                         _______ _______ _______ _____ _____    ______ ____
ROOT
ATOM      1  N   UNL     1       2.519   6.294  19.609  0.00  0.00    +0.000 N 
ATOM      2  C   UNL     1       3.215   6.557  18.451  0.00  0.00    +0.000 A 
ATOM      3  C   UNL     1       3.761   5.355  18.053  0.00  0.00    +0.000 A 
ATOM      4  N   UNL     1       3.437   4.356  18.937  0.00  0.00    +0.000 NA
ATOM      5  C   UNL     1       2.711   4.947  19.856  0.00  0.00    +0.000 A 
ENDROOT
BRANCH   3   6
ATOM      6  C   UNL     1       4.626   5.147  16.905  0.00  0.00    +0.000 A 
ATOM      7  C   UNL     1       5.033   3.846  16.581  0.00  0.00    +0.000 A 
ATOM      8  C   UNL     1       5.888   3.614  15.501  0.00  0.00    +0.000 A 
ATOM      9  C   UNL     1       6.336   4.683  14.728  0.00  0.00    +0.000 A 
ATOM     10  C   UNL     1       5.925   5.980  15.028  0.00  0.00    +0.000 A 
ATOM     11  C   UNL     1       5.073   6.212  16.111  0.00  0.00    +0.000 A 
ENDBRANCH   3   6
BRANCH   1  13
ATOM     12  C   UNL     1       1.495   8.301  19.959  0.00  0.00    +0.000 C 
ATOM     13  N   UNL     1       1.842   7.148  20.427  0.00  0.00    +0.000 NA
BRANCH  12  17
ATOM     14  C   UNL     1      -0.517  11.114  22.487  0.00  0.00    +0.000 A 
ATOM     15  C   UNL     1      -0.517   9.743  22.793  0.00  0.00    +0.000 A 
ATOM     16  C   UNL     1       0.133   8.815  21.973  0.00  0.00    +0.000 A 
ATOM     17  C   UNL     1       0.794   9.264  20.834  0.00  0.00    +0.000 A 
ATOM     18  C   UNL     1       0.802  10.627  20.513  0.00  0.00    +0.000 A 
ATOM     19  C   UNL     1       0.149  11.547  21.335  0.00  0.00    +0.000 A 
BRANCH  14  21
ATOM     20  C   UNL     1      -2.610  11.963  23.273  0.00  0.00    +0.000 C 
ATOM     21  O   UNL     1      -1.199  11.865  23.406  0.00  0.00    +0.000 OA
ENDBRANCH  14  21
BRANCH  19  22
ATOM     22  O   UNL     1       0.187  12.866  20.974  0.00  0.00    +0.000 OA
ATOM     23  H   UNL     1      -0.565  13.331  21.374  0.00  0.00    +0.000 HD
ENDBRANCH  19  22
ENDBRANCH  12  17
ENDBRANCH   1  13
BRANCH   5  24
ATOM     24  S   UNL     1       2.038   4.138  21.230  0.00  0.00    +0.000 S 
ATOM     25  H   UNL     1       2.824   4.725  22.142  0.00  0.00    +0.000 HD
ENDBRANCH   5  24
TORSDOF 6
ENDMDL
MODEL 6
REMARK VINA RESULT:      -7.0      2.828      4.135
REMARK  Name = 
REMARK  7 active torsions:
REMARK  status: ('A' for Active; 'I' for Inactive)
REMARK    1  A    between atoms: C_1  and  O_2
REMARK    2  A    between atoms: O_2  and  C_3
REMARK    3  A    between atoms: C_6  and  C_7
REMARK    4  A    between atoms: N_8  and  N_9
REMARK    5  A    between atoms: C_11  and  C_12
REMARK    6  A    between atoms: C_19  and  S_20
REMARK    7  A    between atoms: C_22  and  O_23
REMARK                            x       y       z     vdW  Elec       q    Type
REMARK                         _______ _______ _______ _____ _____    ______ ____
ROOT
ATOM      1  N   UNL     1       5.443   6.416  16.901  0.00  0.00    +0.000 N 
ATOM      2  C   UNL     1       5.112   5.786  15.722  0.00  0.00    +0.000 A 
ATOM      3  C   UNL     1       6.299   5.332  15.186  0.00  0.00    +0.000 A 
ATOM      4  N   UNL     1       7.359   5.674  15.989  0.00  0.00    +0.000 NA
ATOM      5  C   UNL     1       6.820   6.329  16.991  0.00  0.00    +0.000 A 
ENDROOT
BRANCH   3   6
ATOM      6  C   UNL     1       6.458   4.648  13.916  0.00  0.00    +0.000 A 
ATOM      7  C   UNL     1       7.536   4.984  13.086  0.00  0.00    +0.000 A 
ATOM      8  C   UNL     1       7.701   4.366  11.844  0.00  0.00    +0.000 A 
ATOM      9  C   UNL     1       6.792   3.396  11.425  0.00  0.00    +0.000 A 
ATOM     10  C   UNL     1       5.726   3.039  12.247  0.00  0.00    +0.000 A 
ATOM     11  C   UNL     1       5.558   3.662  13.488  0.00  0.00    +0.000 A 
ENDBRANCH   3   6
BRANCH   1  13
ATOM     12  C   UNL     1       3.385   7.184  17.512  0.00  0.00    +0.000 C 
ATOM     13  N   UNL     1       4.643   7.079  17.783  0.00  0.00    +0.000 NA
BRANCH  12  17
ATOM     14  C   UNL     1       0.826   9.371  20.162  0.00  0.00    +0.000 A 
ATOM     15  C   UNL     1       1.435   8.174  20.574  0.00  0.00    +0.000 A 
ATOM     16  C   UNL     1       2.268   7.450  19.717  0.00  0.00    +0.000 A 
ATOM     17  C   UNL     1       2.499   7.930  18.431  0.00  0.00    +0.000 A 
ATOM     18  C   UNL     1       1.898   9.120  18.002  0.00  0.00    +0.000 A 
ATOM     19  C   UNL     1       1.065   9.837  18.864  0.00  0.00    +0.000 A 
BRANCH  14  21
ATOM     20  C   UNL     1      -0.276   9.150  22.273  0.00  0.00    +0.000 C 
ATOM     21  O   UNL     1       0.051   9.938  21.137  0.00  0.00    +0.000 OA
ENDBRANCH  14  21
BRANCH  19  22
ATOM     22  O   UNL     1       0.503  10.991  18.394  0.00  0.00    +0.000 OA
ATOM     23  H   UNL     1      -0.211  11.268  18.991  0.00  0.00    +0.000 HD
ENDBRANCH  19  22
ENDBRANCH  12  17
ENDBRANCH   1  13
BRANCH   5  24
ATOM     24  S   UNL     1       7.720   7.001  18.308  0.00  0.00    +0.000 S 
ATOM     25  H   UNL     1       6.701   7.687  18.842  0.00  0.00    +0.000 HD
ENDBRANCH   5  24
TORSDOF 6
ENDMDL
MODEL 7
REMARK VINA RESULT:      -6.9      3.955      8.937
REMARK  Name = 
REMARK  7 active torsions:
REMARK  status: ('A' for Active; 'I' for Inactive)
REMARK    1  A    between atoms: C_1  and  O_2
REMARK    2  A    between atoms: O_2  and  C_3
REMARK    3  A    between atoms: C_6  and  C_7
REMARK    4  A    between atoms: N_8  and  N_9
REMARK    5  A    between atoms: C_11  and  C_12
REMARK    6  A    between atoms: C_19  and  S_20
REMARK    7  A    between atoms: C_22  and  O_23
REMARK                            x       y       z     vdW  Elec       q    Type
REMARK                         _______ _______ _______ _____ _____    ______ ____
ROOT
ATOM      1  N   UNL     1       2.220   7.183  19.544  0.00  0.00    +0.000 N 
ATOM      2  C   UNL     1       1.729   8.458  19.718  0.00  0.00    +0.000 A 
ATOM      3  C   UNL     1       0.947   8.414  20.853  0.00  0.00    +0.000 A 
ATOM      4  N   UNL     1       0.925   7.146  21.381  0.00  0.00    +0.000 NA
ATOM      5  C   UNL     1       1.678   6.437  20.574  0.00  0.00    +0.000 A 
ENDROOT
BRANCH   3   6
ATOM      6  C   UNL     1       0.177   9.514  21.405  0.00  0.00    +0.000 A 
ATOM      7  C   UNL     1      -0.079  10.639  20.610  0.00  0.00    +0.000 A 
ATOM      8  C   UNL     1      -0.791  11.727  21.119  0.00  0.00    +0.000 A 
ATOM      9  C   UNL     1      -1.264  11.695  22.429  0.00  0.00    +0.000 A 
ATOM     10  C   UNL     1      -1.033  10.575  23.226  0.00  0.00    +0.000 A 
ATOM     11  C   UNL     1      -0.316   9.488  22.717  0.00  0.00    +0.000 A 
ENDBRANCH   3   6
BRANCH   1  13
ATOM     12  C   UNL     1       4.232   6.400  18.810  0.00  0.00    +0.000 C 
ATOM     13  N   UNL     1       3.000   6.684  18.544  0.00  0.00    +0.000 NA
BRANCH  12  17
ATOM     14  C   UNL     1       6.809   4.935  15.718  0.00  0.00    +0.000 A 
ATOM     15  C   UNL     1       5.632   5.634  15.403  0.00  0.00    +0.000 A 
ATOM     16  C   UNL     1       4.782   6.113  16.404  0.00  0.00    +0.000 A 
ATOM     17  C   UNL     1       5.113   5.894  17.738  0.00  0.00    +0.000 A 
ATOM     18  C   UNL     1       6.281   5.197  18.070  0.00  0.00    +0.000 A 
ATOM     19  C   UNL     1       7.125   4.720  17.064  0.00  0.00    +0.000 A 
BRANCH  14  21
ATOM     20  C   UNL     1       6.784   4.223  13.436  0.00  0.00    +0.000 C 
ATOM     21  O   UNL     1       7.513   4.550  14.610  0.00  0.00    +0.000 OA
ENDBRANCH  14  21
BRANCH  19  22
ATOM     22  O   UNL     1       8.252   4.045  17.445  0.00  0.00    +0.000 OA
ATOM     23  H   UNL     1       8.658   3.631  16.665  0.00  0.00    +0.000 HD
ENDBRANCH  19  22
ENDBRANCH  12  17
ENDBRANCH   1  13
BRANCH   5  24
ATOM     24  S   UNL     1       1.991   4.746  20.774  0.00  0.00    +0.000 S 
ATOM     25  H   UNL     1       2.950   4.886  21.698  0.00  0.00    +0.000 HD
ENDBRANCH   5  24
TORSDOF 6
ENDMDL
MODEL 8
REMARK VINA RESULT:      -6.9      2.369      3.526
REMARK  Name = 
REMARK  7 active torsions:
REMARK  status: ('A' for Active; 'I' for Inactive)
REMARK    1  A    between atoms: C_1  and  O_2
REMARK    2  A    between atoms: O_2  and  C_3
REMARK    3  A    between atoms: C_6  and  C_7
REMARK    4  A    between atoms: N_8  and  N_9
REMARK    5  A    between atoms: C_11  and  C_12
REMARK    6  A    between atoms: C_19  and  S_20
REMARK    7  A    between atoms: C_22  and  O_23
REMARK                            x       y       z     vdW  Elec       q    Type
REMARK                         _______ _______ _______ _____ _____    ______ ____
ROOT
ATOM      1  N   UNL     1       4.882   5.853  17.347  0.00  0.00    +0.000 N 
ATOM      2  C   UNL     1       4.785   5.628  15.992  0.00  0.00    +0.000 A 
ATOM      3  C   UNL     1       5.967   5.021  15.621  0.00  0.00    +0.000 A 
ATOM      4  N   UNL     1       6.800   4.875  16.702  0.00  0.00    +0.000 NA
ATOM      5  C   UNL     1       6.134   5.390  17.708  0.00  0.00    +0.000 A 
ENDROOT
BRANCH   3   6
ATOM      6  C   UNL     1       6.346   4.640  14.272  0.00  0.00    +0.000 A 
ATOM      7  C   UNL     1       5.591   3.674  13.594  0.00  0.00    +0.000 A 
ATOM      8  C   UNL     1       5.946   3.264  12.307  0.00  0.00    +0.000 A 
ATOM      9  C   UNL     1       7.057   3.826  11.681  0.00  0.00    +0.000 A 
ATOM     10  C   UNL     1       7.807   4.801  12.336  0.00  0.00    +0.000 A 
ATOM     11  C   UNL     1       7.454   5.207  13.626  0.00  0.00    +0.000 A 
ENDBRANCH   3   6
BRANCH   1  13
ATOM     12  C   UNL     1       3.210   7.363  17.696  0.00  0.00    +0.000 C 
ATOM     13  N   UNL     1       4.006   6.472  18.187  0.00  0.00    +0.000 NA
BRANCH  12  17
ATOM     14  C   UNL     1       0.507   9.464  20.272  0.00  0.00    +0.000 A 
ATOM     15  C   UNL     1       1.224   8.348  20.736  0.00  0.00    +0.000 A 
ATOM     16  C   UNL     1       2.105   7.653  19.904  0.00  0.00    +0.000 A 
ATOM     17  C   UNL     1       2.276   8.079  18.590  0.00  0.00    +0.000 A 
ATOM     18  C   UNL     1       1.567   9.187  18.110  0.00  0.00    +0.000 A 
ATOM     19  C   UNL     1       0.687   9.876  18.947  0.00  0.00    +0.000 A 
BRANCH  14  21
ATOM     20  C   UNL     1      -0.177   9.540  22.562  0.00  0.00    +0.000 C 
ATOM     21  O   UNL     1      -0.301  10.015  21.229  0.00  0.00    +0.000 OA
ENDBRANCH  14  21
BRANCH  19  22
ATOM     22  O   UNL     1       0.019  10.950  18.426  0.00  0.00    +0.000 OA
ATOM     23  H   UNL     1      -0.396  11.451  19.146  0.00  0.00    +0.000 HD
ENDBRANCH  19  22
ENDBRANCH  12  17
ENDBRANCH   1  13
BRANCH   5  24
ATOM     24  S   UNL     1       6.734   5.472  19.330  0.00  0.00    +0.000 S 
ATOM     25  H   UNL     1       6.478   4.195  19.642  0.00  0.00    +0.000 HD
ENDBRANCH   5  24
TORSDOF 6
ENDMDL
MODEL 9
REMARK VINA RESULT:      -6.8      1.980      2.948
REMARK  Name = 
REMARK  7 active torsions:
REMARK  status: ('A' for Active; 'I' for Inactive)
REMARK    1  A    between atoms: C_1  and  O_2
REMARK    2  A    between atoms: O_2  and  C_3
REMARK    3  A    between atoms: C_6  and  C_7
REMARK    4  A    between atoms: N_8  and  N_9
REMARK    5  A    between atoms: C_11  and  C_12
REMARK    6  A    between atoms: C_19  and  S_20
REMARK    7  A    between atoms: C_22  and  O_23
REMARK                            x       y       z     vdW  Elec       q    Type
REMARK                         _______ _______ _______ _____ _____    ______ ____
ROOT
ATOM      1  N   UNL     1       4.501   6.067  17.227  0.00  0.00    +0.000 N 
ATOM      2  C   UNL     1       4.911   6.180  15.918  0.00  0.00    +0.000 A 
ATOM      3  C   UNL     1       5.482   4.967  15.591  0.00  0.00    +0.000 A 
ATOM      4  N   UNL     1       5.451   4.109  16.663  0.00  0.00    +0.000 NA
ATOM      5  C   UNL     1       4.875   4.796  17.622  0.00  0.00    +0.000 A 
ENDROOT
BRANCH   3   6
ATOM      6  C   UNL     1       6.106   4.629  14.325  0.00  0.00    +0.000 A 
ATOM      7  C   UNL     1       7.281   5.289  13.942  0.00  0.00    +0.000 A 
ATOM      8  C   UNL     1       7.890   5.009  12.717  0.00  0.00    +0.000 A 
ATOM      9  C   UNL     1       7.334   4.055  11.866  0.00  0.00    +0.000 A 
ATOM     10  C   UNL     1       6.176   3.378  12.243  0.00  0.00    +0.000 A 
ATOM     11  C   UNL     1       5.564   3.662  13.467  0.00  0.00    +0.000 A 
ENDBRANCH   3   6
BRANCH   1  13
ATOM     12  C   UNL     1       2.658   7.216  17.923  0.00  0.00    +0.000 C 
ATOM     13  N   UNL     1       3.926   6.999  18.039  0.00  0.00    +0.000 NA
BRANCH  12  17
ATOM     14  C   UNL     1       0.780  10.187  20.372  0.00  0.00    +0.000 A 
ATOM     15  C   UNL     1       1.012  10.421  19.006  0.00  0.00    +0.000 A 
ATOM     16  C   UNL     1       1.627   9.461  18.198  0.00  0.00    +0.000 A 
ATOM     17  C   UNL     1       2.014   8.248  18.762  0.00  0.00    +0.000 A 
ATOM     18  C   UNL     1       1.793   7.999  20.121  0.00  0.00    +0.000 A 
ATOM     19  C   UNL     1       1.179   8.964  20.923  0.00  0.00    +0.000 A 
BRANCH  14  21
ATOM     20  C   UNL     1       0.733  12.530  20.844  0.00  0.00    +0.000 C 
ATOM     21  O   UNL     1       0.165  11.238  20.996  0.00  0.00    +0.000 OA
ENDBRANCH  14  21
BRANCH  19  22
ATOM     22  O   UNL     1       0.989   8.669  22.245  0.00  0.00    +0.000 OA
ATOM     23  H   UNL     1       0.305   7.984  22.327  0.00  0.00    +0.000 HD
ENDBRANCH  19  22
ENDBRANCH  12  17
ENDBRANCH   1  13
BRANCH   5  24
ATOM     24  S   UNL     1       4.587   4.184  19.215  0.00  0.00    +0.000 S 
ATOM     25  H   UNL     1       5.326   5.098  19.857  0.00  0.00    +0.000 HD
ENDBRANCH   5  24
TORSDOF 6
ENDMDL
