MODEL 1
REMARK VINA RESULT:      -8.5      0.000      0.000
REMARK  Name = 
REMARK  4 active torsions:
REMARK  status: ('A' for Active; 'I' for Inactive)
REMARK    1  A    between atoms: C_2  and  O_3
REMARK    2  A    between atoms: C_2  and  C_4
REMARK    3  A    between atoms: C_10  and  C_11
REMARK    4  A    between atoms: C_14  and  C_15
REMARK                            x       y       z     vdW  Elec       q    Type
REMARK                         _______ _______ _______ _____ _____    ______ ____
ROOT
ATOM      1  C   UNK     1       0.568   9.249  21.232  0.00  0.00    +0.000 A 
ATOM      2  C   UNK     1       0.756  10.098  20.159  0.00  0.00    +0.000 A 
ATOM      3  S   UNK     1       1.614   9.290  18.913  0.00  0.00    +0.000 S 
ATOM      4  C   UNK     1       1.656   7.874  19.872  0.00  0.00    +0.000 A 
ATOM      5  N   UNK     1       2.287   6.712  19.388  0.00  0.00    +0.000 N 
ATOM      6  N   UNK     1       2.935   6.743  18.198  0.00  0.00    +0.000 NA
ATOM      7  C   UNK     1       3.511   5.537  18.068  0.00  0.00    +0.000 A 
ATOM      8  C   UNK     1       3.153   4.683  19.157  0.00  0.00    +0.000 A 
ATOM      9  C   UNK     1       3.406   3.344  19.522  0.00  0.00    +0.000 A 
ATOM     10  C   UNK     1       2.874   2.836  20.713  0.00  0.00    +0.000 A 
ATOM     11  C   UNK     1       2.090   3.637  21.534  0.00  0.00    +0.000 A 
ATOM     12  C   UNK     1       1.818   4.964  21.192  0.00  0.00    +0.000 A 
ATOM     13  C   UNK     1       2.363   5.466  19.995  0.00  0.00    +0.000 A 
ATOM     14  N   UNK     1       1.079   7.956  21.058  0.00  0.00    +0.000 NA
ENDROOT
BRANCH   7  15
ATOM     15  C   UNK     1       4.390   5.258  16.927  0.00  0.00    +0.000 A 
ATOM     16  C   UNK     1       4.864   6.291  16.109  0.00  0.00    +0.000 A 
ATOM     17  C   UNK     1       5.637   6.013  14.976  0.00  0.00    +0.000 A 
ATOM     18  C   UNK     1       5.936   4.690  14.626  0.00  0.00    +0.000 A 
ATOM     19  C   UNK     1       5.488   3.654  15.458  0.00  0.00    +0.000 A 
ATOM     20  C   UNK     1       4.722   3.936  16.594  0.00  0.00    +0.000 A 
BRANCH  18  21
ATOM     21  C   UNK     1       6.683   4.373  13.352  0.00  0.00    +0.000 C 
ATOM     22  F   UNK     1       5.912   4.466  12.232  0.00  0.00    +0.000 F 
ATOM     23  F   UNK     1       7.745   5.198  13.144  0.00  0.00    +0.000 F 
ATOM     24  F   UNK     1       7.185   3.106  13.350  0.00  0.00    +0.000 F 
ENDBRANCH  18  21
ENDBRANCH   7  15
BRANCH   1  26
ATOM     25  O   UNK     1      -0.014  10.700  23.023  0.00  0.00    +0.000 OA
ATOM     26  C   UNK     1      -0.100   9.608  22.480  0.00  0.00    +0.000 C 
BRANCH  26  27
ATOM     27  O   UNK     1      -0.831   8.581  22.985  0.00  0.00    +0.000 OA
ATOM     28  H   UNK     1      -0.236   7.804  23.071  0.00  0.00    +0.000 HD
ENDBRANCH  26  27
ENDBRANCH   1  26
TORSDOF 4
ENDMDL
MODEL 2
REMARK VINA RESULT:      -8.1      0.428      1.101
REMARK  Name = 
REMARK  4 active torsions:
REMARK  status: ('A' for Active; 'I' for Inactive)
REMARK    1  A    between atoms: C_2  and  O_3
REMARK    2  A    between atoms: C_2  and  C_4
REMARK    3  A    between atoms: C_10  and  C_11
REMARK    4  A    between atoms: C_14  and  C_15
REMARK                            x       y       z     vdW  Elec       q    Type
REMARK                         _______ _______ _______ _____ _____    ______ ____
ROOT
ATOM      1  C   UNK     1       0.513   9.233  21.340  0.00  0.00    +0.000 A 
ATOM      2  C   UNK     1       0.657  10.102  20.276  0.00  0.00    +0.000 A 
ATOM      3  S   UNK     1       1.503   9.331  18.999  0.00  0.00    +0.000 S 
ATOM      4  C   UNK     1       1.598   7.903  19.935  0.00  0.00    +0.000 A 
ATOM      5  N   UNK     1       2.243   6.762  19.419  0.00  0.00    +0.000 N 
ATOM      6  N   UNK     1       2.862   6.825  18.215  0.00  0.00    +0.000 NA
ATOM      7  C   UNK     1       3.461   5.634  18.054  0.00  0.00    +0.000 A 
ATOM      8  C   UNK     1       3.148   4.757  19.137  0.00  0.00    +0.000 A 
ATOM      9  C   UNK     1       3.439   3.418  19.476  0.00  0.00    +0.000 A 
ATOM     10  C   UNK     1       2.946   2.881  20.671  0.00  0.00    +0.000 A 
ATOM     11  C   UNK     1       2.164   3.653  21.522  0.00  0.00    +0.000 A 
ATOM     12  C   UNK     1       1.855   4.978  21.206  0.00  0.00    +0.000 A 
ATOM     13  C   UNK     1       2.361   5.510  20.006  0.00  0.00    +0.000 A 
ATOM     14  N   UNK     1       1.048   7.954  21.135  0.00  0.00    +0.000 NA
ENDROOT
BRANCH   7  15
ATOM     15  C   UNK     1       4.319   5.392  16.889  0.00  0.00    +0.000 A 
ATOM     16  C   UNK     1       4.658   4.090  16.497  0.00  0.00    +0.000 A 
ATOM     17  C   UNK     1       5.540   3.867  15.434  0.00  0.00    +0.000 A 
ATOM     18  C   UNK     1       6.120   4.944  14.751  0.00  0.00    +0.000 A 
ATOM     19  C   UNK     1       5.762   6.248  15.121  0.00  0.00    +0.000 A 
ATOM     20  C   UNK     1       4.873   6.468  16.179  0.00  0.00    +0.000 A 
BRANCH  18  21
ATOM     21  C   UNK     1       7.149   4.716  13.670  0.00  0.00    +0.000 C 
ATOM     22  F   UNK     1       7.026   3.509  13.049  0.00  0.00    +0.000 F 
ATOM     23  F   UNK     1       7.094   5.652  12.683  0.00  0.00    +0.000 F 
ATOM     24  F   UNK     1       8.423   4.754  14.153  0.00  0.00    +0.000 F 
ENDBRANCH  18  21
ENDBRANCH   7  15
BRANCH   1  26
ATOM     25  O   UNK     1      -0.006  10.622  23.199  0.00  0.00    +0.000 OA
ATOM     26  C   UNK     1      -0.133   9.559  22.609  0.00  0.00    +0.000 C 
BRANCH  26  27
ATOM     27  O   UNK     1      -0.897   8.536  23.074  0.00  0.00    +0.000 OA
ATOM     28  H   UNK     1      -1.834   8.742  22.863  0.00  0.00    +0.000 HD
ENDBRANCH  26  27
ENDBRANCH   1  26
TORSDOF 4
ENDMDL
MODEL 3
REMARK VINA RESULT:      -8.0      5.970      8.484
REMARK  Name = 
REMARK  4 active torsions:
REMARK  status: ('A' for Active; 'I' for Inactive)
REMARK    1  A    between atoms: C_2  and  O_3
REMARK    2  A    between atoms: C_2  and  C_4
REMARK    3  A    between atoms: C_10  and  C_11
REMARK    4  A    between atoms: C_14  and  C_15
REMARK                            x       y       z     vdW  Elec       q    Type
REMARK                         _______ _______ _______ _____ _____    ______ ____
ROOT
ATOM      1  C   UNK     1       5.519   4.850  15.657  0.00  0.00    +0.000 A 
ATOM      2  C   UNK     1       5.883   6.166  15.454  0.00  0.00    +0.000 A 
ATOM      3  S   UNK     1       5.075   7.178  16.578  0.00  0.00    +0.000 S 
ATOM      4  C   UNK     1       4.322   5.804  17.263  0.00  0.00    +0.000 A 
ATOM      5  N   UNK     1       3.431   5.951  18.343  0.00  0.00    +0.000 N 
ATOM      6  N   UNK     1       3.106   7.192  18.783  0.00  0.00    +0.000 NA
ATOM      7  C   UNK     1       2.174   7.006  19.732  0.00  0.00    +0.000 A 
ATOM      8  C   UNK     1       1.959   5.613  19.967  0.00  0.00    +0.000 A 
ATOM      9  C   UNK     1       1.168   4.841  20.844  0.00  0.00    +0.000 A 
ATOM     10  C   UNK     1       1.214   3.444  20.776  0.00  0.00    +0.000 A 
ATOM     11  C   UNK     1       2.043   2.809  19.858  0.00  0.00    +0.000 A 
ATOM     12  C   UNK     1       2.842   3.550  18.984  0.00  0.00    +0.000 A 
ATOM     13  C   UNK     1       2.782   4.954  19.056  0.00  0.00    +0.000 A 
ATOM     14  N   UNK     1       4.624   4.641  16.715  0.00  0.00    +0.000 NA
ENDROOT
BRANCH   7  15
ATOM     15  C   UNK     1       1.517   8.158  20.357  0.00  0.00    +0.000 A 
ATOM     16  C   UNK     1       1.263   8.190  21.734  0.00  0.00    +0.000 A 
ATOM     17  C   UNK     1       0.566   9.256  22.313  0.00  0.00    +0.000 A 
ATOM     18  C   UNK     1       0.087  10.307  21.519  0.00  0.00    +0.000 A 
ATOM     19  C   UNK     1       0.362  10.294  20.145  0.00  0.00    +0.000 A 
ATOM     20  C   UNK     1       1.068   9.231  19.571  0.00  0.00    +0.000 A 
BRANCH  18  21
ATOM     21  C   UNK     1      -0.753  11.411  22.116  0.00  0.00    +0.000 C 
ATOM     22  F   UNK     1      -1.874  11.692  21.394  0.00  0.00    +0.000 F 
ATOM     23  F   UNK     1      -1.182  11.125  23.376  0.00  0.00    +0.000 F 
ATOM     24  F   UNK     1      -0.070  12.586  22.210  0.00  0.00    +0.000 F 
ENDBRANCH  18  21
ENDBRANCH   7  15
BRANCH   1  26
ATOM     25  O   UNK     1       6.349   3.787  13.699  0.00  0.00    +0.000 OA
ATOM     26  C   UNK     1       5.991   3.717  14.865  0.00  0.00    +0.000 C 
BRANCH  26  27
ATOM     27  O   UNK     1       5.983   2.557  15.573  0.00  0.00    +0.000 OA
ATOM     28  H   UNK     1       6.917   2.280  15.704  0.00  0.00    +0.000 HD
ENDBRANCH  26  27
ENDBRANCH   1  26
TORSDOF 4
ENDMDL
MODEL 4
REMARK VINA RESULT:      -8.0      6.586      8.605
REMARK  Name = 
REMARK  4 active torsions:
REMARK  status: ('A' for Active; 'I' for Inactive)
REMARK    1  A    between atoms: C_2  and  O_3
REMARK    2  A    between atoms: C_2  and  C_4
REMARK    3  A    between atoms: C_10  and  C_11
REMARK    4  A    between atoms: C_14  and  C_15
REMARK                            x       y       z     vdW  Elec       q    Type
REMARK                         _______ _______ _______ _____ _____    ______ ____
ROOT
ATOM      1  C   UNK     1       6.165   3.387  12.353  0.00  0.00    +0.000 A 
ATOM      2  C   UNK     1       7.253   4.091  11.874  0.00  0.00    +0.000 A 
ATOM      3  S   UNK     1       7.841   5.157  13.082  0.00  0.00    +0.000 S 
ATOM      4  C   UNK     1       6.631   4.597  14.154  0.00  0.00    +0.000 A 
ATOM      5  N   UNK     1       6.542   5.125  15.456  0.00  0.00    +0.000 N 
ATOM      6  N   UNK     1       7.362   6.138  15.830  0.00  0.00    +0.000 NA
ATOM      7  C   UNK     1       6.968   6.484  17.066  0.00  0.00    +0.000 A 
ATOM      8  C   UNK     1       5.931   5.619  17.530  0.00  0.00    +0.000 A 
ATOM      9  C   UNK     1       5.187   5.472  18.721  0.00  0.00    +0.000 A 
ATOM     10  C   UNK     1       4.208   4.476  18.811  0.00  0.00    +0.000 A 
ATOM     11  C   UNK     1       3.969   3.623  17.740  0.00  0.00    +0.000 A 
ATOM     12  C   UNK     1       4.696   3.742  16.554  0.00  0.00    +0.000 A 
ATOM     13  C   UNK     1       5.673   4.751  16.472  0.00  0.00    +0.000 A 
ATOM     14  N   UNK     1       5.815   3.673  13.680  0.00  0.00    +0.000 NA
ENDROOT
BRANCH   7  15
ATOM     15  C   UNK     1       7.581   7.634  17.740  0.00  0.00    +0.000 A 
ATOM     16  C   UNK     1       7.404   8.937  17.257  0.00  0.00    +0.000 A 
ATOM     17  C   UNK     1       8.055  10.020  17.857  0.00  0.00    +0.000 A 
ATOM     18  C   UNK     1       8.916   9.820  18.944  0.00  0.00    +0.000 A 
ATOM     19  C   UNK     1       9.074   8.522  19.449  0.00  0.00    +0.000 A 
ATOM     20  C   UNK     1       8.415   7.442  18.852  0.00  0.00    +0.000 A 
BRANCH  18  21
ATOM     21  C   UNK     1       9.701  10.967  19.535  0.00  0.00    +0.000 C 
ATOM     22  F   UNK     1      10.990  11.027  19.096  0.00  0.00    +0.000 F 
ATOM     23  F   UNK     1       9.154  12.181  19.254  0.00  0.00    +0.000 F 
ATOM     24  F   UNK     1       9.777  10.895  20.894  0.00  0.00    +0.000 F 
ENDBRANCH  18  21
ENDBRANCH   7  15
BRANCH   1  26
ATOM     25  O   UNK     1       4.283   2.616  11.122  0.00  0.00    +0.000 OA
ATOM     26  C   UNK     1       5.394   2.410  11.589  0.00  0.00    +0.000 C 
BRANCH  26  27
ATOM     27  O   UNK     1       6.051   1.229  11.456  0.00  0.00    +0.000 OA
ATOM     28  H   UNK     1       5.386   0.541  11.230  0.00  0.00    +0.000 HD
ENDBRANCH  26  27
ENDBRANCH   1  26
TORSDOF 4
ENDMDL
MODEL 5
REMARK VINA RESULT:      -7.9      1.125      1.488
REMARK  Name = 
REMARK  4 active torsions:
REMARK  status: ('A' for Active; 'I' for Inactive)
REMARK    1  A    between atoms: C_2  and  O_3
REMARK    2  A    between atoms: C_2  and  C_4
REMARK    3  A    between atoms: C_10  and  C_11
REMARK    4  A    between atoms: C_14  and  C_15
REMARK                            x       y       z     vdW  Elec       q    Type
REMARK                         _______ _______ _______ _____ _____    ______ ____
ROOT
ATOM      1  C   UNK     1       1.069   8.616  20.610  0.00  0.00    +0.000 A 
ATOM      2  C   UNK     1       1.199   9.509  19.564  0.00  0.00    +0.000 A 
ATOM      3  S   UNK     1       2.130   8.809  18.306  0.00  0.00    +0.000 S 
ATOM      4  C   UNK     1       2.276   7.373  19.223  0.00  0.00    +0.000 A 
ATOM      5  N   UNK     1       3.002   6.280  18.713  0.00  0.00    +0.000 N 
ATOM      6  N   UNK     1       3.657   6.398  17.532  0.00  0.00    +0.000 NA
ATOM      7  C   UNK     1       4.328   5.247  17.373  0.00  0.00    +0.000 A 
ATOM      8  C   UNK     1       4.030   4.335  18.433  0.00  0.00    +0.000 A 
ATOM      9  C   UNK     1       4.385   3.009  18.762  0.00  0.00    +0.000 A 
ATOM     10  C   UNK     1       3.885   2.425  19.931  0.00  0.00    +0.000 A 
ATOM     11  C   UNK     1       3.032   3.137  20.766  0.00  0.00    +0.000 A 
ATOM     12  C   UNK     1       2.658   4.447  20.459  0.00  0.00    +0.000 A 
ATOM     13  C   UNK     1       3.173   5.027  19.285  0.00  0.00    +0.000 A 
ATOM     14  N   UNK     1       1.684   7.373  20.404  0.00  0.00    +0.000 NA
ENDROOT
BRANCH   7  15
ATOM     15  C   UNK     1       5.237   5.073  16.235  0.00  0.00    +0.000 A 
ATOM     16  C   UNK     1       6.511   5.655  16.230  0.00  0.00    +0.000 A 
ATOM     17  C   UNK     1       7.344   5.552  15.110  0.00  0.00    +0.000 A 
ATOM     18  C   UNK     1       6.909   4.881  13.959  0.00  0.00    +0.000 A 
ATOM     19  C   UNK     1       5.646   4.273  13.970  0.00  0.00    +0.000 A 
ATOM     20  C   UNK     1       4.820   4.370  15.095  0.00  0.00    +0.000 A 
BRANCH  18  21
ATOM     21  C   UNK     1       7.758   4.851  12.711  0.00  0.00    +0.000 C 
ATOM     22  F   UNK     1       7.701   3.663  12.044  0.00  0.00    +0.000 F 
ATOM     23  F   UNK     1       7.401   5.804  11.807  0.00  0.00    +0.000 F 
ATOM     24  F   UNK     1       9.077   5.061  12.978  0.00  0.00    +0.000 F 
ENDBRANCH  18  21
ENDBRANCH   7  15
BRANCH   1  26
ATOM     25  O   UNK     1      -0.754   8.467  22.128  0.00  0.00    +0.000 OA
ATOM     26  C   UNK     1       0.364   8.883  21.860  0.00  0.00    +0.000 C 
BRANCH  26  27
ATOM     27  O   UNK     1       1.091   9.661  22.704  0.00  0.00    +0.000 OA
ATOM     28  H   UNK     1       1.297   9.125  23.502  0.00  0.00    +0.000 HD
ENDBRANCH  26  27
ENDBRANCH   1  26
TORSDOF 4
ENDMDL
MODEL 6
REMARK VINA RESULT:      -7.7      4.538      6.910
REMARK  Name = 
REMARK  4 active torsions:
REMARK  status: ('A' for Active; 'I' for Inactive)
REMARK    1  A    between atoms: C_2  and  O_3
REMARK    2  A    between atoms: C_2  and  C_4
REMARK    3  A    between atoms: C_10  and  C_11
REMARK    4  A    between atoms: C_14  and  C_15
REMARK                            x       y       z     vdW  Elec       q    Type
REMARK                         _______ _______ _______ _____ _____    ______ ____
ROOT
ATOM      1  C   UNK     1      -3.209  13.790  22.600  0.00  0.00    +0.000 A 
ATOM      2  C   UNK     1      -2.087  13.721  23.404  0.00  0.00    +0.000 A 
ATOM      3  S   UNK     1      -0.902  12.721  22.673  0.00  0.00    +0.000 S 
ATOM      4  C   UNK     1      -1.945  12.469  21.342  0.00  0.00    +0.000 A 
ATOM      5  N   UNK     1      -1.540  11.650  20.271  0.00  0.00    +0.000 N 
ATOM      6  N   UNK     1      -0.356  10.993  20.336  0.00  0.00    +0.000 NA
ATOM      7  C   UNK     1      -0.305  10.228  19.234  0.00  0.00    +0.000 A 
ATOM      8  C   UNK     1      -1.440  10.464  18.399  0.00  0.00    +0.000 A 
ATOM      9  C   UNK     1      -1.889  10.006  17.142  0.00  0.00    +0.000 A 
ATOM     10  C   UNK     1      -3.104  10.471  16.626  0.00  0.00    +0.000 A 
ATOM     11  C   UNK     1      -3.867  11.389  17.337  0.00  0.00    +0.000 A 
ATOM     12  C   UNK     1      -3.442  11.865  18.579  0.00  0.00    +0.000 A 
ATOM     13  C   UNK     1      -2.222  11.385  19.092  0.00  0.00    +0.000 A 
ATOM     14  N   UNK     1      -3.119  13.074  21.398  0.00  0.00    +0.000 NA
ENDROOT
BRANCH   7  15
ATOM     15  C   UNK     1       0.809   9.294  19.035  0.00  0.00    +0.000 A 
ATOM     16  C   UNK     1       1.513   9.255  17.825  0.00  0.00    +0.000 A 
ATOM     17  C   UNK     1       2.522   8.309  17.611  0.00  0.00    +0.000 A 
ATOM     18  C   UNK     1       2.835   7.366  18.600  0.00  0.00    +0.000 A 
ATOM     19  C   UNK     1       2.152   7.420  19.823  0.00  0.00    +0.000 A 
ATOM     20  C   UNK     1       1.149   8.372  20.036  0.00  0.00    +0.000 A 
BRANCH  18  21
ATOM     21  C   UNK     1       3.851   6.279  18.343  0.00  0.00    +0.000 C 
ATOM     22  F   UNK     1       4.864   6.666  17.517  0.00  0.00    +0.000 F 
ATOM     23  F   UNK     1       4.446   5.833  19.482  0.00  0.00    +0.000 F 
ATOM     24  F   UNK     1       3.295   5.182  17.755  0.00  0.00    +0.000 F 
ENDBRANCH  18  21
ENDBRANCH   7  15
BRANCH   1  26
ATOM     25  O   UNK     1      -5.050  15.216  22.122  0.00  0.00    +0.000 OA
ATOM     26  C   UNK     1      -4.427  14.530  22.919  0.00  0.00    +0.000 C 
BRANCH  26  27
ATOM     27  O   UNK     1      -4.795  14.377  24.218  0.00  0.00    +0.000 OA
ATOM     28  H   UNK     1      -5.549  13.747  24.243  0.00  0.00    +0.000 HD
ENDBRANCH  26  27
ENDBRANCH   1  26
TORSDOF 4
ENDMDL
MODEL 7
REMARK VINA RESULT:      -7.7      5.923      8.404
REMARK  Name = 
REMARK  4 active torsions:
REMARK  status: ('A' for Active; 'I' for Inactive)
REMARK    1  A    between atoms: C_2  and  O_3
REMARK    2  A    between atoms: C_2  and  C_4
REMARK    3  A    between atoms: C_10  and  C_11
REMARK    4  A    between atoms: C_14  and  C_15
REMARK                            x       y       z     vdW  Elec       q    Type
REMARK                         _______ _______ _______ _____ _____    ______ ____
ROOT
ATOM      1  C   UNK     1       5.504   4.809  15.580  0.00  0.00    +0.000 A 
ATOM      2  C   UNK     1       5.698   6.133  15.237  0.00  0.00    +0.000 A 
ATOM      3  S   UNK     1       4.835   7.151  16.314  0.00  0.00    +0.000 S 
ATOM      4  C   UNK     1       4.287   5.773  17.165  0.00  0.00    +0.000 A 
ATOM      5  N   UNK     1       3.442   5.921  18.281  0.00  0.00    +0.000 N 
ATOM      6  N   UNK     1       2.995   7.154  18.629  0.00  0.00    +0.000 NA
ATOM      7  C   UNK     1       2.143   6.956  19.647  0.00  0.00    +0.000 A 
ATOM      8  C   UNK     1       2.107   5.576  20.019  0.00  0.00    +0.000 A 
ATOM      9  C   UNK     1       1.459   4.808  21.010  0.00  0.00    +0.000 A 
ATOM     10  C   UNK     1       1.667   3.426  21.064  0.00  0.00    +0.000 A 
ATOM     11  C   UNK     1       2.516   2.803  20.157  0.00  0.00    +0.000 A 
ATOM     12  C   UNK     1       3.175   3.541  19.171  0.00  0.00    +0.000 A 
ATOM     13  C   UNK     1       2.954   4.930  19.121  0.00  0.00    +0.000 A 
ATOM     14  N   UNK     1       4.696   4.603  16.706  0.00  0.00    +0.000 NA
ENDROOT
BRANCH   7  15
ATOM     15  C   UNK     1       1.387   8.082  20.205  0.00  0.00    +0.000 A 
ATOM     16  C   UNK     1       0.953   9.137  19.393  0.00  0.00    +0.000 A 
ATOM     17  C   UNK     1       0.301  10.247  19.943  0.00  0.00    +0.000 A 
ATOM     18  C   UNK     1       0.088  10.333  21.326  0.00  0.00    +0.000 A 
ATOM     19  C   UNK     1       0.494   9.266  22.139  0.00  0.00    +0.000 A 
ATOM     20  C   UNK     1       1.138   8.155  21.584  0.00  0.00    +0.000 A 
BRANCH  18  21
ATOM     21  C   UNK     1      -0.523  11.569  21.942  0.00  0.00    +0.000 C 
ATOM     22  F   UNK     1      -0.916  11.395  23.235  0.00  0.00    +0.000 F 
ATOM     23  F   UNK     1       0.329  12.631  21.951  0.00  0.00    +0.000 F 
ATOM     24  F   UNK     1      -1.634  11.985  21.271  0.00  0.00    +0.000 F 
ENDBRANCH  18  21
ENDBRANCH   7  15
BRANCH   1  26
ATOM     25  O   UNK     1       6.569   3.723  13.753  0.00  0.00    +0.000 OA
ATOM     26  C   UNK     1       6.065   3.666  14.865  0.00  0.00    +0.000 C 
BRANCH  26  27
ATOM     27  O   UNK     1       5.958   2.513  15.576  0.00  0.00    +0.000 OA
ATOM     28  H   UNK     1       6.558   1.852  15.165  0.00  0.00    +0.000 HD
ENDBRANCH  26  27
ENDBRANCH   1  26
TORSDOF 4
ENDMDL
MODEL 8
REMARK VINA RESULT:      -7.7      6.616      8.651
REMARK  Name = 
REMARK  4 active torsions:
REMARK  status: ('A' for Active; 'I' for Inactive)
REMARK    1  A    between atoms: C_2  and  O_3
REMARK    2  A    between atoms: C_2  and  C_4
REMARK    3  A    between atoms: C_10  and  C_11
REMARK    4  A    between atoms: C_14  and  C_15
REMARK                            x       y       z     vdW  Elec       q    Type
REMARK                         _______ _______ _______ _____ _____    ______ ____
ROOT
ATOM      1  C   UNK     1       6.061   3.441  12.365  0.00  0.00    +0.000 A 
ATOM      2  C   UNK     1       7.171   4.096  11.868  0.00  0.00    +0.000 A 
ATOM      3  S   UNK     1       7.830   5.129  13.067  0.00  0.00    +0.000 S 
ATOM      4  C   UNK     1       6.617   4.621  14.160  0.00  0.00    +0.000 A 
ATOM      5  N   UNK     1       6.576   5.147  15.465  0.00  0.00    +0.000 N 
ATOM      6  N   UNK     1       7.449   6.120  15.827  0.00  0.00    +0.000 NA
ATOM      7  C   UNK     1       7.095   6.479  17.071  0.00  0.00    +0.000 A 
ATOM      8  C   UNK     1       6.028   5.660  17.553  0.00  0.00    +0.000 A 
ATOM      9  C   UNK     1       5.301   5.542  18.757  0.00  0.00    +0.000 A 
ATOM     10  C   UNK     1       4.279   4.593  18.862  0.00  0.00    +0.000 A 
ATOM     11  C   UNK     1       3.981   3.755  17.794  0.00  0.00    +0.000 A 
ATOM     12  C   UNK     1       4.690   3.846  16.594  0.00  0.00    +0.000 A 
ATOM     13  C   UNK     1       5.711   4.809  16.496  0.00  0.00    +0.000 A 
ATOM     14  N   UNK     1       5.750   3.737  13.699  0.00  0.00    +0.000 NA
ENDROOT
BRANCH   7  15
ATOM     15  C   UNK     1       7.773   7.596  17.737  0.00  0.00    +0.000 A 
ATOM     16  C   UNK     1       8.451   7.413  18.949  0.00  0.00    +0.000 A 
ATOM     17  C   UNK     1       9.029   8.497  19.620  0.00  0.00    +0.000 A 
ATOM     18  C   UNK     1       8.921   9.794  19.102  0.00  0.00    +0.000 A 
ATOM     19  C   UNK     1       8.268   9.979  17.875  0.00  0.00    +0.000 A 
ATOM     20  C   UNK     1       7.700   8.891  17.202  0.00  0.00    +0.000 A 
BRANCH  18  21
ATOM     21  C   UNK     1       9.452  10.983  19.867  0.00  0.00    +0.000 C 
ATOM     22  F   UNK     1       8.875  12.164  19.505  0.00  0.00    +0.000 F 
ATOM     23  F   UNK     1       9.266  10.872  21.211  0.00  0.00    +0.000 F 
ATOM     24  F   UNK     1      10.792  11.157  19.687  0.00  0.00    +0.000 F 
ENDBRANCH  18  21
ENDBRANCH   7  15
BRANCH   1  26
ATOM     25  O   UNK     1       4.122   2.761  11.169  0.00  0.00    +0.000 OA
ATOM     26  C   UNK     1       5.232   2.504  11.612  0.00  0.00    +0.000 C 
BRANCH  26  27
ATOM     27  O   UNK     1       5.832   1.294  11.461  0.00  0.00    +0.000 OA
ATOM     28  H   UNK     1       5.372   0.821  10.733  0.00  0.00    +0.000 HD
ENDBRANCH  26  27
ENDBRANCH   1  26
TORSDOF 4
ENDMDL
MODEL 9
REMARK VINA RESULT:      -7.4      4.842      7.041
REMARK  Name = 
REMARK  4 active torsions:
REMARK  status: ('A' for Active; 'I' for Inactive)
REMARK    1  A    between atoms: C_2  and  O_3
REMARK    2  A    between atoms: C_2  and  C_4
REMARK    3  A    between atoms: C_10  and  C_11
REMARK    4  A    between atoms: C_14  and  C_15
REMARK                            x       y       z     vdW  Elec       q    Type
REMARK                         _______ _______ _______ _____ _____    ______ ____
ROOT
ATOM      1  C   UNK     1       0.754  15.837  19.034  0.00  0.00    +0.000 A 
ATOM      2  C   UNK     1       2.116  15.728  19.232  0.00  0.00    +0.000 A 
ATOM      3  S   UNK     1       2.592  14.082  19.151  0.00  0.00    +0.000 S 
ATOM      4  C   UNK     1       0.970  13.637  18.840  0.00  0.00    +0.000 A 
ATOM      5  N   UNK     1       0.632  12.282  18.658  0.00  0.00    +0.000 N 
ATOM      6  N   UNK     1       1.579  11.325  18.814  0.00  0.00    +0.000 NA
ATOM      7  C   UNK     1       0.936  10.154  18.682  0.00  0.00    +0.000 A 
ATOM      8  C   UNK     1      -0.438  10.364  18.348  0.00  0.00    +0.000 A 
ATOM      9  C   UNK     1      -1.548   9.545  18.051  0.00  0.00    +0.000 A 
ATOM     10  C   UNK     1      -2.787  10.129  17.768  0.00  0.00    +0.000 A 
ATOM     11  C   UNK     1      -2.932  11.511  17.767  0.00  0.00    +0.000 A 
ATOM     12  C   UNK     1      -1.848  12.345  18.050  0.00  0.00    +0.000 A 
ATOM     13  C   UNK     1      -0.608  11.747  18.339  0.00  0.00    +0.000 A 
ATOM     14  N   UNK     1       0.093  14.624  18.794  0.00  0.00    +0.000 NA
ENDROOT
BRANCH   7  15
ATOM     15  C   UNK     1       1.649   8.891  18.900  0.00  0.00    +0.000 A 
ATOM     16  C   UNK     1       2.409   8.303  17.881  0.00  0.00    +0.000 A 
ATOM     17  C   UNK     1       3.023   7.060  18.068  0.00  0.00    +0.000 A 
ATOM     18  C   UNK     1       2.871   6.366  19.276  0.00  0.00    +0.000 A 
ATOM     19  C   UNK     1       2.136   6.963  20.309  0.00  0.00    +0.000 A 
ATOM     20  C   UNK     1       1.530   8.211  20.122  0.00  0.00    +0.000 A 
BRANCH  18  21
ATOM     21  C   UNK     1       3.444   4.980  19.453  0.00  0.00    +0.000 C 
ATOM     22  F   UNK     1       4.801   4.965  19.578  0.00  0.00    +0.000 F 
ATOM     23  F   UNK     1       2.961   4.346  20.556  0.00  0.00    +0.000 F 
ATOM     24  F   UNK     1       3.162   4.166  18.398  0.00  0.00    +0.000 F 
ENDBRANCH  18  21
ENDBRANCH   7  15
BRANCH   1  26
ATOM     25  O   UNK     1       0.442  18.156  19.450  0.00  0.00    +0.000 OA
ATOM     26  C   UNK     1      -0.002  17.086  19.063  0.00  0.00    +0.000 C 
BRANCH  26  27
ATOM     27  O   UNK     1      -1.274  16.927  18.612  0.00  0.00    +0.000 OA
ATOM     28  H   UNK     1      -1.762  17.761  18.793  0.00  0.00    +0.000 HD
ENDBRANCH  26  27
ENDBRANCH   1  26
TORSDOF 4
ENDMDL
