MODEL 1
REMARK VINA RESULT:      -7.2      0.000      0.000
REMARK  Name = 
REMARK  14 active torsions:
REMARK  status: ('A' for Active; 'I' for Inactive)
REMARK    1  A    between atoms: C_1  and  C_2
REMARK    2  A    between atoms: C_2  and  C_3
REMARK    3  A    between atoms: C_3  and  C_4
REMARK    4  A    between atoms: C_3  and  C_5
REMARK    5  A    between atoms: C_5  and  N_6
REMARK    6  A    between atoms: C_5  and  C_7
REMARK    7  A    between atoms: N_9  and  C_10
REMARK    8  A    between atoms: C_10  and  C_11
REMARK    9  A    between atoms: N_13  and  C_14
REMARK   10  A    between atoms: C_16  and  C_17
REMARK   11  A    between atoms: N_19  and  O_20
REMARK   12  A    between atoms: N_21  and  S_22
REMARK   13  A    between atoms: S_22  and  C_25
REMARK   14  A    between atoms: C_28  and  C_29
REMARK                            x       y       z     vdW  Elec       q    Type
REMARK                         _______ _______ _______ _____ _____    ______ ____
ROOT
ATOM      1  C   UNL     1       2.569   6.100  19.190  0.00  0.00    +0.000 C 
ATOM      2  C   UNL     1       2.203   4.820  18.449  0.00  0.00    +0.000 C 
ATOM      3  C   UNL     1       3.254   3.809  18.912  0.00  0.00    +0.000 C 
ATOM      4  N   UNL     1       4.512   4.636  18.975  0.00  0.00    +0.000 NA
ATOM      5  C   UNL     1       4.054   5.939  19.570  0.00  0.00    +0.000 C 
ENDROOT
BRANCH   1   8
ATOM      6  C   UNL     1       1.825   8.450  18.955  0.00  0.00    +0.000 C 
ATOM      7  O   UNL     1       1.701   8.602  20.168  0.00  0.00    +0.000 OA
ATOM      8  N   UNL     1       2.260   7.271  18.383  0.00  0.00    +0.000 N 
ATOM      9  H   UNL     1       2.781   7.407  17.511  0.00  0.00    +0.000 HD
BRANCH   6  10
ATOM     10  C   UNL     1       1.545   9.571  17.938  0.00  0.00    +0.000 C 
BRANCH  10  13
ATOM     11  C   UNL     1       0.965  11.825  18.690  0.00  0.00    +0.000 C 
ATOM     12  O   UNL     1       2.162  12.110  18.778  0.00  0.00    +0.000 OA
ATOM     13  N   UNL     1       0.563  10.542  18.393  0.00  0.00    +0.000 N 
ATOM     14  H   UNL     1      -0.391  10.417  18.072  0.00  0.00    +0.000 HD
BRANCH  11  15
ATOM     15  C   UNL     1      -0.192  12.826  18.955  0.00  0.00    +0.000 C 
BRANCH  15  16
ATOM     16  N   UNL     1      -1.019  12.932  17.738  0.00  0.00    +0.000 NA
ATOM     17  H   UNL     1      -0.535  13.529  17.061  0.00  0.00    +0.000 HD
ATOM     18  H   UNL     1      -1.879  13.438  17.951  0.00  0.00    +0.000 HD
ENDBRANCH  15  16
BRANCH  15  19
ATOM     19  C   UNL     1      -1.029  12.489  20.220  0.00  0.00    +0.000 C 
ATOM     20  C   UNL     1      -2.327  13.316  20.198  0.00  0.00    +0.000 C 
BRANCH  19  22
ATOM     21  C   UNL     1      -1.135  12.771  22.788  0.00  0.00    +0.000 C 
ATOM     22  C   UNL     1      -0.253  12.636  21.553  0.00  0.00    +0.000 C 
ENDBRANCH  19  22
ENDBRANCH  15  19
ENDBRANCH  11  15
ENDBRANCH  10  13
ENDBRANCH   6  10
ENDBRANCH   1   8
BRANCH   3  23
ATOM     23  C   UNL     1       3.238   2.458  18.207  0.00  0.00    +0.000 C 
ATOM     24  O   UNL     1       2.413   2.211  17.326  0.00  0.00    +0.000 OA
ATOM     25  N   UNL     1       4.214   1.557  18.591  0.00  0.00    +0.000 N 
ATOM     26  H   UNL     1       5.122   1.895  18.894  0.00  0.00    +0.000 HD
BRANCH  25  27
ATOM     27  O   UNL     1       4.284   0.377  17.815  0.00  0.00    +0.000 OA
ATOM     28  H   UNL     1       4.059  -0.308  18.472  0.00  0.00    +0.000 HD
ENDBRANCH  25  27
ENDBRANCH   3  23
BRANCH   4  29
ATOM     29  S   UNL     1       5.441   4.831  17.536  0.00  0.00    +0.000 S 
ATOM     30  O   UNL     1       6.281   3.654  17.402  0.00  0.00    +0.000 OA
ATOM     31  O   UNL     1       4.549   5.222  16.474  0.00  0.00    +0.000 OA
BRANCH  29  32
ATOM     32  C   UNL     1       6.508   6.228  17.828  0.00  0.00    +0.000 A 
ATOM     33  C   UNL     1       7.597   6.108  18.690  0.00  0.00    +0.000 A 
ATOM     34  C   UNL     1       8.421   7.207  18.937  0.00  0.00    +0.000 A 
ATOM     35  C   UNL     1       8.198   8.421  18.277  0.00  0.00    +0.000 A 
ATOM     36  C   UNL     1       9.021   9.628  18.613  0.00  0.00    +0.000 C 
ATOM     37  C   UNL     1       7.196   8.489  17.302  0.00  0.00    +0.000 A 
ATOM     38  C   UNL     1       6.346   7.401  17.079  0.00  0.00    +0.000 A 
ENDBRANCH  29  32
ENDBRANCH   4  29
TORSDOF 11
ENDMDL
MODEL 2
REMARK VINA RESULT:      -7.1      3.194      6.898
REMARK  Name = 
REMARK  14 active torsions:
REMARK  status: ('A' for Active; 'I' for Inactive)
REMARK    1  A    between atoms: C_1  and  C_2
REMARK    2  A    between atoms: C_2  and  C_3
REMARK    3  A    between atoms: C_3  and  C_4
REMARK    4  A    between atoms: C_3  and  C_5
REMARK    5  A    between atoms: C_5  and  N_6
REMARK    6  A    between atoms: C_5  and  C_7
REMARK    7  A    between atoms: N_9  and  C_10
REMARK    8  A    between atoms: C_10  and  C_11
REMARK    9  A    between atoms: N_13  and  C_14
REMARK   10  A    between atoms: C_16  and  C_17
REMARK   11  A    between atoms: N_19  and  O_20
REMARK   12  A    between atoms: N_21  and  S_22
REMARK   13  A    between atoms: S_22  and  C_25
REMARK   14  A    between atoms: C_28  and  C_29
REMARK                            x       y       z     vdW  Elec       q    Type
REMARK                         _______ _______ _______ _____ _____    ______ ____
ROOT
ATOM      1  C   UNL     1       5.162   6.114  16.984  0.00  0.00    +0.000 C 
ATOM      2  C   UNL     1       5.212   4.660  17.437  0.00  0.00    +0.000 C 
ATOM      3  C   UNL     1       3.774   4.167  17.258  0.00  0.00    +0.000 C 
ATOM      4  N   UNL     1       2.953   5.352  17.696  0.00  0.00    +0.000 NA
ATOM      5  C   UNL     1       3.683   6.529  17.108  0.00  0.00    +0.000 C 
ENDROOT
BRANCH   1   8
ATOM      6  C   UNL     1       7.396   7.128  17.322  0.00  0.00    +0.000 C 
ATOM      7  O   UNL     1       7.837   6.670  16.270  0.00  0.00    +0.000 OA
ATOM      8  N   UNL     1       6.098   6.926  17.748  0.00  0.00    +0.000 N 
ATOM      9  H   UNL     1       5.723   7.703  18.300  0.00  0.00    +0.000 HD
BRANCH   6  10
ATOM     10  C   UNL     1       8.233   8.008  18.267  0.00  0.00    +0.000 C 
BRANCH  10  13
ATOM     11  C   UNL     1       9.023  10.296  18.617  0.00  0.00    +0.000 C 
ATOM     12  O   UNL     1       9.347  10.014  19.773  0.00  0.00    +0.000 OA
ATOM     13  N   UNL     1       8.350   9.390  17.829  0.00  0.00    +0.000 N 
ATOM     14  H   UNL     1       8.344   9.559  16.829  0.00  0.00    +0.000 HD
BRANCH  11  15
ATOM     15  C   UNL     1       9.271  11.679  17.955  0.00  0.00    +0.000 C 
BRANCH  15  16
ATOM     16  N   UNL     1       8.001  12.174  17.392  0.00  0.00    +0.000 NA
ATOM     17  H   UNL     1       7.640  11.480  16.730  0.00  0.00    +0.000 HD
ATOM     18  H   UNL     1       8.178  13.000  16.821  0.00  0.00    +0.000 HD
ENDBRANCH  15  16
BRANCH  15  19
ATOM     19  C   UNL     1       9.949  12.709  18.900  0.00  0.00    +0.000 C 
ATOM     20  C   UNL     1       8.861  13.454  19.693  0.00  0.00    +0.000 C 
BRANCH  19  22
ATOM     21  C   UNL     1      11.499  13.147  16.877  0.00  0.00    +0.000 C 
ATOM     22  C   UNL     1      10.932  13.673  18.190  0.00  0.00    +0.000 C 
ENDBRANCH  19  22
ENDBRANCH  15  19
ENDBRANCH  11  15
ENDBRANCH  10  13
ENDBRANCH   6  10
ENDBRANCH   1   8
BRANCH   3  23
ATOM     23  C   UNL     1       3.478   2.769  17.788  0.00  0.00    +0.000 C 
ATOM     24  O   UNL     1       2.428   2.191  17.503  0.00  0.00    +0.000 OA
ATOM     25  N   UNL     1       4.463   2.189  18.566  0.00  0.00    +0.000 N 
ATOM     26  H   UNL     1       5.439   2.405  18.389  0.00  0.00    +0.000 HD
BRANCH  25  27
ATOM     27  O   UNL     1       4.240   0.835  18.910  0.00  0.00    +0.000 OA
ATOM     28  H   UNL     1       5.136   0.540  19.154  0.00  0.00    +0.000 HD
ENDBRANCH  25  27
ENDBRANCH   3  23
BRANCH   4  29
ATOM     29  S   UNL     1       2.603   5.536  19.374  0.00  0.00    +0.000 S 
ATOM     30  O   UNL     1       1.515   4.627  19.690  0.00  0.00    +0.000 OA
ATOM     31  O   UNL     1       3.846   5.475  20.103  0.00  0.00    +0.000 OA
BRANCH  29  32
ATOM     32  C   UNL     1       1.995   7.199  19.569  0.00  0.00    +0.000 A 
ATOM     33  C   UNL     1       1.885   8.037  18.460  0.00  0.00    +0.000 A 
ATOM     34  C   UNL     1       1.429   9.347  18.613  0.00  0.00    +0.000 A 
ATOM     35  C   UNL     1       1.023   9.813  19.869  0.00  0.00    +0.000 A 
ATOM     36  C   UNL     1       0.626  11.247  20.052  0.00  0.00    +0.000 C 
ATOM     37  C   UNL     1       0.994   8.920  20.946  0.00  0.00    +0.000 A 
ATOM     38  C   UNL     1       1.484   7.618  20.804  0.00  0.00    +0.000 A 
ENDBRANCH  29  32
ENDBRANCH   4  29
TORSDOF 11
ENDMDL
MODEL 3
REMARK VINA RESULT:      -7.1      0.734      1.292
REMARK  Name = 
REMARK  14 active torsions:
REMARK  status: ('A' for Active; 'I' for Inactive)
REMARK    1  A    between atoms: C_1  and  C_2
REMARK    2  A    between atoms: C_2  and  C_3
REMARK    3  A    between atoms: C_3  and  C_4
REMARK    4  A    between atoms: C_3  and  C_5
REMARK    5  A    between atoms: C_5  and  N_6
REMARK    6  A    between atoms: C_5  and  C_7
REMARK    7  A    between atoms: N_9  and  C_10
REMARK    8  A    between atoms: C_10  and  C_11
REMARK    9  A    between atoms: N_13  and  C_14
REMARK   10  A    between atoms: C_16  and  C_17
REMARK   11  A    between atoms: N_19  and  O_20
REMARK   12  A    between atoms: N_21  and  S_22
REMARK   13  A    between atoms: S_22  and  C_25
REMARK   14  A    between atoms: C_28  and  C_29
REMARK                            x       y       z     vdW  Elec       q    Type
REMARK                         _______ _______ _______ _____ _____    ______ ____
ROOT
ATOM      1  C   UNL     1       2.648   6.156  19.163  0.00  0.00    +0.000 C 
ATOM      2  C   UNL     1       2.246   4.882  18.430  0.00  0.00    +0.000 C 
ATOM      3  C   UNL     1       3.265   3.844  18.903  0.00  0.00    +0.000 C 
ATOM      4  N   UNL     1       4.548   4.633  18.964  0.00  0.00    +0.000 NA
ATOM      5  C   UNL     1       4.127   5.953  19.548  0.00  0.00    +0.000 C 
ENDROOT
BRANCH   1   8
ATOM      6  C   UNL     1       1.805   8.467  18.882  0.00  0.00    +0.000 C 
ATOM      7  O   UNL     1       1.519   8.578  20.072  0.00  0.00    +0.000 OA
ATOM      8  N   UNL     1       2.377   7.329  18.346  0.00  0.00    +0.000 N 
ATOM      9  H   UNL     1       2.995   7.518  17.552  0.00  0.00    +0.000 HD
BRANCH   6  10
ATOM     10  C   UNL     1       1.591   9.598  17.861  0.00  0.00    +0.000 C 
BRANCH  10  13
ATOM     11  C   UNL     1       0.516  11.618  18.724  0.00  0.00    +0.000 C 
ATOM     12  O   UNL     1       1.575  11.963  19.253  0.00  0.00    +0.000 OA
ATOM     13  N   UNL     1       0.398  10.392  18.108  0.00  0.00    +0.000 N 
ATOM     14  H   UNL     1      -0.380  10.265  17.470  0.00  0.00    +0.000 HD
BRANCH  11  15
ATOM     15  C   UNL     1      -0.785  12.466  18.740  0.00  0.00    +0.000 C 
BRANCH  15  16
ATOM     16  N   UNL     1      -1.114  12.862  17.358  0.00  0.00    +0.000 NA
ATOM     17  H   UNL     1      -2.085  12.599  17.162  0.00  0.00    +0.000 HD
ATOM     18  H   UNL     1      -0.565  12.306  16.702  0.00  0.00    +0.000 HD
ENDBRANCH  15  16
BRANCH  15  19
ATOM     19  C   UNL     1      -1.971  11.771  19.463  0.00  0.00    +0.000 C 
ATOM     20  C   UNL     1      -3.065  11.443  18.431  0.00  0.00    +0.000 C 
BRANCH  19  22
ATOM     21  C   UNL     1      -3.976  12.985  20.554  0.00  0.00    +0.000 C 
ATOM     22  C   UNL     1      -2.521  12.554  20.682  0.00  0.00    +0.000 C 
ENDBRANCH  19  22
ENDBRANCH  15  19
ENDBRANCH  11  15
ENDBRANCH  10  13
ENDBRANCH   6  10
ENDBRANCH   1   8
BRANCH   3  23
ATOM     23  C   UNL     1       3.211   2.489  18.207  0.00  0.00    +0.000 C 
ATOM     24  O   UNL     1       2.377   2.258  17.329  0.00  0.00    +0.000 OA
ATOM     25  N   UNL     1       4.164   1.565  18.595  0.00  0.00    +0.000 N 
ATOM     26  H   UNL     1       5.081   1.880  18.893  0.00  0.00    +0.000 HD
BRANCH  25  27
ATOM     27  O   UNL     1       4.199   0.378  17.826  0.00  0.00    +0.000 OA
ATOM     28  H   UNL     1       4.020  -0.303  18.501  0.00  0.00    +0.000 HD
ENDBRANCH  25  27
ENDBRANCH   3  23
BRANCH   4  29
ATOM     29  S   UNL     1       5.486   4.790  17.526  0.00  0.00    +0.000 S 
ATOM     30  O   UNL     1       6.360   3.632  17.452  0.00  0.00    +0.000 OA
ATOM     31  O   UNL     1       4.594   5.109  16.439  0.00  0.00    +0.000 OA
BRANCH  29  32
ATOM     32  C   UNL     1       6.510   6.228  17.765  0.00  0.00    +0.000 A 
ATOM     33  C   UNL     1       6.150   7.447  17.192  0.00  0.00    +0.000 A 
ATOM     34  C   UNL     1       6.962   8.569  17.359  0.00  0.00    +0.000 A 
ATOM     35  C   UNL     1       8.113   8.497  18.153  0.00  0.00    +0.000 A 
ATOM     36  C   UNL     1       9.037   9.674  18.255  0.00  0.00    +0.000 C 
ATOM     37  C   UNL     1       8.386   7.312  18.846  0.00  0.00    +0.000 A 
ATOM     38  C   UNL     1       7.594   6.176  18.651  0.00  0.00    +0.000 A 
ENDBRANCH  29  32
ENDBRANCH   4  29
TORSDOF 11
ENDMDL
MODEL 4
REMARK VINA RESULT:      -7.0      3.362      7.272
REMARK  Name = 
REMARK  14 active torsions:
REMARK  status: ('A' for Active; 'I' for Inactive)
REMARK    1  A    between atoms: C_1  and  C_2
REMARK    2  A    between atoms: C_2  and  C_3
REMARK    3  A    between atoms: C_3  and  C_4
REMARK    4  A    between atoms: C_3  and  C_5
REMARK    5  A    between atoms: C_5  and  N_6
REMARK    6  A    between atoms: C_5  and  C_7
REMARK    7  A    between atoms: N_9  and  C_10
REMARK    8  A    between atoms: C_10  and  C_11
REMARK    9  A    between atoms: N_13  and  C_14
REMARK   10  A    between atoms: C_16  and  C_17
REMARK   11  A    between atoms: N_19  and  O_20
REMARK   12  A    between atoms: N_21  and  S_22
REMARK   13  A    between atoms: S_22  and  C_25
REMARK   14  A    between atoms: C_28  and  C_29
REMARK                            x       y       z     vdW  Elec       q    Type
REMARK                         _______ _______ _______ _____ _____    ______ ____
ROOT
ATOM      1  C   UNL     1       5.151   6.268  17.078  0.00  0.00    +0.000 C 
ATOM      2  C   UNL     1       5.117   4.825  17.563  0.00  0.00    +0.000 C 
ATOM      3  C   UNL     1       3.657   4.404  17.375  0.00  0.00    +0.000 C 
ATOM      4  N   UNL     1       2.895   5.641  17.776  0.00  0.00    +0.000 NA
ATOM      5  C   UNL     1       3.694   6.764  17.172  0.00  0.00    +0.000 C 
ENDROOT
BRANCH   1   8
ATOM      6  C   UNL     1       7.417   7.213  17.396  0.00  0.00    +0.000 C 
ATOM      7  O   UNL     1       7.832   6.752  16.336  0.00  0.00    +0.000 OA
ATOM      8  N   UNL     1       6.119   7.046  17.836  0.00  0.00    +0.000 N 
ATOM      9  H   UNL     1       5.774   7.829  18.399  0.00  0.00    +0.000 HD
BRANCH   6  10
ATOM     10  C   UNL     1       8.290   8.062  18.337  0.00  0.00    +0.000 C 
BRANCH  10  13
ATOM     11  C   UNL     1       9.065  10.348  18.735  0.00  0.00    +0.000 C 
ATOM     12  O   UNL     1       9.271  10.078  19.920  0.00  0.00    +0.000 OA
ATOM     13  N   UNL     1       8.464   9.437  17.895  0.00  0.00    +0.000 N 
ATOM     14  H   UNL     1       8.558   9.591  16.897  0.00  0.00    +0.000 HD
BRANCH  11  15
ATOM     15  C   UNL     1       9.391  11.718  18.082  0.00  0.00    +0.000 C 
BRANCH  15  16
ATOM     16  N   UNL     1       8.943  12.796  18.984  0.00  0.00    +0.000 NA
ATOM     17  H   UNL     1       9.758  13.175  19.475  0.00  0.00    +0.000 HD
ATOM     18  H   UNL     1       8.363  12.403  19.725  0.00  0.00    +0.000 HD
ENDBRANCH  15  16
BRANCH  15  19
ATOM     19  C   UNL     1      10.879  11.869  17.661  0.00  0.00    +0.000 C 
ATOM     20  C   UNL     1      11.763  11.826  18.921  0.00  0.00    +0.000 C 
BRANCH  19  22
ATOM     21  C   UNL     1      11.893  14.241  17.487  0.00  0.00    +0.000 C 
ATOM     22  C   UNL     1      11.168  13.106  16.775  0.00  0.00    +0.000 C 
ENDBRANCH  19  22
ENDBRANCH  15  19
ENDBRANCH  11  15
ENDBRANCH  10  13
ENDBRANCH   6  10
ENDBRANCH   1   8
BRANCH   3  23
ATOM     23  C   UNL     1       3.280   3.036  17.931  0.00  0.00    +0.000 C 
ATOM     24  O   UNL     1       4.123   2.311  18.461  0.00  0.00    +0.000 OA
ATOM     25  N   UNL     1       1.945   2.685  17.834  0.00  0.00    +0.000 N 
ATOM     26  H   UNL     1       1.230   3.403  17.882  0.00  0.00    +0.000 HD
BRANCH  25  27
ATOM     27  O   UNL     1       1.588   1.489  18.498  0.00  0.00    +0.000 OA
ATOM     28  H   UNL     1       1.921   1.654  19.400  0.00  0.00    +0.000 HD
ENDBRANCH  25  27
ENDBRANCH   3  23
BRANCH   4  29
ATOM     29  S   UNL     1       2.535   5.881  19.445  0.00  0.00    +0.000 S 
ATOM     30  O   UNL     1       1.472   4.954  19.794  0.00  0.00    +0.000 OA
ATOM     31  O   UNL     1       3.777   5.885  20.178  0.00  0.00    +0.000 OA
BRANCH  29  32
ATOM     32  C   UNL     1       1.878   7.532  19.571  0.00  0.00    +0.000 A 
ATOM     33  C   UNL     1       1.457   8.025  20.806  0.00  0.00    +0.000 A 
ATOM     34  C   UNL     1       0.923   9.310  20.904  0.00  0.00    +0.000 A 
ATOM     35  C   UNL     1       0.859  10.137  19.776  0.00  0.00    +0.000 A 
ATOM     36  C   UNL     1       0.198  11.480  19.859  0.00  0.00    +0.000 C 
ATOM     37  C   UNL     1       1.422   9.691  18.575  0.00  0.00    +0.000 A 
ATOM     38  C   UNL     1       1.925   8.391  18.465  0.00  0.00    +0.000 A 
ENDBRANCH  29  32
ENDBRANCH   4  29
TORSDOF 11
ENDMDL
MODEL 5
REMARK VINA RESULT:      -6.9      0.857      1.207
REMARK  Name = 
REMARK  14 active torsions:
REMARK  status: ('A' for Active; 'I' for Inactive)
REMARK    1  A    between atoms: C_1  and  C_2
REMARK    2  A    between atoms: C_2  and  C_3
REMARK    3  A    between atoms: C_3  and  C_4
REMARK    4  A    between atoms: C_3  and  C_5
REMARK    5  A    between atoms: C_5  and  N_6
REMARK    6  A    between atoms: C_5  and  C_7
REMARK    7  A    between atoms: N_9  and  C_10
REMARK    8  A    between atoms: C_10  and  C_11
REMARK    9  A    between atoms: N_13  and  C_14
REMARK   10  A    between atoms: C_16  and  C_17
REMARK   11  A    between atoms: N_19  and  O_20
REMARK   12  A    between atoms: N_21  and  S_22
REMARK   13  A    between atoms: S_22  and  C_25
REMARK   14  A    between atoms: C_28  and  C_29
REMARK                            x       y       z     vdW  Elec       q    Type
REMARK                         _______ _______ _______ _____ _____    ______ ____
ROOT
ATOM      1  C   UNL     1       2.619   6.140  19.156  0.00  0.00    +0.000 C 
ATOM      2  C   UNL     1       2.252   4.834  18.462  0.00  0.00    +0.000 C 
ATOM      3  C   UNL     1       3.300   3.839  18.964  0.00  0.00    +0.000 C 
ATOM      4  N   UNL     1       4.560   4.665  18.999  0.00  0.00    +0.000 NA
ATOM      5  C   UNL     1       4.103   5.990  19.545  0.00  0.00    +0.000 C 
ENDROOT
BRANCH   1   8
ATOM      6  C   UNL     1       1.787   8.448  18.823  0.00  0.00    +0.000 C 
ATOM      7  O   UNL     1       1.572   8.615  20.021  0.00  0.00    +0.000 OA
ATOM      8  N   UNL     1       2.314   7.280  18.306  0.00  0.00    +0.000 N 
ATOM      9  H   UNL     1       2.887   7.426  17.470  0.00  0.00    +0.000 HD
BRANCH   6  10
ATOM     10  C   UNL     1       1.528   9.536  17.767  0.00  0.00    +0.000 C 
BRANCH  10  13
ATOM     11  C   UNL     1      -0.298  11.008  18.463  0.00  0.00    +0.000 C 
ATOM     12  O   UNL     1      -1.117  10.251  17.939  0.00  0.00    +0.000 OA
ATOM     13  N   UNL     1       1.056  10.794  18.325  0.00  0.00    +0.000 N 
ATOM     14  H   UNL     1       1.670  11.268  18.977  0.00  0.00    +0.000 HD
BRANCH  11  15
ATOM     15  C   UNL     1      -0.676  12.284  19.264  0.00  0.00    +0.000 C 
BRANCH  15  16
ATOM     16  N   UNL     1      -1.162  13.311  18.323  0.00  0.00    +0.000 NA
ATOM     17  H   UNL     1      -0.453  14.046  18.242  0.00  0.00    +0.000 HD
ATOM     18  H   UNL     1      -1.972  13.785  18.723  0.00  0.00    +0.000 HD
ENDBRANCH  15  16
BRANCH  15  19
ATOM     19  C   UNL     1      -1.673  12.016  20.426  0.00  0.00    +0.000 C 
ATOM     20  C   UNL     1      -3.047  12.601  20.054  0.00  0.00    +0.000 C 
BRANCH  19  22
ATOM     21  C   UNL     1      -1.760  11.735  22.995  0.00  0.00    +0.000 C 
ATOM     22  C   UNL     1      -1.178  12.499  21.812  0.00  0.00    +0.000 C 
ENDBRANCH  19  22
ENDBRANCH  15  19
ENDBRANCH  11  15
ENDBRANCH  10  13
ENDBRANCH   6  10
ENDBRANCH   1   8
BRANCH   3  23
ATOM     23  C   UNL     1       3.282   2.463  18.309  0.00  0.00    +0.000 C 
ATOM     24  O   UNL     1       2.485   2.198  17.408  0.00  0.00    +0.000 OA
ATOM     25  N   UNL     1       4.227   1.560  18.761  0.00  0.00    +0.000 N 
ATOM     26  H   UNL     1       5.130   1.892  19.084  0.00  0.00    +0.000 HD
BRANCH  25  27
ATOM     27  O   UNL     1       4.301   0.350  18.032  0.00  0.00    +0.000 OA
ATOM     28  H   UNL     1       3.842  -0.271  18.628  0.00  0.00    +0.000 HD
ENDBRANCH  25  27
ENDBRANCH   3  23
BRANCH   4  29
ATOM     29  S   UNL     1       5.492   4.805  17.555  0.00  0.00    +0.000 S 
ATOM     30  O   UNL     1       6.369   3.649  17.493  0.00  0.00    +0.000 OA
ATOM     31  O   UNL     1       4.594   5.107  16.468  0.00  0.00    +0.000 OA
BRANCH  29  32
ATOM     32  C   UNL     1       6.513   6.249  17.771  0.00  0.00    +0.000 A 
ATOM     33  C   UNL     1       6.140   7.462  17.193  0.00  0.00    +0.000 A 
ATOM     34  C   UNL     1       6.950   8.589  17.342  0.00  0.00    +0.000 A 
ATOM     35  C   UNL     1       8.112   8.528  18.121  0.00  0.00    +0.000 A 
ATOM     36  C   UNL     1       9.031   9.709  18.203  0.00  0.00    +0.000 C 
ATOM     37  C   UNL     1       8.398   7.349  18.819  0.00  0.00    +0.000 A 
ATOM     38  C   UNL     1       7.609   6.208  18.643  0.00  0.00    +0.000 A 
ENDBRANCH  29  32
ENDBRANCH   4  29
TORSDOF 11
ENDMDL
MODEL 6
REMARK VINA RESULT:      -6.9      1.582      2.066
REMARK  Name = 
REMARK  14 active torsions:
REMARK  status: ('A' for Active; 'I' for Inactive)
REMARK    1  A    between atoms: C_1  and  C_2
REMARK    2  A    between atoms: C_2  and  C_3
REMARK    3  A    between atoms: C_3  and  C_4
REMARK    4  A    between atoms: C_3  and  C_5
REMARK    5  A    between atoms: C_5  and  N_6
REMARK    6  A    between atoms: C_5  and  C_7
REMARK    7  A    between atoms: N_9  and  C_10
REMARK    8  A    between atoms: C_10  and  C_11
REMARK    9  A    between atoms: N_13  and  C_14
REMARK   10  A    between atoms: C_16  and  C_17
REMARK   11  A    between atoms: N_19  and  O_20
REMARK   12  A    between atoms: N_21  and  S_22
REMARK   13  A    between atoms: S_22  and  C_25
REMARK   14  A    between atoms: C_28  and  C_29
REMARK                            x       y       z     vdW  Elec       q    Type
REMARK                         _______ _______ _______ _____ _____    ______ ____
ROOT
ATOM      1  C   UNL     1       2.587   6.006  19.604  0.00  0.00    +0.000 C 
ATOM      2  C   UNL     1       2.164   4.771  18.819  0.00  0.00    +0.000 C 
ATOM      3  C   UNL     1       3.282   3.760  19.086  0.00  0.00    +0.000 C 
ATOM      4  N   UNL     1       4.522   4.615  19.065  0.00  0.00    +0.000 NA
ATOM      5  C   UNL     1       4.109   5.861  19.801  0.00  0.00    +0.000 C 
ENDROOT
BRANCH   1   8
ATOM      6  C   UNL     1       1.662   8.303  19.621  0.00  0.00    +0.000 C 
ATOM      7  O   UNL     1       1.568   8.328  20.846  0.00  0.00    +0.000 OA
ATOM      8  N   UNL     1       2.164   7.221  18.924  0.00  0.00    +0.000 N 
ATOM      9  H   UNL     1       2.643   7.480  18.057  0.00  0.00    +0.000 HD
BRANCH   6  10
ATOM     10  C   UNL     1       1.265   9.490  18.727  0.00  0.00    +0.000 C 
BRANCH  10  13
ATOM     11  C   UNL     1      -0.353  11.325  18.698  0.00  0.00    +0.000 C 
ATOM     12  O   UNL     1       0.541  12.115  18.385  0.00  0.00    +0.000 OA
ATOM     13  N   UNL     1      -0.063  10.014  19.006  0.00  0.00    +0.000 N 
ATOM     14  H   UNL     1      -0.832   9.353  18.993  0.00  0.00    +0.000 HD
BRANCH  11  15
ATOM     15  C   UNL     1      -1.850  11.711  18.837  0.00  0.00    +0.000 C 
BRANCH  15  16
ATOM     16  N   UNL     1      -1.943  13.076  19.387  0.00  0.00    +0.000 NA
ATOM     17  H   UNL     1      -1.964  13.019  20.410  0.00  0.00    +0.000 HD
ATOM     18  H   UNL     1      -2.843  13.485  19.138  0.00  0.00    +0.000 HD
ENDBRANCH  15  16
BRANCH  15  19
ATOM     19  C   UNL     1      -2.661  11.538  17.522  0.00  0.00    +0.000 C 
ATOM     20  C   UNL     1      -4.138  11.285  17.874  0.00  0.00    +0.000 C 
BRANCH  19  22
ATOM     21  C   UNL     1      -3.125   9.805  15.661  0.00  0.00    +0.000 C 
ATOM     22  C   UNL     1      -2.089  10.470  16.557  0.00  0.00    +0.000 C 
ENDBRANCH  19  22
ENDBRANCH  15  19
ENDBRANCH  11  15
ENDBRANCH  10  13
ENDBRANCH   6  10
ENDBRANCH   1   8
BRANCH   3  23
ATOM     23  C   UNL     1       3.211   2.462  18.291  0.00  0.00    +0.000 C 
ATOM     24  O   UNL     1       2.358   2.296  17.418  0.00  0.00    +0.000 OA
ATOM     25  N   UNL     1       4.173   1.512  18.586  0.00  0.00    +0.000 N 
ATOM     26  H   UNL     1       5.097   1.806  18.887  0.00  0.00    +0.000 HD
BRANCH  25  27
ATOM     27  O   UNL     1       4.191   0.387  17.730  0.00  0.00    +0.000 OA
ATOM     28  H   UNL     1       4.093   0.802  16.853  0.00  0.00    +0.000 HD
ENDBRANCH  25  27
ENDBRANCH   3  23
BRANCH   4  29
ATOM     29  S   UNL     1       5.275   4.937  17.548  0.00  0.00    +0.000 S 
ATOM     30  O   UNL     1       6.061   3.766  17.200  0.00  0.00    +0.000 OA
ATOM     31  O   UNL     1       4.271   5.443  16.646  0.00  0.00    +0.000 OA
BRANCH  29  32
ATOM     32  C   UNL     1       6.406   6.282  17.838  0.00  0.00    +0.000 A 
ATOM     33  C   UNL     1       7.544   6.083  18.618  0.00  0.00    +0.000 A 
ATOM     34  C   UNL     1       8.420   7.141  18.865  0.00  0.00    +0.000 A 
ATOM     35  C   UNL     1       8.197   8.395  18.283  0.00  0.00    +0.000 A 
ATOM     36  C   UNL     1       9.082   9.556  18.624  0.00  0.00    +0.000 C 
ATOM     37  C   UNL     1       7.137   8.545  17.381  0.00  0.00    +0.000 A 
ATOM     38  C   UNL     1       6.237   7.497  17.161  0.00  0.00    +0.000 A 
ENDBRANCH  29  32
ENDBRANCH   4  29
TORSDOF 11
ENDMDL
MODEL 7
REMARK VINA RESULT:      -6.8      3.359      6.851
REMARK  Name = 
REMARK  14 active torsions:
REMARK  status: ('A' for Active; 'I' for Inactive)
REMARK    1  A    between atoms: C_1  and  C_2
REMARK    2  A    between atoms: C_2  and  C_3
REMARK    3  A    between atoms: C_3  and  C_4
REMARK    4  A    between atoms: C_3  and  C_5
REMARK    5  A    between atoms: C_5  and  N_6
REMARK    6  A    between atoms: C_5  and  C_7
REMARK    7  A    between atoms: N_9  and  C_10
REMARK    8  A    between atoms: C_10  and  C_11
REMARK    9  A    between atoms: N_13  and  C_14
REMARK   10  A    between atoms: C_16  and  C_17
REMARK   11  A    between atoms: N_19  and  O_20
REMARK   12  A    between atoms: N_21  and  S_22
REMARK   13  A    between atoms: S_22  and  C_25
REMARK   14  A    between atoms: C_28  and  C_29
REMARK                            x       y       z     vdW  Elec       q    Type
REMARK                         _______ _______ _______ _____ _____    ______ ____
ROOT
ATOM      1  C   UNL     1       5.651   6.113  17.155  0.00  0.00    +0.000 C 
ATOM      2  C   UNL     1       5.552   4.664  17.616  0.00  0.00    +0.000 C 
ATOM      3  C   UNL     1       4.138   4.241  17.214  0.00  0.00    +0.000 C 
ATOM      4  N   UNL     1       3.320   5.472  17.510  0.00  0.00    +0.000 NA
ATOM      5  C   UNL     1       4.194   6.603  17.040  0.00  0.00    +0.000 C 
ENDROOT
BRANCH   1   8
ATOM      6  C   UNL     1       7.672   7.465  17.623  0.00  0.00    +0.000 C 
ATOM      7  O   UNL     1       8.068   7.397  16.462  0.00  0.00    +0.000 OA
ATOM      8  N   UNL     1       6.494   6.885  18.054  0.00  0.00    +0.000 N 
ATOM      9  H   UNL     1       6.043   7.397  18.818  0.00  0.00    +0.000 HD
BRANCH   6  10
ATOM     10  C   UNL     1       8.426   8.236  18.720  0.00  0.00    +0.000 C 
BRANCH  10  13
ATOM     11  C   UNL     1       9.331  10.450  19.231  0.00  0.00    +0.000 C 
ATOM     12  O   UNL     1       9.088  10.280  20.428  0.00  0.00    +0.000 OA
ATOM     13  N   UNL     1       8.925   9.532  18.288  0.00  0.00    +0.000 N 
ATOM     14  H   UNL     1       9.369   9.574  17.377  0.00  0.00    +0.000 HD
BRANCH  11  15
ATOM     15  C   UNL     1      10.042  11.704  18.654  0.00  0.00    +0.000 C 
BRANCH  15  16
ATOM     16  N   UNL     1      10.695  11.341  17.383  0.00  0.00    +0.000 NA
ATOM     17  H   UNL     1      10.882  12.197  16.851  0.00  0.00    +0.000 HD
ATOM     18  H   UNL     1      10.041  10.819  16.799  0.00  0.00    +0.000 HD
ENDBRANCH  15  16
BRANCH  15  19
ATOM     19  C   UNL     1       9.109  12.940  18.517  0.00  0.00    +0.000 C 
ATOM     20  C   UNL     1       8.117  12.694  17.367  0.00  0.00    +0.000 C 
BRANCH  19  22
ATOM     21  C   UNL     1      10.290  14.915  19.697  0.00  0.00    +0.000 C 
ATOM     22  C   UNL     1       9.858  14.289  18.377  0.00  0.00    +0.000 C 
ENDBRANCH  19  22
ENDBRANCH  15  19
ENDBRANCH  11  15
ENDBRANCH  10  13
ENDBRANCH   6  10
ENDBRANCH   1   8
BRANCH   3  23
ATOM     23  C   UNL     1       3.689   2.867  17.695  0.00  0.00    +0.000 C 
ATOM     24  O   UNL     1       2.615   2.385  17.331  0.00  0.00    +0.000 OA
ATOM     25  N   UNL     1       4.568   2.194  18.525  0.00  0.00    +0.000 N 
ATOM     26  H   UNL     1       5.568   2.328  18.416  0.00  0.00    +0.000 HD
BRANCH  25  27
ATOM     27  O   UNL     1       4.208   0.860  18.827  0.00  0.00    +0.000 OA
ATOM     28  H   UNL     1       4.454   0.795  19.769  0.00  0.00    +0.000 HD
ENDBRANCH  25  27
ENDBRANCH   3  23
BRANCH   4  29
ATOM     29  S   UNL     1       2.719   5.694  19.111  0.00  0.00    +0.000 S 
ATOM     30  O   UNL     1       1.594   4.790  19.278  0.00  0.00    +0.000 OA
ATOM     31  O   UNL     1       3.836   5.654  20.021  0.00  0.00    +0.000 OA
BRANCH  29  32
ATOM     32  C   UNL     1       2.090   7.360  19.171  0.00  0.00    +0.000 A 
ATOM     33  C   UNL     1       1.926   8.088  17.993  0.00  0.00    +0.000 A 
ATOM     34  C   UNL     1       1.454   9.401  18.040  0.00  0.00    +0.000 A 
ATOM     35  C   UNL     1       1.086   9.977  19.261  0.00  0.00    +0.000 A 
ATOM     36  C   UNL     1       0.671  11.417  19.324  0.00  0.00    +0.000 C 
ATOM     37  C   UNL     1       1.111   9.190  20.418  0.00  0.00    +0.000 A 
ATOM     38  C   UNL     1       1.618   7.887  20.380  0.00  0.00    +0.000 A 
ENDBRANCH  29  32
ENDBRANCH   4  29
TORSDOF 11
ENDMDL
MODEL 8
REMARK VINA RESULT:      -6.7      3.577      8.067
REMARK  Name = 
REMARK  14 active torsions:
REMARK  status: ('A' for Active; 'I' for Inactive)
REMARK    1  A    between atoms: C_1  and  C_2
REMARK    2  A    between atoms: C_2  and  C_3
REMARK    3  A    between atoms: C_3  and  C_4
REMARK    4  A    between atoms: C_3  and  C_5
REMARK    5  A    between atoms: C_5  and  N_6
REMARK    6  A    between atoms: C_5  and  C_7
REMARK    7  A    between atoms: N_9  and  C_10
REMARK    8  A    between atoms: C_10  and  C_11
REMARK    9  A    between atoms: N_13  and  C_14
REMARK   10  A    between atoms: C_16  and  C_17
REMARK   11  A    between atoms: N_19  and  O_20
REMARK   12  A    between atoms: N_21  and  S_22
REMARK   13  A    between atoms: S_22  and  C_25
REMARK   14  A    between atoms: C_28  and  C_29
REMARK                            x       y       z     vdW  Elec       q    Type
REMARK                         _______ _______ _______ _____ _____    ______ ____
ROOT
ATOM      1  C   UNL     1       3.600   3.553  17.373  0.00  0.00    +0.000 C 
ATOM      2  C   UNL     1       3.662   2.803  18.697  0.00  0.00    +0.000 C 
ATOM      3  C   UNL     1       2.339   3.151  19.383  0.00  0.00    +0.000 C 
ATOM      4  N   UNL     1       2.148   4.604  19.033  0.00  0.00    +0.000 NA
ATOM      5  C   UNL     1       2.574   4.683  17.592  0.00  0.00    +0.000 C 
ENDROOT
BRANCH   1   8
ATOM      6  C   UNL     1       5.956   4.125  17.875  0.00  0.00    +0.000 C 
ATOM      7  O   UNL     1       5.837   3.857  19.068  0.00  0.00    +0.000 OA
ATOM      8  N   UNL     1       4.926   3.992  16.964  0.00  0.00    +0.000 N 
ATOM      9  H   UNL     1       5.243   3.755  16.020  0.00  0.00    +0.000 HD
BRANCH   6  10
ATOM     10  C   UNL     1       7.279   4.606  17.253  0.00  0.00    +0.000 C 
BRANCH  10  13
ATOM     11  C   UNL     1       6.773   5.421  15.003  0.00  0.00    +0.000 C 
ATOM     12  O   UNL     1       6.047   6.298  15.478  0.00  0.00    +0.000 OA
ATOM     13  N   UNL     1       7.336   4.455  15.807  0.00  0.00    +0.000 N 
ATOM     14  H   UNL     1       8.119   3.934  15.429  0.00  0.00    +0.000 HD
BRANCH  11  15
ATOM     15  C   UNL     1       7.081   5.268  13.489  0.00  0.00    +0.000 C 
BRANCH  15  16
ATOM     16  N   UNL     1       8.508   5.560  13.259  0.00  0.00    +0.000 NA
ATOM     17  H   UNL     1       8.593   6.158  12.431  0.00  0.00    +0.000 HD
ATOM     18  H   UNL     1       8.996   4.702  13.002  0.00  0.00    +0.000 HD
ENDBRANCH  15  16
BRANCH  15  19
ATOM     19  C   UNL     1       6.649   3.894  12.903  0.00  0.00    +0.000 C 
ATOM     20  C   UNL     1       7.258   3.734  11.499  0.00  0.00    +0.000 C 
BRANCH  19  22
ATOM     21  C   UNL     1       4.539   3.185  11.588  0.00  0.00    +0.000 C 
ATOM     22  C   UNL     1       5.119   3.649  12.917  0.00  0.00    +0.000 C 
ENDBRANCH  19  22
ENDBRANCH  15  19
ENDBRANCH  11  15
ENDBRANCH  10  13
ENDBRANCH   6  10
ENDBRANCH   1   8
BRANCH   3  23
ATOM     23  C   UNL     1       2.182   2.663  20.818  0.00  0.00    +0.000 C 
ATOM     24  O   UNL     1       3.154   2.267  21.464  0.00  0.00    +0.000 OA
ATOM     25  N   UNL     1       0.907   2.727  21.349  0.00  0.00    +0.000 N 
ATOM     26  H   UNL     1       0.272   3.461  21.052  0.00  0.00    +0.000 HD
BRANCH  25  27
ATOM     27  O   UNL     1       0.813   2.424  22.727  0.00  0.00    +0.000 OA
ATOM     28  H   UNL     1       1.079   1.486  22.745  0.00  0.00    +0.000 HD
ENDBRANCH  25  27
ENDBRANCH   3  23
BRANCH   4  29
ATOM     29  S   UNL     1       2.894   5.795  20.032  0.00  0.00    +0.000 S 
ATOM     30  O   UNL     1       2.543   5.486  21.407  0.00  0.00    +0.000 OA
ATOM     31  O   UNL     1       4.275   5.916  19.635  0.00  0.00    +0.000 OA
BRANCH  29  32
ATOM     32  C   UNL     1       2.119   7.343  19.609  0.00  0.00    +0.000 A 
ATOM     33  C   UNL     1       2.156   7.807  18.295  0.00  0.00    +0.000 A 
ATOM     34  C   UNL     1       1.569   9.030  17.966  0.00  0.00    +0.000 A 
ATOM     35  C   UNL     1       0.887   9.772  18.938  0.00  0.00    +0.000 A 
ATOM     36  C   UNL     1       0.339  11.128  18.609  0.00  0.00    +0.000 C 
ATOM     37  C   UNL     1       0.725   9.227  20.217  0.00  0.00    +0.000 A 
ATOM     38  C   UNL     1       1.343   8.020  20.559  0.00  0.00    +0.000 A 
ENDBRANCH  29  32
ENDBRANCH   4  29
TORSDOF 11
ENDMDL
MODEL 9
REMARK VINA RESULT:      -6.6      5.880      8.213
REMARK  Name = 
REMARK  14 active torsions:
REMARK  status: ('A' for Active; 'I' for Inactive)
REMARK    1  A    between atoms: C_1  and  C_2
REMARK    2  A    between atoms: C_2  and  C_3
REMARK    3  A    between atoms: C_3  and  C_4
REMARK    4  A    between atoms: C_3  and  C_5
REMARK    5  A    between atoms: C_5  and  N_6
REMARK    6  A    between atoms: C_5  and  C_7
REMARK    7  A    between atoms: N_9  and  C_10
REMARK    8  A    between atoms: C_10  and  C_11
REMARK    9  A    between atoms: N_13  and  C_14
REMARK   10  A    between atoms: C_16  and  C_17
REMARK   11  A    between atoms: N_19  and  O_20
REMARK   12  A    between atoms: N_21  and  S_22
REMARK   13  A    between atoms: S_22  and  C_25
REMARK   14  A    between atoms: C_28  and  C_29
REMARK                            x       y       z     vdW  Elec       q    Type
REMARK                         _______ _______ _______ _____ _____    ______ ____
ROOT
ATOM      1  C   UNL     1      -1.817  12.232  23.294  0.00  0.00    +0.000 C 
ATOM      2  C   UNL     1      -1.695  10.735  23.040  0.00  0.00    +0.000 C 
ATOM      3  C   UNL     1      -0.223  10.539  22.672  0.00  0.00    +0.000 C 
ATOM      4  N   UNL     1       0.078  11.752  21.829  0.00  0.00    +0.000 NA
ATOM      5  C   UNL     1      -0.629  12.869  22.546  0.00  0.00    +0.000 C 
ENDROOT
BRANCH   1   8
ATOM      6  C   UNL     1      -4.245  12.521  23.689  0.00  0.00    +0.000 C 
ATOM      7  O   UNL     1      -4.202  11.959  24.780  0.00  0.00    +0.000 OA
ATOM      8  N   UNL     1      -3.130  12.718  22.897  0.00  0.00    +0.000 N 
ATOM      9  H   UNL     1      -3.178  13.569  22.328  0.00  0.00    +0.000 HD
BRANCH   6  10
ATOM     10  C   UNL     1      -5.541  13.102  23.097  0.00  0.00    +0.000 C 
BRANCH  10  13
ATOM     11  C   UNL     1      -5.576  12.756  20.676  0.00  0.00    +0.000 C 
ATOM     12  O   UNL     1      -4.944  13.802  20.511  0.00  0.00    +0.000 OA
ATOM     13  N   UNL     1      -6.022  12.387  21.926  0.00  0.00    +0.000 N 
ATOM     14  H   UNL     1      -6.292  11.418  22.056  0.00  0.00    +0.000 HD
BRANCH  11  15
ATOM     15  C   UNL     1      -5.984  11.792  19.529  0.00  0.00    +0.000 C 
BRANCH  15  16
ATOM     16  N   UNL     1      -7.451  11.822  19.379  0.00  0.00    +0.000 NA
ATOM     17  H   UNL     1      -7.852  11.035  19.899  0.00  0.00    +0.000 HD
ATOM     18  H   UNL     1      -7.700  11.635  18.407  0.00  0.00    +0.000 HD
ENDBRANCH  15  16
BRANCH  15  19
ATOM     19  C   UNL     1      -5.240  12.066  18.192  0.00  0.00    +0.000 C 
ATOM     20  C   UNL     1      -6.234  12.656  17.176  0.00  0.00    +0.000 C 
BRANCH  19  22
ATOM     21  C   UNL     1      -3.919  11.035  16.223  0.00  0.00    +0.000 C 
ATOM     22  C   UNL     1      -4.471  10.845  17.630  0.00  0.00    +0.000 C 
ENDBRANCH  19  22
ENDBRANCH  15  19
ENDBRANCH  11  15
ENDBRANCH  10  13
ENDBRANCH   6  10
ENDBRANCH   1   8
BRANCH   3  23
ATOM     23  C   UNL     1       0.169   9.143  22.204  0.00  0.00    +0.000 C 
ATOM     24  O   UNL     1      -0.683   8.273  22.016  0.00  0.00    +0.000 OA
ATOM     25  N   UNL     1       1.516   8.931  21.975  0.00  0.00    +0.000 N 
ATOM     26  H   UNL     1       2.099   9.695  21.647  0.00  0.00    +0.000 HD
BRANCH  25  27
ATOM     27  O   UNL     1       1.839   7.686  21.388  0.00  0.00    +0.000 OA
ATOM     28  H   UNL     1       2.803   7.767  21.263  0.00  0.00    +0.000 HD
ENDBRANCH  25  27
ENDBRANCH   3  23
BRANCH   4  29
ATOM     29  S   UNL     1      -0.275  11.691  20.143  0.00  0.00    +0.000 S 
ATOM     30  O   UNL     1       0.081  10.363  19.676  0.00  0.00    +0.000 OA
ATOM     31  O   UNL     1      -1.606  12.209  19.943  0.00  0.00    +0.000 OA
BRANCH  29  32
ATOM     32  C   UNL     1       0.831  12.853  19.369  0.00  0.00    +0.000 A 
ATOM     33  C   UNL     1       0.578  14.222  19.452  0.00  0.00    +0.000 A 
ATOM     34  C   UNL     1       1.431  15.133  18.828  0.00  0.00    +0.000 A 
ATOM     35  C   UNL     1       2.579  14.686  18.164  0.00  0.00    +0.000 A 
ATOM     36  C   UNL     1       3.443  15.654  17.412  0.00  0.00    +0.000 C 
ATOM     37  C   UNL     1       2.906  13.326  18.214  0.00  0.00    +0.000 A 
ATOM     38  C   UNL     1       2.034  12.407  18.807  0.00  0.00    +0.000 A 
ENDBRANCH  29  32
ENDBRANCH   4  29
TORSDOF 11
ENDMDL
