MODEL 1
REMARK VINA RESULT:      -7.9      0.000      0.000
REMARK  Name = 
REMARK  2 active torsions:
REMARK  status: ('A' for Active; 'I' for Inactive)
REMARK    1  A    between atoms: N_5  and  C_6
REMARK    2  A    between atoms: C_6  and  C_7
REMARK                            x       y       z     vdW  Elec       q    Type
REMARK                         _______ _______ _______ _____ _____    ______ ____
ROOT
ATOM      1  O   UNL     1       1.222   6.904  20.822  0.00  0.00    +0.000 OA
ATOM      2  C   UNL     1       1.820   6.165  20.077  0.00  0.00    +0.000 C 
ATOM      3  C   UNL     1       2.734   6.561  18.903  0.00  0.00    +0.000 C 
ATOM      4  O   UNL     1       2.956   7.698  18.552  0.00  0.00    +0.000 OA
ATOM      5  N   UNL     1       3.189   5.363  18.366  0.00  0.00    +0.000 N 
ATOM      6  C   UNL     1       2.645   4.253  19.058  0.00  0.00    +0.000 A 
ATOM      7  C   UNL     1       2.783   2.881  18.882  0.00  0.00    +0.000 A 
ATOM      8 CL   UNL     1       3.716   2.146  17.639  0.00  0.00    +0.000 Cl
ATOM      9  C   UNL     1       2.104   2.016  19.760  0.00  0.00    +0.000 A 
ATOM     10  C   UNL     1       1.294   2.508  20.799  0.00  0.00    +0.000 A 
ATOM     11  C   UNL     1       1.146   3.877  20.978  0.00  0.00    +0.000 A 
ATOM     12  C   UNL     1       1.824   4.706  20.100  0.00  0.00    +0.000 A 
ENDROOT
BRANCH   5  13
ATOM     13  C   UNL     1       4.129   5.337  17.266  0.00  0.00    +0.000 C 
BRANCH  13  14
ATOM     14  C   UNL     1       5.493   5.915  17.568  0.00  0.00    +0.000 A 
ATOM     15  C   UNL     1       5.961   7.104  16.985  0.00  0.00    +0.000 A 
ATOM     16  C   UNL     1       7.164   7.674  17.407  0.00  0.00    +0.000 A 
ATOM     17  C   UNL     1       7.902   7.064  18.415  0.00  0.00    +0.000 A 
ATOM     18  F   UNL     1       9.036   7.636  18.839  0.00  0.00    +0.000 F 
ATOM     19  C   UNL     1       7.470   5.884  18.999  0.00  0.00    +0.000 A 
ATOM     20  C   UNL     1       6.271   5.323  18.573  0.00  0.00    +0.000 A 
ATOM     21  F   UNL     1       5.843   4.200  19.168  0.00  0.00    +0.000 F 
ENDBRANCH  13  14
ENDBRANCH   5  13
TORSDOF 2
ENDMDL
MODEL 2
REMARK VINA RESULT:      -7.6      2.426      2.965
REMARK  Name = 
REMARK  2 active torsions:
REMARK  status: ('A' for Active; 'I' for Inactive)
REMARK    1  A    between atoms: N_5  and  C_6
REMARK    2  A    between atoms: C_6  and  C_7
REMARK                            x       y       z     vdW  Elec       q    Type
REMARK                         _______ _______ _______ _____ _____    ______ ____
ROOT
ATOM      1  O   UNL     1       2.018   7.473  19.155  0.00  0.00    +0.000 OA
ATOM      2  C   UNL     1       2.711   6.483  19.156  0.00  0.00    +0.000 C 
ATOM      3  C   UNL     1       4.077   6.298  18.468  0.00  0.00    +0.000 C 
ATOM      4  O   UNL     1       4.633   7.139  17.797  0.00  0.00    +0.000 OA
ATOM      5  N   UNL     1       4.471   5.000  18.769  0.00  0.00    +0.000 N 
ATOM      6  C   UNL     1       3.494   4.337  19.552  0.00  0.00    +0.000 A 
ATOM      7  C   UNL     1       3.427   3.050  20.071  0.00  0.00    +0.000 A 
ATOM      8 CL   UNL     1       4.621   1.836  19.828  0.00  0.00    +0.000 Cl
ATOM      9  C   UNL     1       2.302   2.687  20.834  0.00  0.00    +0.000 A 
ATOM     10  C   UNL     1       1.254   3.593  21.077  0.00  0.00    +0.000 A 
ATOM     11  C   UNL     1       1.310   4.880  20.558  0.00  0.00    +0.000 A 
ATOM     12  C   UNL     1       2.428   5.210  19.810  0.00  0.00    +0.000 A 
ENDROOT
BRANCH   5  13
ATOM     13  C   UNL     1       5.749   4.479  18.333  0.00  0.00    +0.000 C 
BRANCH  13  14
ATOM     14  C   UNL     1       6.000   4.547  16.844  0.00  0.00    +0.000 A 
ATOM     15  C   UNL     1       7.193   5.046  16.295  0.00  0.00    +0.000 A 
ATOM     16  C   UNL     1       7.435   4.951  14.923  0.00  0.00    +0.000 A 
ATOM     17  C   UNL     1       6.492   4.353  14.094  0.00  0.00    +0.000 A 
ATOM     18  F   UNL     1       6.749   4.234  12.785  0.00  0.00    +0.000 F 
ATOM     19  C   UNL     1       5.302   3.864  14.607  0.00  0.00    +0.000 A 
ATOM     20  C   UNL     1       5.068   3.962  15.974  0.00  0.00    +0.000 A 
ATOM     21  F   UNL     1       3.929   3.454  16.466  0.00  0.00    +0.000 F 
ENDBRANCH  13  14
ENDBRANCH   5  13
TORSDOF 2
ENDMDL
MODEL 3
REMARK VINA RESULT:      -7.5      2.388      3.014
REMARK  Name = 
REMARK  2 active torsions:
REMARK  status: ('A' for Active; 'I' for Inactive)
REMARK    1  A    between atoms: N_5  and  C_6
REMARK    2  A    between atoms: C_6  and  C_7
REMARK                            x       y       z     vdW  Elec       q    Type
REMARK                         _______ _______ _______ _____ _____    ______ ____
ROOT
ATOM      1  O   UNL     1       1.893   7.447  18.665  0.00  0.00    +0.000 OA
ATOM      2  C   UNL     1       2.626   6.495  18.795  0.00  0.00    +0.000 C 
ATOM      3  C   UNL     1       4.056   6.335  18.245  0.00  0.00    +0.000 C 
ATOM      4  O   UNL     1       4.634   7.157  17.570  0.00  0.00    +0.000 OA
ATOM      5  N   UNL     1       4.477   5.079  18.667  0.00  0.00    +0.000 N 
ATOM      6  C   UNL     1       3.462   4.420  19.403  0.00  0.00    +0.000 A 
ATOM      7  C   UNL     1       3.403   3.166  20.000  0.00  0.00    +0.000 A 
ATOM      8 CL   UNL     1       4.666   2.001  19.947  0.00  0.00    +0.000 Cl
ATOM      9  C   UNL     1       2.230   2.798  20.683  0.00  0.00    +0.000 A 
ATOM     10  C   UNL     1       1.126   3.664  20.770  0.00  0.00    +0.000 A 
ATOM     11  C   UNL     1       1.173   4.917  20.172  0.00  0.00    +0.000 A 
ATOM     12  C   UNL     1       2.340   5.254  19.505  0.00  0.00    +0.000 A 
ENDROOT
BRANCH   5  13
ATOM     13  C   UNL     1       5.811   4.595  18.383  0.00  0.00    +0.000 C 
BRANCH  13  14
ATOM     14  C   UNL     1       6.136   4.422  16.917  0.00  0.00    +0.000 A 
ATOM     15  C   UNL     1       5.418   3.555  16.075  0.00  0.00    +0.000 A 
ATOM     16  C   UNL     1       5.661   3.540  14.700  0.00  0.00    +0.000 A 
ATOM     17  C   UNL     1       6.616   4.393  14.157  0.00  0.00    +0.000 A 
ATOM     18  F   UNL     1       6.816   4.398  12.833  0.00  0.00    +0.000 F 
ATOM     19  C   UNL     1       7.347   5.249  14.965  0.00  0.00    +0.000 A 
ATOM     20  C   UNL     1       7.099   5.258  16.334  0.00  0.00    +0.000 A 
ATOM     21  F   UNL     1       7.787   6.114  17.102  0.00  0.00    +0.000 F 
ENDBRANCH  13  14
ENDBRANCH   5  13
TORSDOF 2
ENDMDL
MODEL 4
REMARK VINA RESULT:      -7.2      1.457      1.789
REMARK  Name = 
REMARK  2 active torsions:
REMARK  status: ('A' for Active; 'I' for Inactive)
REMARK    1  A    between atoms: N_5  and  C_6
REMARK    2  A    between atoms: C_6  and  C_7
REMARK                            x       y       z     vdW  Elec       q    Type
REMARK                         _______ _______ _______ _____ _____    ______ ____
ROOT
ATOM      1  O   UNL     1       1.094   7.071  21.224  0.00  0.00    +0.000 OA
ATOM      2  C   UNL     1       1.636   6.433  20.352  0.00  0.00    +0.000 C 
ATOM      3  C   UNL     1       2.416   6.979  19.142  0.00  0.00    +0.000 C 
ATOM      4  O   UNL     1       2.568   8.153  18.889  0.00  0.00    +0.000 OA
ATOM      5  N   UNL     1       2.850   5.858  18.444  0.00  0.00    +0.000 N 
ATOM      6  C   UNL     1       2.411   4.665  19.068  0.00  0.00    +0.000 A 
ATOM      7  C   UNL     1       2.571   3.324  18.741  0.00  0.00    +0.000 A 
ATOM      8 CL   UNL     1       3.396   2.752  17.344  0.00  0.00    +0.000 Cl
ATOM      9  C   UNL     1       2.009   2.350  19.587  0.00  0.00    +0.000 A 
ATOM     10  C   UNL     1       1.294   2.705  20.744  0.00  0.00    +0.000 A 
ATOM     11  C   UNL     1       1.124   4.043  21.076  0.00  0.00    +0.000 A 
ATOM     12  C   UNL     1       1.686   4.981  20.226  0.00  0.00    +0.000 A 
ENDROOT
BRANCH   5  13
ATOM     13  C   UNL     1       3.675   5.978  17.261  0.00  0.00    +0.000 C 
BRANCH  13  14
ATOM     14  C   UNL     1       5.124   5.590  17.443  0.00  0.00    +0.000 A 
ATOM     15  C   UNL     1       5.795   5.705  18.672  0.00  0.00    +0.000 A 
ATOM     16  C   UNL     1       7.086   5.197  18.826  0.00  0.00    +0.000 A 
ATOM     17  C   UNL     1       7.713   4.567  17.756  0.00  0.00    +0.000 A 
ATOM     18  F   UNL     1       8.937   4.050  17.922  0.00  0.00    +0.000 F 
ATOM     19  C   UNL     1       7.080   4.450  16.529  0.00  0.00    +0.000 A 
ATOM     20  C   UNL     1       5.794   4.959  16.384  0.00  0.00    +0.000 A 
ATOM     21  F   UNL     1       5.176   4.810  15.204  0.00  0.00    +0.000 F 
ENDBRANCH  13  14
ENDBRANCH   5  13
TORSDOF 2
ENDMDL
MODEL 5
REMARK VINA RESULT:      -6.8      2.228      2.880
REMARK  Name = 
REMARK  2 active torsions:
REMARK  status: ('A' for Active; 'I' for Inactive)
REMARK    1  A    between atoms: N_5  and  C_6
REMARK    2  A    between atoms: C_6  and  C_7
REMARK                            x       y       z     vdW  Elec       q    Type
REMARK                         _______ _______ _______ _____ _____    ______ ____
ROOT
ATOM      1  O   UNL     1       1.762   1.788  19.696  0.00  0.00    +0.000 OA
ATOM      2  C   UNL     1       2.257   2.773  19.203  0.00  0.00    +0.000 C 
ATOM      3  C   UNL     1       3.276   2.828  18.049  0.00  0.00    +0.000 C 
ATOM      4  O   UNL     1       3.742   1.860  17.490  0.00  0.00    +0.000 OA
ATOM      5  N   UNL     1       3.529   4.179  17.841  0.00  0.00    +0.000 N 
ATOM      6  C   UNL     1       2.800   4.982  18.752  0.00  0.00    +0.000 A 
ATOM      7  C   UNL     1       2.740   6.356  18.947  0.00  0.00    +0.000 A 
ATOM      8 CL   UNL     1       3.654   7.509  18.056  0.00  0.00    +0.000 Cl
ATOM      9  C   UNL     1       1.893   6.860  19.952  0.00  0.00    +0.000 A 
ATOM     10  C   UNL     1       1.117   6.006  20.756  0.00  0.00    +0.000 A 
ATOM     11  C   UNL     1       1.175   4.631  20.573  0.00  0.00    +0.000 A 
ATOM     12  C   UNL     1       2.017   4.162  19.578  0.00  0.00    +0.000 A 
ENDROOT
BRANCH   5  13
ATOM     13  C   UNL     1       4.409   4.629  16.783  0.00  0.00    +0.000 C 
BRANCH  13  14
ATOM     14  C   UNL     1       5.653   5.354  17.243  0.00  0.00    +0.000 A 
ATOM     15  C   UNL     1       6.147   6.501  16.599  0.00  0.00    +0.000 A 
ATOM     16  C   UNL     1       7.211   7.218  17.148  0.00  0.00    +0.000 A 
ATOM     17  C   UNL     1       7.784   6.799  18.344  0.00  0.00    +0.000 A 
ATOM     18  F   UNL     1       8.781   7.513  18.883  0.00  0.00    +0.000 F 
ATOM     19  C   UNL     1       7.325   5.664  18.994  0.00  0.00    +0.000 A 
ATOM     20  C   UNL     1       6.264   4.955  18.440  0.00  0.00    +0.000 A 
ATOM     21  F   UNL     1       5.804   3.879  19.094  0.00  0.00    +0.000 F 
ENDBRANCH  13  14
ENDBRANCH   5  13
TORSDOF 2
ENDMDL
MODEL 6
REMARK VINA RESULT:      -6.7      3.414      5.524
REMARK  Name = 
REMARK  2 active torsions:
REMARK  status: ('A' for Active; 'I' for Inactive)
REMARK    1  A    between atoms: N_5  and  C_6
REMARK    2  A    between atoms: C_6  and  C_7
REMARK                            x       y       z     vdW  Elec       q    Type
REMARK                         _______ _______ _______ _____ _____    ______ ____
ROOT
ATOM      1  O   UNL     1       2.273   2.509  17.094  0.00  0.00    +0.000 OA
ATOM      2  C   UNL     1       2.898   3.504  17.377  0.00  0.00    +0.000 C 
ATOM      3  C   UNL     1       2.572   4.530  18.478  0.00  0.00    +0.000 C 
ATOM      4  O   UNL     1       1.604   4.483  19.204  0.00  0.00    +0.000 OA
ATOM      5  N   UNL     1       3.586   5.478  18.415  0.00  0.00    +0.000 N 
ATOM      6  C   UNL     1       4.505   5.174  17.380  0.00  0.00    +0.000 A 
ATOM      7  C   UNL     1       5.647   5.821  16.923  0.00  0.00    +0.000 A 
ATOM      8 CL   UNL     1       6.247   7.304  17.555  0.00  0.00    +0.000 Cl
ATOM      9  C   UNL     1       6.367   5.250  15.858  0.00  0.00    +0.000 A 
ATOM     10  C   UNL     1       5.954   4.051  15.250  0.00  0.00    +0.000 A 
ATOM     11  C   UNL     1       4.811   3.401  15.695  0.00  0.00    +0.000 A 
ATOM     12  C   UNL     1       4.121   3.985  16.745  0.00  0.00    +0.000 A 
ENDROOT
BRANCH   5  13
ATOM     13  C   UNL     1       3.647   6.583  19.348  0.00  0.00    +0.000 C 
BRANCH  13  14
ATOM     14  C   UNL     1       2.520   7.583  19.238  0.00  0.00    +0.000 A 
ATOM     15  C   UNL     1       1.704   7.933  20.327  0.00  0.00    +0.000 A 
ATOM     16  C   UNL     1       0.773   8.968  20.212  0.00  0.00    +0.000 A 
ATOM     17  C   UNL     1       0.655   9.661  19.012  0.00  0.00    +0.000 A 
ATOM     18  F   UNL     1      -0.214  10.676  18.921  0.00  0.00    +0.000 F 
ATOM     19  C   UNL     1       1.438   9.328  17.918  0.00  0.00    +0.000 A 
ATOM     20  C   UNL     1       2.363   8.297  18.041  0.00  0.00    +0.000 A 
ATOM     21  F   UNL     1       3.140   8.006  16.988  0.00  0.00    +0.000 F 
ENDBRANCH  13  14
ENDBRANCH   5  13
TORSDOF 2
ENDMDL
MODEL 7
REMARK VINA RESULT:      -6.7      2.459      3.211
REMARK  Name = 
REMARK  2 active torsions:
REMARK  status: ('A' for Active; 'I' for Inactive)
REMARK    1  A    between atoms: N_5  and  C_6
REMARK    2  A    between atoms: C_6  and  C_7
REMARK                            x       y       z     vdW  Elec       q    Type
REMARK                         _______ _______ _______ _____ _____    ______ ____
ROOT
ATOM      1  O   UNL     1       1.951   1.398  19.557  0.00  0.00    +0.000 OA
ATOM      2  C   UNL     1       2.388   2.446  19.144  0.00  0.00    +0.000 C 
ATOM      3  C   UNL     1       3.473   2.647  18.069  0.00  0.00    +0.000 C 
ATOM      4  O   UNL     1       4.061   1.752  17.504  0.00  0.00    +0.000 OA
ATOM      5  N   UNL     1       3.616   4.023  17.940  0.00  0.00    +0.000 N 
ATOM      6  C   UNL     1       2.758   4.713  18.830  0.00  0.00    +0.000 A 
ATOM      7  C   UNL     1       2.561   6.066  19.080  0.00  0.00    +0.000 A 
ATOM      8 CL   UNL     1       3.425   7.337  18.308  0.00  0.00    +0.000 Cl
ATOM      9  C   UNL     1       1.606   6.443  20.043  0.00  0.00    +0.000 A 
ATOM     10  C   UNL     1       0.858   5.487  20.751  0.00  0.00    +0.000 A 
ATOM     11  C   UNL     1       1.052   4.132  20.513  0.00  0.00    +0.000 A 
ATOM     12  C   UNL     1       1.998   3.788  19.561  0.00  0.00    +0.000 A 
ENDROOT
BRANCH   5  13
ATOM     13  C   UNL     1       4.521   4.599  16.968  0.00  0.00    +0.000 C 
BRANCH  13  14
ATOM     14  C   UNL     1       5.625   5.456  17.543  0.00  0.00    +0.000 A 
ATOM     15  C   UNL     1       6.353   5.092  18.688  0.00  0.00    +0.000 A 
ATOM     16  C   UNL     1       7.459   5.843  19.094  0.00  0.00    +0.000 A 
ATOM     17  C   UNL     1       7.846   6.957  18.357  0.00  0.00    +0.000 A 
ATOM     18  F   UNL     1       8.929   7.650  18.731  0.00  0.00    +0.000 F 
ATOM     19  C   UNL     1       7.139   7.346  17.230  0.00  0.00    +0.000 A 
ATOM     20  C   UNL     1       6.040   6.593  16.833  0.00  0.00    +0.000 A 
ATOM     21  F   UNL     1       5.383   6.956  15.722  0.00  0.00    +0.000 F 
ENDBRANCH  13  14
ENDBRANCH   5  13
TORSDOF 2
ENDMDL
MODEL 8
REMARK VINA RESULT:      -6.7      2.595      3.267
REMARK  Name = 
REMARK  2 active torsions:
REMARK  status: ('A' for Active; 'I' for Inactive)
REMARK    1  A    between atoms: N_5  and  C_6
REMARK    2  A    between atoms: C_6  and  C_7
REMARK                            x       y       z     vdW  Elec       q    Type
REMARK                         _______ _______ _______ _____ _____    ______ ____
ROOT
ATOM      1  O   UNL     1       3.302   0.613  18.813  0.00  0.00    +0.000 OA
ATOM      2  C   UNL     1       3.311   1.814  18.677  0.00  0.00    +0.000 C 
ATOM      3  C   UNL     1       4.104   2.630  17.640  0.00  0.00    +0.000 C 
ATOM      4  O   UNL     1       4.863   2.160  16.822  0.00  0.00    +0.000 OA
ATOM      5  N   UNL     1       3.773   3.958  17.882  0.00  0.00    +0.000 N 
ATOM      6  C   UNL     1       2.875   4.071  18.972  0.00  0.00    +0.000 A 
ATOM      7  C   UNL     1       2.288   5.169  19.590  0.00  0.00    +0.000 A 
ATOM      8 CL   UNL     1       2.571   6.806  19.147  0.00  0.00    +0.000 Cl
ATOM      9  C   UNL     1       1.412   4.947  20.669  0.00  0.00    +0.000 A 
ATOM     10  C   UNL     1       1.126   3.650  21.131  0.00  0.00    +0.000 A 
ATOM     11  C   UNL     1       1.713   2.548  20.523  0.00  0.00    +0.000 A 
ATOM     12  C   UNL     1       2.571   2.794  19.464  0.00  0.00    +0.000 A 
ENDROOT
BRANCH   5  13
ATOM     13  C   UNL     1       4.291   5.028  17.055  0.00  0.00    +0.000 C 
BRANCH  13  14
ATOM     14  C   UNL     1       5.476   5.770  17.629  0.00  0.00    +0.000 A 
ATOM     15  C   UNL     1       6.243   5.272  18.695  0.00  0.00    +0.000 A 
ATOM     16  C   UNL     1       7.413   5.922  19.092  0.00  0.00    +0.000 A 
ATOM     17  C   UNL     1       7.827   7.069  18.423  0.00  0.00    +0.000 A 
ATOM     18  F   UNL     1       8.970   7.666  18.785  0.00  0.00    +0.000 F 
ATOM     19  C   UNL     1       7.084   7.589  17.375  0.00  0.00    +0.000 A 
ATOM     20  C   UNL     1       5.920   6.936  16.987  0.00  0.00    +0.000 A 
ATOM     21  F   UNL     1       5.226   7.427  15.950  0.00  0.00    +0.000 F 
ENDBRANCH  13  14
ENDBRANCH   5  13
TORSDOF 2
ENDMDL
MODEL 9
REMARK VINA RESULT:      -6.6      3.051      3.653
REMARK  Name = 
REMARK  2 active torsions:
REMARK  status: ('A' for Active; 'I' for Inactive)
REMARK    1  A    between atoms: N_5  and  C_6
REMARK    2  A    between atoms: C_6  and  C_7
REMARK                            x       y       z     vdW  Elec       q    Type
REMARK                         _______ _______ _______ _____ _____    ______ ____
ROOT
ATOM      1  O   UNL     1       5.101   2.066  20.863  0.00  0.00    +0.000 OA
ATOM      2  C   UNL     1       4.545   2.792  20.073  0.00  0.00    +0.000 C 
ATOM      3  C   UNL     1       5.180   3.913  19.228  0.00  0.00    +0.000 C 
ATOM      4  O   UNL     1       6.346   4.235  19.270  0.00  0.00    +0.000 OA
ATOM      5  N   UNL     1       4.140   4.445  18.476  0.00  0.00    +0.000 N 
ATOM      6  C   UNL     1       2.914   3.799  18.769  0.00  0.00    +0.000 A 
ATOM      7  C   UNL     1       1.620   3.989  18.299  0.00  0.00    +0.000 A 
ATOM      8 CL   UNL     1       1.162   5.196  17.163  0.00  0.00    +0.000 Cl
ATOM      9  C   UNL     1       0.594   3.160  18.790  0.00  0.00    +0.000 A 
ATOM     10  C   UNL     1       0.851   2.155  19.739  0.00  0.00    +0.000 A 
ATOM     11  C   UNL     1       2.139   1.961  20.219  0.00  0.00    +0.000 A 
ATOM     12  C   UNL     1       3.130   2.791  19.720  0.00  0.00    +0.000 A 
ENDROOT
BRANCH   5  13
ATOM     13  C   UNL     1       4.368   5.498  17.509  0.00  0.00    +0.000 C 
BRANCH  13  14
ATOM     14  C   UNL     1       5.211   5.107  16.317  0.00  0.00    +0.000 A 
ATOM     15  C   UNL     1       4.729   4.291  15.280  0.00  0.00    +0.000 A 
ATOM     16  C   UNL     1       5.495   4.080  14.131  0.00  0.00    +0.000 A 
ATOM     17  C   UNL     1       6.741   4.686  14.009  0.00  0.00    +0.000 A 
ATOM     18  F   UNL     1       7.452   4.508  12.889  0.00  0.00    +0.000 F 
ATOM     19  C   UNL     1       7.245   5.486  15.022  0.00  0.00    +0.000 A 
ATOM     20  C   UNL     1       6.477   5.691  16.162  0.00  0.00    +0.000 A 
ATOM     21  F   UNL     1       6.958   6.495  17.122  0.00  0.00    +0.000 F 
ENDBRANCH  13  14
ENDBRANCH   5  13
TORSDOF 2
ENDMDL
