MODEL 1
REMARK VINA RESULT:      -7.7      0.000      0.000
REMARK  Name = 
REMARK  8 active torsions:
REMARK  status: ('A' for Active; 'I' for Inactive)
REMARK    1  A    between atoms: C_1  and  C_2
REMARK    2  A    between atoms: C_2  and  N_3
REMARK    3  A    between atoms: C_2  and  C_26
REMARK    4  A    between atoms: N_7  and  C_8
REMARK    5  A    between atoms: C_8  and  C_9
REMARK    6  A    between atoms: C_8  and  C_10
REMARK    7  A    between atoms: C_14  and  C_15
REMARK    8  A    between atoms: C_19  and  C_20
REMARK                            x       y       z     vdW  Elec       q    Type
REMARK                         _______ _______ _______ _____ _____    ______ ____
ROOT
ATOM      1  N   UNL     1       3.798   3.107  18.505  0.00  0.00    +0.000 N 
ATOM      2  C   UNL     1       3.941   4.352  17.883  0.00  0.00    +0.000 A 
ATOM      3  N   UNL     1       4.709   4.404  16.798  0.00  0.00    +0.000 NA
ATOM      4  C   UNL     1       4.786   5.566  16.157  0.00  0.00    +0.000 A 
ATOM      5  N   UNL     1       5.527   5.700  14.998  0.00  0.00    +0.000 N 
ATOM      6  N   UNL     1       4.129   6.650  16.543  0.00  0.00    +0.000 NA
ATOM      7  C   UNL     1       3.386   6.519  17.647  0.00  0.00    +0.000 A 
ATOM      8  N   UNL     1       3.254   5.381  18.341  0.00  0.00    +0.000 NA
ATOM      9  H   UNL     1       3.031   2.676  18.003  0.00  0.00    +0.000 HD
ATOM     10  H   UNL     1       5.547   6.662  14.690  0.00  0.00    +0.000 HD
ENDROOT
BRANCH   7  11
ATOM     11  C   UNL     1       2.671   7.712  18.175  0.00  0.00    +0.000 A 
ATOM     12  N   UNL     1       2.637   8.835  17.426  0.00  0.00    +0.000 NA
ATOM     13  C   UNL     1       1.981   9.889  17.943  0.00  0.00    +0.000 A 
ATOM     14  C   UNL     1       1.373   9.883  19.175  0.00  0.00    +0.000 A 
ATOM     15  C   UNL     1       1.458   8.698  19.896  0.00  0.00    +0.000 A 
ATOM     16  N   UNL     1       2.093   7.610  19.396  0.00  0.00    +0.000 NA
BRANCH  15  17
ATOM     17  C   UNL     1       0.843   8.602  21.283  0.00  0.00    +0.000 C 
ATOM     18  F   UNL     1       1.772   8.589  22.285  0.00  0.00    +0.000 F 
ATOM     19  F   UNL     1       0.012   9.642  21.573  0.00  0.00    +0.000 F 
ATOM     20  F   UNL     1       0.106   7.468  21.460  0.00  0.00    +0.000 F 
ENDBRANCH  15  17
ENDBRANCH   7  11
BRANCH   1  22
ATOM     21  C   UNL     1       4.395   2.198  20.731  0.00  0.00    +0.000 C 
ATOM     22  C   UNL     1       3.476   3.139  19.945  0.00  0.00    +0.000 C 
BRANCH  22  23
ATOM     23  C   UNL     1       2.025   2.711  20.073  0.00  0.00    +0.000 C 
ATOM     24  C   UNL     1       1.262   2.754  21.380  0.00  0.00    +0.000 C 
ATOM     25  C   UNL     1       0.967   3.765  20.312  0.00  0.00    +0.000 C 
ENDBRANCH  22  23
ENDBRANCH   1  22
BRANCH   5  26
ATOM     26  C   UNL     1       6.712   4.884  14.777  0.00  0.00    +0.000 C 
ATOM     27  C   UNL     1       7.859   5.691  14.151  0.00  0.00    +0.000 C 
BRANCH  26  28
ATOM     28  C   UNL     1       6.401   3.683  13.896  0.00  0.00    +0.000 C 
ATOM     29  C   UNL     1       5.180   3.696  13.007  0.00  0.00    +0.000 C 
ATOM     30  C   UNL     1       6.549   3.624  12.389  0.00  0.00    +0.000 C 
ENDBRANCH  26  28
ENDBRANCH   5  26
TORSDOF 6
ENDMDL
MODEL 2
REMARK VINA RESULT:      -7.4      1.708      2.299
REMARK  Name = 
REMARK  8 active torsions:
REMARK  status: ('A' for Active; 'I' for Inactive)
REMARK    1  A    between atoms: C_1  and  C_2
REMARK    2  A    between atoms: C_2  and  N_3
REMARK    3  A    between atoms: C_2  and  C_26
REMARK    4  A    between atoms: N_7  and  C_8
REMARK    5  A    between atoms: C_8  and  C_9
REMARK    6  A    between atoms: C_8  and  C_10
REMARK    7  A    between atoms: C_14  and  C_15
REMARK    8  A    between atoms: C_19  and  C_20
REMARK                            x       y       z     vdW  Elec       q    Type
REMARK                         _______ _______ _______ _____ _____    ______ ____
ROOT
ATOM      1  N   UNL     1       2.555   4.197  19.013  0.00  0.00    +0.000 N 
ATOM      2  C   UNL     1       2.868   5.532  18.735  0.00  0.00    +0.000 A 
ATOM      3  N   UNL     1       3.985   5.764  18.050  0.00  0.00    +0.000 NA
ATOM      4  C   UNL     1       4.247   7.023  17.715  0.00  0.00    +0.000 A 
ATOM      5  N   UNL     1       5.363   7.350  16.967  0.00  0.00    +0.000 N 
ATOM      6  N   UNL     1       3.450   8.035  18.021  0.00  0.00    +0.000 NA
ATOM      7  C   UNL     1       2.352   7.721  18.719  0.00  0.00    +0.000 A 
ATOM      8  N   UNL     1       2.017   6.477  19.086  0.00  0.00    +0.000 NA
ATOM      9  H   UNL     1       2.051   3.894  18.187  0.00  0.00    +0.000 HD
ATOM     10  H   UNL     1       5.457   8.351  16.876  0.00  0.00    +0.000 HD
ENDROOT
BRANCH   7  11
ATOM     11  C   UNL     1       1.443   8.815  19.152  0.00  0.00    +0.000 A 
ATOM     12  N   UNL     1       1.144   9.799  18.277  0.00  0.00    +0.000 NA
ATOM     13  C   UNL     1       0.319  10.768  18.712  0.00  0.00    +0.000 A 
ATOM     14  C   UNL     1      -0.208  10.812  19.980  0.00  0.00    +0.000 A 
ATOM     15  C   UNL     1       0.150   9.774  20.831  0.00  0.00    +0.000 A 
ATOM     16  N   UNL     1       0.963   8.770  20.418  0.00  0.00    +0.000 NA
BRANCH  15  17
ATOM     17  C   UNL     1      -0.358   9.749  22.264  0.00  0.00    +0.000 C 
ATOM     18  F   UNL     1       0.642   9.840  23.192  0.00  0.00    +0.000 F 
ATOM     19  F   UNL     1      -1.208  10.776  22.547  0.00  0.00    +0.000 F 
ATOM     20  F   UNL     1      -1.030   8.604  22.570  0.00  0.00    +0.000 F 
ENDBRANCH  15  17
ENDBRANCH   7  11
BRANCH   1  22
ATOM     21  C   UNL     1       2.551   4.048  21.486  0.00  0.00    +0.000 C 
ATOM     22  C   UNL     1       1.715   3.966  20.204  0.00  0.00    +0.000 C 
BRANCH  22  23
ATOM     23  C   UNL     1       1.106   2.585  20.042  0.00  0.00    +0.000 C 
ATOM     24  C   UNL     1       0.407   2.133  18.776  0.00  0.00    +0.000 C 
ATOM     25  C   UNL     1       1.768   1.596  19.109  0.00  0.00    +0.000 C 
ENDBRANCH  22  23
ENDBRANCH   1  22
BRANCH   5  26
ATOM     26  C   UNL     1       6.577   6.553  17.060  0.00  0.00    +0.000 C 
ATOM     27  C   UNL     1       7.806   7.410  17.400  0.00  0.00    +0.000 C 
BRANCH  26  28
ATOM     28  C   UNL     1       6.838   5.788  15.770  0.00  0.00    +0.000 C 
ATOM     29  C   UNL     1       6.913   4.279  15.789  0.00  0.00    +0.000 C 
ATOM     30  C   UNL     1       5.824   4.960  15.006  0.00  0.00    +0.000 C 
ENDBRANCH  26  28
ENDBRANCH   5  26
TORSDOF 6
ENDMDL
MODEL 3
REMARK VINA RESULT:      -7.4      1.718      2.531
REMARK  Name = 
REMARK  8 active torsions:
REMARK  status: ('A' for Active; 'I' for Inactive)
REMARK    1  A    between atoms: C_1  and  C_2
REMARK    2  A    between atoms: C_2  and  N_3
REMARK    3  A    between atoms: C_2  and  C_26
REMARK    4  A    between atoms: N_7  and  C_8
REMARK    5  A    between atoms: C_8  and  C_9
REMARK    6  A    between atoms: C_8  and  C_10
REMARK    7  A    between atoms: C_14  and  C_15
REMARK    8  A    between atoms: C_19  and  C_20
REMARK                            x       y       z     vdW  Elec       q    Type
REMARK                         _______ _______ _______ _____ _____    ______ ____
ROOT
ATOM      1  N   UNL     1       2.995   3.801  19.024  0.00  0.00    +0.000 N 
ATOM      2  C   UNL     1       3.238   5.118  18.621  0.00  0.00    +0.000 A 
ATOM      3  N   UNL     1       4.276   5.324  17.813  0.00  0.00    +0.000 NA
ATOM      4  C   UNL     1       4.465   6.561  17.363  0.00  0.00    +0.000 A 
ATOM      5  N   UNL     1       5.493   6.857  16.487  0.00  0.00    +0.000 N 
ATOM      6  N   UNL     1       3.670   7.573  17.672  0.00  0.00    +0.000 NA
ATOM      7  C   UNL     1       2.655   7.287  18.496  0.00  0.00    +0.000 A 
ATOM      8  N   UNL     1       2.396   6.067  18.983  0.00  0.00    +0.000 NA
ATOM      9  H   UNL     1       2.424   3.424  18.277  0.00  0.00    +0.000 HD
ATOM     10  H   UNL     1       5.547   7.850  16.314  0.00  0.00    +0.000 HD
ENDROOT
BRANCH   7  11
ATOM     11  C   UNL     1       1.758   8.389  18.936  0.00  0.00    +0.000 A 
ATOM     12  N   UNL     1       1.365   9.309  18.030  0.00  0.00    +0.000 NA
ATOM     13  C   UNL     1       0.555  10.288  18.472  0.00  0.00    +0.000 A 
ATOM     14  C   UNL     1       0.133  10.402  19.774  0.00  0.00    +0.000 A 
ATOM     15  C   UNL     1       0.586   9.427  20.655  0.00  0.00    +0.000 A 
ATOM     16  N   UNL     1       1.386   8.414  20.238  0.00  0.00    +0.000 NA
BRANCH  15  17
ATOM     17  C   UNL     1       0.198   9.483  22.124  0.00  0.00    +0.000 C 
ATOM     18  F   UNL     1      -0.272  10.707  22.510  0.00  0.00    +0.000 F 
ATOM     19  F   UNL     1      -0.784   8.598  22.453  0.00  0.00    +0.000 F 
ATOM     20  F   UNL     1       1.243   9.219  22.960  0.00  0.00    +0.000 F 
ENDBRANCH  15  17
ENDBRANCH   7  11
BRANCH   1  22
ATOM     21  C   UNL     1       3.117   2.823  21.297  0.00  0.00    +0.000 C 
ATOM     22  C   UNL     1       2.282   3.641  20.307  0.00  0.00    +0.000 C 
BRANCH  22  23
ATOM     23  C   UNL     1       0.975   2.937  19.988  0.00  0.00    +0.000 C 
ATOM     24  C   UNL     1       0.235   3.118  18.679  0.00  0.00    +0.000 C 
ATOM     25  C   UNL     1       0.967   1.837  18.951  0.00  0.00    +0.000 C 
ENDBRANCH  22  23
ENDBRANCH   1  22
BRANCH   5  26
ATOM     26  C   UNL     1       6.734   6.097  16.517  0.00  0.00    +0.000 C 
ATOM     27  C   UNL     1       6.801   5.056  15.389  0.00  0.00    +0.000 C 
BRANCH  26  28
ATOM     28  C   UNL     1       6.927   5.401  17.857  0.00  0.00    +0.000 C 
ATOM     29  C   UNL     1       8.140   4.531  18.087  0.00  0.00    +0.000 C 
ATOM     30  C   UNL     1       7.948   5.773  18.913  0.00  0.00    +0.000 C 
ENDBRANCH  26  28
ENDBRANCH   5  26
TORSDOF 6
ENDMDL
MODEL 4
REMARK VINA RESULT:      -7.4      4.803      9.187
REMARK  Name = 
REMARK  8 active torsions:
REMARK  status: ('A' for Active; 'I' for Inactive)
REMARK    1  A    between atoms: C_1  and  C_2
REMARK    2  A    between atoms: C_2  and  N_3
REMARK    3  A    between atoms: C_2  and  C_26
REMARK    4  A    between atoms: N_7  and  C_8
REMARK    5  A    between atoms: C_8  and  C_9
REMARK    6  A    between atoms: C_8  and  C_10
REMARK    7  A    between atoms: C_14  and  C_15
REMARK    8  A    between atoms: C_19  and  C_20
REMARK                            x       y       z     vdW  Elec       q    Type
REMARK                         _______ _______ _______ _____ _____    ______ ____
ROOT
ATOM      1  N   UNL     1      -2.321  12.369  17.956  0.00  0.00    +0.000 N 
ATOM      2  C   UNL     1      -1.005  12.152  18.376  0.00  0.00    +0.000 A 
ATOM      3  N   UNL     1      -0.195  13.208  18.407  0.00  0.00    +0.000 NA
ATOM      4  C   UNL     1       1.034  13.023  18.879  0.00  0.00    +0.000 A 
ATOM      5  N   UNL     1       1.927  14.073  18.986  0.00  0.00    +0.000 N 
ATOM      6  N   UNL     1       1.471  11.855  19.323  0.00  0.00    +0.000 NA
ATOM      7  C   UNL     1       0.601  10.841  19.249  0.00  0.00    +0.000 A 
ATOM      8  N   UNL     1      -0.654  10.951  18.794  0.00  0.00    +0.000 NA
ATOM      9  H   UNL     1      -2.800  12.648  18.805  0.00  0.00    +0.000 HD
ATOM     10  H   UNL     1       2.836  13.747  19.280  0.00  0.00    +0.000 HD
ENDROOT
BRANCH   7  11
ATOM     11  C   UNL     1       1.044   9.486  19.672  0.00  0.00    +0.000 A 
ATOM     12  N   UNL     1       0.707   9.044  20.902  0.00  0.00    +0.000 NA
ATOM     13  C   UNL     1       1.130   7.813  21.241  0.00  0.00    +0.000 A 
ATOM     14  C   UNL     1       1.886   7.011  20.422  0.00  0.00    +0.000 A 
ATOM     15  C   UNL     1       2.206   7.534  19.175  0.00  0.00    +0.000 A 
ATOM     16  N   UNL     1       1.778   8.762  18.792  0.00  0.00    +0.000 NA
BRANCH  15  17
ATOM     17  C   UNL     1       3.065   6.734  18.208  0.00  0.00    +0.000 C 
ATOM     18  F   UNL     1       4.174   6.191  18.794  0.00  0.00    +0.000 F 
ATOM     19  F   UNL     1       2.402   5.685  17.646  0.00  0.00    +0.000 F 
ATOM     20  F   UNL     1       3.537   7.484  17.171  0.00  0.00    +0.000 F 
ENDBRANCH  15  17
ENDBRANCH   7  11
BRANCH   1  22
ATOM     21  C   UNL     1      -2.543  10.954  15.935  0.00  0.00    +0.000 C 
ATOM     22  C   UNL     1      -3.012  11.203  17.372  0.00  0.00    +0.000 C 
BRANCH  22  23
ATOM     23  C   UNL     1      -4.497  11.517  17.411  0.00  0.00    +0.000 C 
ATOM     24  C   UNL     1      -5.487  10.733  18.248  0.00  0.00    +0.000 C 
ATOM     25  C   UNL     1      -5.088  12.117  18.667  0.00  0.00    +0.000 C 
ENDBRANCH  22  23
ENDBRANCH   1  22
BRANCH   5  26
ATOM     26  C   UNL     1       1.868  15.194  18.059  0.00  0.00    +0.000 C 
ATOM     27  C   UNL     1       3.264  15.623  17.583  0.00  0.00    +0.000 C 
BRANCH  26  28
ATOM     28  C   UNL     1       1.159  16.389  18.680  0.00  0.00    +0.000 C 
ATOM     29  C   UNL     1       0.959  17.651  17.872  0.00  0.00    +0.000 C 
ATOM     30  C   UNL     1      -0.238  16.869  18.339  0.00  0.00    +0.000 C 
ENDBRANCH  26  28
ENDBRANCH   5  26
TORSDOF 6
ENDMDL
MODEL 5
REMARK VINA RESULT:      -7.4      2.179      4.984
REMARK  Name = 
REMARK  8 active torsions:
REMARK  status: ('A' for Active; 'I' for Inactive)
REMARK    1  A    between atoms: C_1  and  C_2
REMARK    2  A    between atoms: C_2  and  N_3
REMARK    3  A    between atoms: C_2  and  C_26
REMARK    4  A    between atoms: N_7  and  C_8
REMARK    5  A    between atoms: C_8  and  C_9
REMARK    6  A    between atoms: C_8  and  C_10
REMARK    7  A    between atoms: C_14  and  C_15
REMARK    8  A    between atoms: C_19  and  C_20
REMARK                            x       y       z     vdW  Elec       q    Type
REMARK                         _______ _______ _______ _____ _____    ______ ____
ROOT
ATOM      1  N   UNL     1       5.617   5.766  18.248  0.00  0.00    +0.000 N 
ATOM      2  C   UNL     1       4.398   5.749  18.933  0.00  0.00    +0.000 A 
ATOM      3  N   UNL     1       4.032   4.598  19.491  0.00  0.00    +0.000 NA
ATOM      4  C   UNL     1       2.913   4.595  20.210  0.00  0.00    +0.000 A 
ATOM      5  N   UNL     1       2.480   3.454  20.860  0.00  0.00    +0.000 N 
ATOM      6  N   UNL     1       2.171   5.675  20.398  0.00  0.00    +0.000 NA
ATOM      7  C   UNL     1       2.601   6.790  19.796  0.00  0.00    +0.000 A 
ATOM      8  N   UNL     1       3.719   6.873  19.064  0.00  0.00    +0.000 NA
ATOM      9  H   UNL     1       6.297   5.961  18.974  0.00  0.00    +0.000 HD
ATOM     10  H   UNL     1       1.576   3.601  21.286  0.00  0.00    +0.000 HD
ENDROOT
BRANCH   7  11
ATOM     11  C   UNL     1       1.783   8.027  19.912  0.00  0.00    +0.000 A 
ATOM     12  N   UNL     1       1.612   8.799  18.818  0.00  0.00    +0.000 NA
ATOM     13  C   UNL     1       0.867   9.908  18.969  0.00  0.00    +0.000 A 
ATOM     14  C   UNL     1       0.298  10.292  20.160  0.00  0.00    +0.000 A 
ATOM     15  C   UNL     1       0.525   9.456  21.246  0.00  0.00    +0.000 A 
ATOM     16  N   UNL     1       1.253   8.320  21.124  0.00  0.00    +0.000 NA
BRANCH  15  17
ATOM     17  C   UNL     1      -0.038   9.811  22.614  0.00  0.00    +0.000 C 
ATOM     18  F   UNL     1       0.824   9.536  23.638  0.00  0.00    +0.000 F 
ATOM     19  F   UNL     1      -0.341  11.133  22.741  0.00  0.00    +0.000 F 
ATOM     20  F   UNL     1      -1.180   9.129  22.912  0.00  0.00    +0.000 F 
ENDBRANCH  15  17
ENDBRANCH   7  11
BRANCH   1  22
ATOM     21  C   UNL     1       5.250   6.229  15.841  0.00  0.00    +0.000 C 
ATOM     22  C   UNL     1       5.744   6.781  17.183  0.00  0.00    +0.000 C 
BRANCH  22  23
ATOM     23  C   UNL     1       7.216   7.148  17.109  0.00  0.00    +0.000 C 
ATOM     24  C   UNL     1       7.772   8.448  17.653  0.00  0.00    +0.000 C 
ATOM     25  C   UNL     1       8.033   7.162  18.382  0.00  0.00    +0.000 C 
ENDBRANCH  22  23
ENDBRANCH   1  22
BRANCH   5  26
ATOM     26  C   UNL     1       2.778   2.136  20.321  0.00  0.00    +0.000 C 
ATOM     27  C   UNL     1       4.253   1.999  19.913  0.00  0.00    +0.000 C 
BRANCH  26  28
ATOM     28  C   UNL     1       1.894   1.812  19.125  0.00  0.00    +0.000 C 
ATOM     29  C   UNL     1       0.986   2.874  18.550  0.00  0.00    +0.000 C 
ATOM     30  C   UNL     1       2.097   2.310  17.708  0.00  0.00    +0.000 C 
ENDBRANCH  26  28
ENDBRANCH   5  26
TORSDOF 6
ENDMDL
MODEL 6
REMARK VINA RESULT:      -7.3      2.523      3.342
REMARK  Name = 
REMARK  8 active torsions:
REMARK  status: ('A' for Active; 'I' for Inactive)
REMARK    1  A    between atoms: C_1  and  C_2
REMARK    2  A    between atoms: C_2  and  N_3
REMARK    3  A    between atoms: C_2  and  C_26
REMARK    4  A    between atoms: N_7  and  C_8
REMARK    5  A    between atoms: C_8  and  C_9
REMARK    6  A    between atoms: C_8  and  C_10
REMARK    7  A    between atoms: C_14  and  C_15
REMARK    8  A    between atoms: C_19  and  C_20
REMARK                            x       y       z     vdW  Elec       q    Type
REMARK                         _______ _______ _______ _____ _____    ______ ____
ROOT
ATOM      1  N   UNL     1       2.347   4.553  18.820  0.00  0.00    +0.000 N 
ATOM      2  C   UNL     1       2.712   5.847  18.433  0.00  0.00    +0.000 A 
ATOM      3  N   UNL     1       3.899   5.995  17.852  0.00  0.00    +0.000 NA
ATOM      4  C   UNL     1       4.218   7.208  17.412  0.00  0.00    +0.000 A 
ATOM      5  N   UNL     1       5.414   7.444  16.758  0.00  0.00    +0.000 N 
ATOM      6  N   UNL     1       3.410   8.252  17.516  0.00  0.00    +0.000 NA
ATOM      7  C   UNL     1       2.239   8.024  18.121  0.00  0.00    +0.000 A 
ATOM      8  N   UNL     1       1.845   6.830  18.584  0.00  0.00    +0.000 NA
ATOM      9  H   UNL     1       1.930   4.162  17.983  0.00  0.00    +0.000 HD
ATOM     10  H   UNL     1       5.534   8.428  16.568  0.00  0.00    +0.000 HD
ENDROOT
BRANCH   7  11
ATOM     11  C   UNL     1       1.307   9.164  18.331  0.00  0.00    +0.000 A 
ATOM     12  N   UNL     1       1.677  10.163  19.161  0.00  0.00    +0.000 NA
ATOM     13  C   UNL     1       0.803  11.172  19.321  0.00  0.00    +0.000 A 
ATOM     14  C   UNL     1      -0.426  11.225  18.709  0.00  0.00    +0.000 A 
ATOM     15  C   UNL     1      -0.745  10.158  17.878  0.00  0.00    +0.000 A 
ATOM     16  N   UNL     1       0.121   9.135  17.677  0.00  0.00    +0.000 NA
BRANCH  15  17
ATOM     17  C   UNL     1      -2.094  10.111  17.178  0.00  0.00    +0.000 C 
ATOM     18  F   UNL     1      -2.056   9.460  15.977  0.00  0.00    +0.000 F 
ATOM     19  F   UNL     1      -3.052   9.471  17.907  0.00  0.00    +0.000 F 
ATOM     20  F   UNL     1      -2.593  11.349  16.901  0.00  0.00    +0.000 F 
ENDBRANCH  15  17
ENDBRANCH   7  11
BRANCH   1  22
ATOM     21  C   UNL     1       2.028   4.881  21.255  0.00  0.00    +0.000 C 
ATOM     22  C   UNL     1       1.381   4.460  19.931  0.00  0.00    +0.000 C 
BRANCH  22  23
ATOM     23  C   UNL     1       0.925   3.013  19.987  0.00  0.00    +0.000 C 
ATOM     24  C   UNL     1       0.494   2.234  18.761  0.00  0.00    +0.000 C 
ATOM     25  C   UNL     1       1.817   1.939  19.405  0.00  0.00    +0.000 C 
ENDBRANCH  22  23
ENDBRANCH   1  22
BRANCH   5  26
ATOM     26  C   UNL     1       6.596   6.655  17.068  0.00  0.00    +0.000 C 
ATOM     27  C   UNL     1       7.790   7.537  17.465  0.00  0.00    +0.000 C 
BRANCH  26  28
ATOM     28  C   UNL     1       6.994   5.767  15.898  0.00  0.00    +0.000 C 
ATOM     29  C   UNL     1       7.240   4.293  16.119  0.00  0.00    +0.000 C 
ATOM     30  C   UNL     1       6.112   4.733  15.227  0.00  0.00    +0.000 C 
ENDBRANCH  26  28
ENDBRANCH   5  26
TORSDOF 6
ENDMDL
MODEL 7
REMARK VINA RESULT:      -7.3      1.928      5.123
REMARK  Name = 
REMARK  8 active torsions:
REMARK  status: ('A' for Active; 'I' for Inactive)
REMARK    1  A    between atoms: C_1  and  C_2
REMARK    2  A    between atoms: C_2  and  N_3
REMARK    3  A    between atoms: C_2  and  C_26
REMARK    4  A    between atoms: N_7  and  C_8
REMARK    5  A    between atoms: C_8  and  C_9
REMARK    6  A    between atoms: C_8  and  C_10
REMARK    7  A    between atoms: C_14  and  C_15
REMARK    8  A    between atoms: C_19  and  C_20
REMARK                            x       y       z     vdW  Elec       q    Type
REMARK                         _______ _______ _______ _____ _____    ______ ____
ROOT
ATOM      1  N   UNL     1       5.590   5.333  18.268  0.00  0.00    +0.000 N 
ATOM      2  C   UNL     1       4.361   5.600  18.881  0.00  0.00    +0.000 A 
ATOM      3  N   UNL     1       3.870   4.664  19.690  0.00  0.00    +0.000 NA
ATOM      4  C   UNL     1       2.742   4.944  20.335  0.00  0.00    +0.000 A 
ATOM      5  N   UNL     1       2.183   4.046  21.227  0.00  0.00    +0.000 N 
ATOM      6  N   UNL     1       2.107   6.099  20.217  0.00  0.00    +0.000 NA
ATOM      7  C   UNL     1       2.659   6.984  19.378  0.00  0.00    +0.000 A 
ATOM      8  N   UNL     1       3.795   6.778  18.699  0.00  0.00    +0.000 NA
ATOM      9  H   UNL     1       6.270   5.641  18.954  0.00  0.00    +0.000 HD
ATOM     10  H   UNL     1       1.290   4.377  21.562  0.00  0.00    +0.000 HD
ENDROOT
BRANCH   7  11
ATOM     11  C   UNL     1       1.966   8.279  19.147  0.00  0.00    +0.000 A 
ATOM     12  N   UNL     1       2.148   8.914  17.969  0.00  0.00    +0.000 NA
ATOM     13  C   UNL     1       1.503  10.083  17.804  0.00  0.00    +0.000 A 
ATOM     14  C   UNL     1       0.701  10.656  18.761  0.00  0.00    +0.000 A 
ATOM     15  C   UNL     1       0.568   9.954  19.953  0.00  0.00    +0.000 A 
ATOM     16  N   UNL     1       1.187   8.763  20.144  0.00  0.00    +0.000 NA
BRANCH  15  17
ATOM     17  C   UNL     1      -0.274  10.521  21.084  0.00  0.00    +0.000 C 
ATOM     18  F   UNL     1      -0.710   9.567  21.961  0.00  0.00    +0.000 F 
ATOM     19  F   UNL     1       0.395  11.433  21.844  0.00  0.00    +0.000 F 
ATOM     20  F   UNL     1      -1.402  11.148  20.645  0.00  0.00    +0.000 F 
ENDBRANCH  15  17
ENDBRANCH   7  11
BRANCH   1  22
ATOM     21  C   UNL     1       5.647   5.084  15.804  0.00  0.00    +0.000 C 
ATOM     22  C   UNL     1       5.839   6.032  16.993  0.00  0.00    +0.000 C 
BRANCH  22  23
ATOM     23  C   UNL     1       7.268   6.544  17.053  0.00  0.00    +0.000 C 
ATOM     24  C   UNL     1       7.624   7.954  17.477  0.00  0.00    +0.000 C 
ATOM     25  C   UNL     1       7.897   6.805  18.403  0.00  0.00    +0.000 C 
ENDBRANCH  22  23
ENDBRANCH   1  22
BRANCH   5  26
ATOM     26  C   UNL     1       2.360   2.613  21.045  0.00  0.00    +0.000 C 
ATOM     27  C   UNL     1       3.805   2.253  20.669  0.00  0.00    +0.000 C 
BRANCH  26  28
ATOM     28  C   UNL     1       1.413   2.068  19.986  0.00  0.00    +0.000 C 
ATOM     29  C   UNL     1       0.522   3.013  19.213  0.00  0.00    +0.000 C 
ATOM     30  C   UNL     1       1.574   2.221  18.486  0.00  0.00    +0.000 C 
ENDBRANCH  26  28
ENDBRANCH   5  26
TORSDOF 6
ENDMDL
MODEL 8
REMARK VINA RESULT:      -7.3      2.161      5.234
REMARK  Name = 
REMARK  8 active torsions:
REMARK  status: ('A' for Active; 'I' for Inactive)
REMARK    1  A    between atoms: C_1  and  C_2
REMARK    2  A    between atoms: C_2  and  N_3
REMARK    3  A    between atoms: C_2  and  C_26
REMARK    4  A    between atoms: N_7  and  C_8
REMARK    5  A    between atoms: C_8  and  C_9
REMARK    6  A    between atoms: C_8  and  C_10
REMARK    7  A    between atoms: C_14  and  C_15
REMARK    8  A    between atoms: C_19  and  C_20
REMARK                            x       y       z     vdW  Elec       q    Type
REMARK                         _______ _______ _______ _____ _____    ______ ____
ROOT
ATOM      1  N   UNL     1       5.147   5.708  18.318  0.00  0.00    +0.000 N 
ATOM      2  C   UNL     1       3.919   6.067  18.884  0.00  0.00    +0.000 A 
ATOM      3  N   UNL     1       3.297   5.147  19.618  0.00  0.00    +0.000 NA
ATOM      4  C   UNL     1       2.169   5.508  20.223  0.00  0.00    +0.000 A 
ATOM      5  N   UNL     1       1.479   4.629  21.038  0.00  0.00    +0.000 N 
ATOM      6  N   UNL     1       1.659   6.726  20.135  0.00  0.00    +0.000 NA
ATOM      7  C   UNL     1       2.337   7.589  19.372  0.00  0.00    +0.000 A 
ATOM      8  N   UNL     1       3.482   7.303  18.738  0.00  0.00    +0.000 NA
ATOM      9  H   UNL     1       5.817   5.912  19.051  0.00  0.00    +0.000 HD
ATOM     10  H   UNL     1       0.607   5.032  21.347  0.00  0.00    +0.000 HD
ENDROOT
BRANCH   7  11
ATOM     11  C   UNL     1       1.788   8.958  19.177  0.00  0.00    +0.000 A 
ATOM     12  N   UNL     1       2.151   9.655  18.079  0.00  0.00    +0.000 NA
ATOM     13  C   UNL     1       1.631  10.888  17.945  0.00  0.00    +0.000 A 
ATOM     14  C   UNL     1       0.783  11.464  18.858  0.00  0.00    +0.000 A 
ATOM     15  C   UNL     1       0.461  10.695  19.969  0.00  0.00    +0.000 A 
ATOM     16  N   UNL     1       0.950   9.440  20.126  0.00  0.00    +0.000 NA
BRANCH  15  17
ATOM     17  C   UNL     1      -0.448  11.256  21.051  0.00  0.00    +0.000 C 
ATOM     18  F   UNL     1       0.141  12.244  21.790  0.00  0.00    +0.000 F 
ATOM     19  F   UNL     1      -1.591  11.808  20.557  0.00  0.00    +0.000 F 
ATOM     20  F   UNL     1      -0.841  10.316  21.957  0.00  0.00    +0.000 F 
ENDBRANCH  15  17
ENDBRANCH   7  11
BRANCH   1  22
ATOM     21  C   UNL     1       5.093   5.673  15.841  0.00  0.00    +0.000 C 
ATOM     22  C   UNL     1       5.531   6.439  17.094  0.00  0.00    +0.000 C 
BRANCH  22  23
ATOM     23  C   UNL     1       7.041   6.589  17.137  0.00  0.00    +0.000 C 
ATOM     24  C   UNL     1       7.734   7.830  17.661  0.00  0.00    +0.000 C 
ATOM     25  C   UNL     1       7.742   6.572  18.477  0.00  0.00    +0.000 C 
ENDBRANCH  22  23
ENDBRANCH   1  22
BRANCH   5  26
ATOM     26  C   UNL     1       1.524   3.196  20.789  0.00  0.00    +0.000 C 
ATOM     27  C   UNL     1       2.708   2.523  21.500  0.00  0.00    +0.000 C 
BRANCH  26  28
ATOM     28  C   UNL     1       1.594   2.894  19.299  0.00  0.00    +0.000 C 
ATOM     29  C   UNL     1       2.314   1.658  18.813  0.00  0.00    +0.000 C 
ATOM     30  C   UNL     1       0.836   1.799  18.577  0.00  0.00    +0.000 C 
ENDBRANCH  26  28
ENDBRANCH   5  26
TORSDOF 6
ENDMDL
MODEL 9
REMARK VINA RESULT:      -7.3      5.016      8.286
REMARK  Name = 
REMARK  8 active torsions:
REMARK  status: ('A' for Active; 'I' for Inactive)
REMARK    1  A    between atoms: C_1  and  C_2
REMARK    2  A    between atoms: C_2  and  N_3
REMARK    3  A    between atoms: C_2  and  C_26
REMARK    4  A    between atoms: N_7  and  C_8
REMARK    5  A    between atoms: C_8  and  C_9
REMARK    6  A    between atoms: C_8  and  C_10
REMARK    7  A    between atoms: C_14  and  C_15
REMARK    8  A    between atoms: C_19  and  C_20
REMARK                            x       y       z     vdW  Elec       q    Type
REMARK                         _______ _______ _______ _____ _____    ______ ____
ROOT
ATOM      1  N   UNL     1       6.287   6.269  18.621  0.00  0.00    +0.000 N 
ATOM      2  C   UNL     1       5.702   5.437  17.662  0.00  0.00    +0.000 A 
ATOM      3  N   UNL     1       4.553   4.850  17.987  0.00  0.00    +0.000 NA
ATOM      4  C   UNL     1       3.952   4.121  17.052  0.00  0.00    +0.000 A 
ATOM      5  N   UNL     1       2.735   3.509  17.290  0.00  0.00    +0.000 N 
ATOM      6  N   UNL     1       4.436   3.970  15.829  0.00  0.00    +0.000 NA
ATOM      7  C   UNL     1       5.599   4.584  15.583  0.00  0.00    +0.000 A 
ATOM      8  N   UNL     1       6.260   5.340  16.470  0.00  0.00    +0.000 NA
ATOM      9  H   UNL     1       5.842   7.166  18.463  0.00  0.00    +0.000 HD
ATOM     10  H   UNL     1       2.463   2.929  16.509  0.00  0.00    +0.000 HD
ENDROOT
BRANCH   7  11
ATOM     11  C   UNL     1       6.234   4.407  14.250  0.00  0.00    +0.000 A 
ATOM     12  N   UNL     1       7.191   5.278  13.863  0.00  0.00    +0.000 NA
ATOM     13  C   UNL     1       7.737   5.080  12.650  0.00  0.00    +0.000 A 
ATOM     14  C   UNL     1       7.363   4.068  11.799  0.00  0.00    +0.000 A 
ATOM     15  C   UNL     1       6.365   3.217  12.257  0.00  0.00    +0.000 A 
ATOM     16  N   UNL     1       5.809   3.375  13.483  0.00  0.00    +0.000 NA
BRANCH  15  17
ATOM     17  C   UNL     1       5.862   2.084  11.375  0.00  0.00    +0.000 C 
ATOM     18  F   UNL     1       6.690   1.813  10.322  0.00  0.00    +0.000 F 
ATOM     19  F   UNL     1       5.729   0.905  12.044  0.00  0.00    +0.000 F 
ATOM     20  F   UNL     1       4.645   2.345  10.818  0.00  0.00    +0.000 F 
ENDBRANCH  15  17
ENDBRANCH   7  11
BRANCH   1  22
ATOM     21  C   UNL     1       8.457   5.714  19.681  0.00  0.00    +0.000 C 
ATOM     22  C   UNL     1       7.751   6.433  18.526  0.00  0.00    +0.000 C 
BRANCH  22  23
ATOM     23  C   UNL     1       8.022   7.926  18.570  0.00  0.00    +0.000 C 
ATOM     24  C   UNL     1       8.676   8.682  17.432  0.00  0.00    +0.000 C 
ATOM     25  C   UNL     1       7.208   8.847  17.690  0.00  0.00    +0.000 C 
ENDBRANCH  22  23
ENDBRANCH   1  22
BRANCH   5  26
ATOM     26  C   UNL     1       2.376   3.069  18.630  0.00  0.00    +0.000 C 
ATOM     27  C   UNL     1       1.761   1.661  18.629  0.00  0.00    +0.000 C 
BRANCH  26  28
ATOM     28  C   UNL     1       1.409   4.041  19.292  0.00  0.00    +0.000 C 
ATOM     29  C   UNL     1       0.995   3.830  20.729  0.00  0.00    +0.000 C 
ATOM     30  C   UNL     1       1.764   5.066  20.350  0.00  0.00    +0.000 C 
ENDBRANCH  26  28
ENDBRANCH   5  26
TORSDOF 6
ENDMDL
