MODEL 1
REMARK VINA RESULT:      -9.4      0.000      0.000
REMARK  Name = 
REMARK  7 active torsions:
REMARK  status: ('A' for Active; 'I' for Inactive)
REMARK    1  A    between atoms: C_2  and  C_3
REMARK    2  A    between atoms: C_9  and  N_10
REMARK    3  A    between atoms: C_12  and  C_13
REMARK    4  A    between atoms: C_16  and  O_17
REMARK    5  A    between atoms: O_17  and  C_18
REMARK    6  A    between atoms: C_28  and  C_29
REMARK    7  A    between atoms: C_32  and  N_33
REMARK                            x       y       z     vdW  Elec       q    Type
REMARK                         _______ _______ _______ _____ _____    ______ ____
ROOT
ATOM      1  N   UNL     1       4.085   4.923  17.422  0.00  0.00    +0.000 N 
ATOM      2  N   UNL     1       3.744   6.237  17.427  0.00  0.00    +0.000 NA
ATOM      3  C   UNL     1       2.855   6.365  18.439  0.00  0.00    +0.000 A 
ATOM      4  C   UNL     1       2.661   5.110  19.111  0.00  0.00    +0.000 A 
ATOM      5  C   UNL     1       3.475   4.218  18.432  0.00  0.00    +0.000 A 
ENDROOT
BRANCH   1  12
ATOM      6  C   UNL     1       5.862   3.714  12.929  0.00  0.00    +0.000 C 
ATOM      7  O   UNL     1       6.862   3.357  12.309  0.00  0.00    +0.000 OA
ATOM      8  N   UNL     1       5.927   4.437  14.111  0.00  0.00    +0.000 N 
ATOM      9  C   UNL     1       7.236   4.920  14.538  0.00  0.00    +0.000 C 
ATOM     10  C   UNL     1       7.578   4.357  15.909  0.00  0.00    +0.000 C 
ATOM     11  C   UNL     1       6.516   4.733  16.942  0.00  0.00    +0.000 C 
ATOM     12  C   UNL     1       5.084   4.404  16.475  0.00  0.00    +0.000 C 
ATOM     13  C   UNL     1       4.814   4.813  15.012  0.00  0.00    +0.000 C 
BRANCH   6  15
ATOM     14  C   UNL     1       4.356   3.068  11.102  0.00  0.00    +0.000 C 
ATOM     15  C   UNL     1       4.514   3.363  12.400  0.00  0.00    +0.000 C 
ENDBRANCH   6  15
ENDBRANCH   1  12
BRANCH   3  16
ATOM     16  C   UNL     1       2.285   7.680  18.802  0.00  0.00    +0.000 A 
ATOM     17  C   UNL     1       2.138   8.708  17.853  0.00  0.00    +0.000 A 
ATOM     18  C   UNL     1       1.298   9.804  18.103  0.00  0.00    +0.000 A 
ATOM     19  C   UNL     1       0.650   9.925  19.333  0.00  0.00    +0.000 A 
ATOM     20  C   UNL     1       0.963   9.021  20.351  0.00  0.00    +0.000 A 
ATOM     21  C   UNL     1       1.748   7.893  20.078  0.00  0.00    +0.000 A 
BRANCH  19  22
ATOM     22  O   UNL     1      -0.238  10.970  19.467  0.00  0.00    +0.000 OA
BRANCH  22  23
ATOM     23  C   UNL     1      -1.488  10.907  18.879  0.00  0.00    +0.000 A 
ATOM     24  C   UNL     1      -1.874   9.965  17.919  0.00  0.00    +0.000 A 
ATOM     25  C   UNL     1      -3.189   9.939  17.444  0.00  0.00    +0.000 A 
ATOM     26  C   UNL     1      -4.098  10.896  17.879  0.00  0.00    +0.000 A 
ATOM     27  F   UNL     1      -5.359  10.858  17.429  0.00  0.00    +0.000 F 
ATOM     28  C   UNL     1      -3.715  11.893  18.765  0.00  0.00    +0.000 A 
ATOM     29  C   UNL     1      -2.410  11.893  19.258  0.00  0.00    +0.000 A 
ATOM     30  F   UNL     1      -2.051  12.865  20.109  0.00  0.00    +0.000 F 
ENDBRANCH  22  23
ENDBRANCH  19  22
ENDBRANCH   3  16
BRANCH   4  31
ATOM     31  C   UNL     1       1.858   4.720  20.262  0.00  0.00    +0.000 C 
ATOM     32  N   UNL     1       2.423   4.823  21.499  0.00  0.00    +0.000 N 
ATOM     33  O   UNL     1       0.719   4.266  20.164  0.00  0.00    +0.000 OA
ATOM     34  H   UNL     1       3.390   5.069  21.651  0.00  0.00    +0.000 HD
ATOM     35  H   UNL     1       1.864   4.534  22.289  0.00  0.00    +0.000 HD
ENDBRANCH   4  31
BRANCH   5  36
ATOM     36  N   UNL     1       3.717   2.915  18.702  0.00  0.00    +0.000 N 
ATOM     37  H   UNL     1       4.289   2.695  19.524  0.00  0.00    +0.000 HD
ATOM     38  H   UNL     1       3.115   2.146  18.427  0.00  0.00    +0.000 HD
ENDBRANCH   5  36
TORSDOF 7
ENDMDL
MODEL 2
REMARK VINA RESULT:      -9.1      4.878     10.798
REMARK  Name = 
REMARK  7 active torsions:
REMARK  status: ('A' for Active; 'I' for Inactive)
REMARK    1  A    between atoms: C_2  and  C_3
REMARK    2  A    between atoms: C_9  and  N_10
REMARK    3  A    between atoms: C_12  and  C_13
REMARK    4  A    between atoms: C_16  and  O_17
REMARK    5  A    between atoms: O_17  and  C_18
REMARK    6  A    between atoms: C_28  and  C_29
REMARK    7  A    between atoms: C_32  and  N_33
REMARK                            x       y       z     vdW  Elec       q    Type
REMARK                         _______ _______ _______ _____ _____    ______ ____
ROOT
ATOM      1  N   UNL     1      -1.600  12.400  19.556  0.00  0.00    +0.000 N 
ATOM      2  N   UNL     1      -1.186  11.126  19.777  0.00  0.00    +0.000 NA
ATOM      3  C   UNL     1       0.120  11.115  19.425  0.00  0.00    +0.000 A 
ATOM      4  C   UNL     1       0.549  12.422  19.009  0.00  0.00    +0.000 A 
ATOM      5  C   UNL     1      -0.583  13.215  19.118  0.00  0.00    +0.000 A 
ENDROOT
BRANCH   1  12
ATOM      6  C   UNL     1      -6.492  12.856  18.737  0.00  0.00    +0.000 C 
ATOM      7  O   UNL     1      -7.566  13.179  19.239  0.00  0.00    +0.000 OA
ATOM      8  N   UNL     1      -5.419  12.394  19.485  0.00  0.00    +0.000 N 
ATOM      9  C   UNL     1      -5.644  12.136  20.904  0.00  0.00    +0.000 C 
ATOM     10  C   UNL     1      -4.710  12.993  21.744  0.00  0.00    +0.000 C 
ATOM     11  C   UNL     1      -3.247  12.728  21.388  0.00  0.00    +0.000 C 
ATOM     12  C   UNL     1      -2.975  12.816  19.872  0.00  0.00    +0.000 C 
ATOM     13  C   UNL     1      -4.044  12.098  19.023  0.00  0.00    +0.000 C 
BRANCH   6  15
ATOM     14  C   UNL     1      -6.784  14.030  16.602  0.00  0.00    +0.000 C 
ATOM     15  C   UNL     1      -6.317  12.960  17.261  0.00  0.00    +0.000 C 
ENDBRANCH   6  15
ENDBRANCH   1  12
BRANCH   3  16
ATOM     16  C   UNL     1       0.949   9.900  19.577  0.00  0.00    +0.000 A 
ATOM     17  C   UNL     1       1.041   9.219  20.804  0.00  0.00    +0.000 A 
ATOM     18  C   UNL     1       1.532   7.905  20.864  0.00  0.00    +0.000 A 
ATOM     19  C   UNL     1       2.003   7.280  19.708  0.00  0.00    +0.000 A 
ATOM     20  C   UNL     1       2.112   8.028  18.534  0.00  0.00    +0.000 A 
ATOM     21  C   UNL     1       1.561   9.315  18.462  0.00  0.00    +0.000 A 
BRANCH  19  22
ATOM     22  O   UNL     1       2.371   5.957  19.823  0.00  0.00    +0.000 OA
BRANCH  22  23
ATOM     23  C   UNL     1       3.290   5.408  18.949  0.00  0.00    +0.000 A 
ATOM     24  C   UNL     1       4.678   5.538  19.061  0.00  0.00    +0.000 A 
ATOM     25  C   UNL     1       5.524   4.876  18.166  0.00  0.00    +0.000 A 
ATOM     26  C   UNL     1       4.981   4.138  17.120  0.00  0.00    +0.000 A 
ATOM     27  F   UNL     1       5.798   3.496  16.275  0.00  0.00    +0.000 F 
ATOM     28  C   UNL     1       3.608   4.064  16.939  0.00  0.00    +0.000 A 
ATOM     29  C   UNL     1       2.770   4.703  17.854  0.00  0.00    +0.000 A 
ATOM     30  F   UNL     1       1.445   4.629  17.663  0.00  0.00    +0.000 F 
ENDBRANCH  22  23
ENDBRANCH  19  22
ENDBRANCH   3  16
BRANCH   4  31
ATOM     31  C   UNL     1       1.837  12.948  18.578  0.00  0.00    +0.000 C 
ATOM     32  N   UNL     1       2.347  12.497  17.396  0.00  0.00    +0.000 N 
ATOM     33  O   UNL     1       2.498  13.741  19.248  0.00  0.00    +0.000 OA
ATOM     34  H   UNL     1       1.925  11.759  16.854  0.00  0.00    +0.000 HD
ATOM     35  H   UNL     1       3.248  12.855  17.115  0.00  0.00    +0.000 HD
ENDBRANCH   4  31
BRANCH   5  36
ATOM     36  N   UNL     1      -0.710  14.546  18.914  0.00  0.00    +0.000 N 
ATOM     37  H   UNL     1       0.066  15.150  19.203  0.00  0.00    +0.000 HD
ATOM     38  H   UNL     1      -1.287  14.967  18.194  0.00  0.00    +0.000 HD
ENDBRANCH   5  36
TORSDOF 7
ENDMDL
MODEL 3
REMARK VINA RESULT:      -9.0      1.796      2.319
REMARK  Name = 
REMARK  7 active torsions:
REMARK  status: ('A' for Active; 'I' for Inactive)
REMARK    1  A    between atoms: C_2  and  C_3
REMARK    2  A    between atoms: C_9  and  N_10
REMARK    3  A    between atoms: C_12  and  C_13
REMARK    4  A    between atoms: C_16  and  O_17
REMARK    5  A    between atoms: O_17  and  C_18
REMARK    6  A    between atoms: C_28  and  C_29
REMARK    7  A    between atoms: C_32  and  N_33
REMARK                            x       y       z     vdW  Elec       q    Type
REMARK                         _______ _______ _______ _____ _____    ______ ____
ROOT
ATOM      1  N   UNL     1       4.024   4.643  17.858  0.00  0.00    +0.000 N 
ATOM      2  N   UNL     1       3.589   5.926  17.952  0.00  0.00    +0.000 NA
ATOM      3  C   UNL     1       2.664   5.913  18.940  0.00  0.00    +0.000 A 
ATOM      4  C   UNL     1       2.541   4.598  19.507  0.00  0.00    +0.000 A 
ATOM      5  C   UNL     1       3.436   3.820  18.790  0.00  0.00    +0.000 A 
ENDROOT
BRANCH   1  12
ATOM      6  C   UNL     1       6.013   3.919  13.350  0.00  0.00    +0.000 C 
ATOM      7  O   UNL     1       7.054   3.681  12.740  0.00  0.00    +0.000 OA
ATOM      8  N   UNL     1       5.992   4.548  14.586  0.00  0.00    +0.000 N 
ATOM      9  C   UNL     1       7.250   5.084  15.095  0.00  0.00    +0.000 C 
ATOM     10  C   UNL     1       7.591   4.438  16.429  0.00  0.00    +0.000 C 
ATOM     11  C   UNL     1       6.474   4.658  17.451  0.00  0.00    +0.000 C 
ATOM     12  C   UNL     1       5.083   4.270  16.910  0.00  0.00    +0.000 C 
ATOM     13  C   UNL     1       4.829   4.775  15.474  0.00  0.00    +0.000 C 
BRANCH   6  15
ATOM     14  C   UNL     1       4.657   3.090  11.480  0.00  0.00    +0.000 C 
ATOM     15  C   UNL     1       4.710   3.520  12.749  0.00  0.00    +0.000 C 
ENDBRANCH   6  15
ENDBRANCH   1  12
BRANCH   3  16
ATOM     16  C   UNL     1       1.991   7.152  19.382  0.00  0.00    +0.000 A 
ATOM     17  C   UNL     1       1.631   7.356  20.727  0.00  0.00    +0.000 A 
ATOM     18  C   UNL     1       1.318   8.639  21.202  0.00  0.00    +0.000 A 
ATOM     19  C   UNL     1       1.292   9.724  20.325  0.00  0.00    +0.000 A 
ATOM     20  C   UNL     1       1.437   9.488  18.956  0.00  0.00    +0.000 A 
ATOM     21  C   UNL     1       1.814   8.220  18.493  0.00  0.00    +0.000 A 
BRANCH  19  22
ATOM     22  O   UNL     1       1.080  10.967  20.880  0.00  0.00    +0.000 OA
BRANCH  22  23
ATOM     23  C   UNL     1      -0.173  11.321  21.346  0.00  0.00    +0.000 A 
ATOM     24  C   UNL     1      -0.643  11.080  22.641  0.00  0.00    +0.000 A 
ATOM     25  C   UNL     1      -1.900  11.550  23.035  0.00  0.00    +0.000 A 
ATOM     26  C   UNL     1      -2.713  12.201  22.115  0.00  0.00    +0.000 A 
ATOM     27  F   UNL     1      -3.910  12.659  22.504  0.00  0.00    +0.000 F 
ATOM     28  C   UNL     1      -2.303  12.376  20.802  0.00  0.00    +0.000 A 
ATOM     29  C   UNL     1      -1.036  11.932  20.424  0.00  0.00    +0.000 A 
ATOM     30  F   UNL     1      -0.655  12.102  19.150  0.00  0.00    +0.000 F 
ENDBRANCH  22  23
ENDBRANCH  19  22
ENDBRANCH   3  16
BRANCH   4  31
ATOM     31  C   UNL     1       1.735   4.064  20.596  0.00  0.00    +0.000 C 
ATOM     32  N   UNL     1       0.466   3.654  20.309  0.00  0.00    +0.000 N 
ATOM     33  O   UNL     1       2.129   4.009  21.760  0.00  0.00    +0.000 OA
ATOM     34  H   UNL     1       0.031   3.781  19.407  0.00  0.00    +0.000 HD
ATOM     35  H   UNL     1      -0.090   3.301  21.074  0.00  0.00    +0.000 HD
ENDBRANCH   4  31
BRANCH   5  36
ATOM     36  N   UNL     1       3.763   2.520  18.968  0.00  0.00    +0.000 N 
ATOM     37  H   UNL     1       3.114   1.810  18.613  0.00  0.00    +0.000 HD
ATOM     38  H   UNL     1       4.710   2.170  19.063  0.00  0.00    +0.000 HD
ENDBRANCH   5  36
TORSDOF 7
ENDMDL
MODEL 4
REMARK VINA RESULT:      -9.0      5.081     10.794
REMARK  Name = 
REMARK  7 active torsions:
REMARK  status: ('A' for Active; 'I' for Inactive)
REMARK    1  A    between atoms: C_2  and  C_3
REMARK    2  A    between atoms: C_9  and  N_10
REMARK    3  A    between atoms: C_12  and  C_13
REMARK    4  A    between atoms: C_16  and  O_17
REMARK    5  A    between atoms: O_17  and  C_18
REMARK    6  A    between atoms: C_28  and  C_29
REMARK    7  A    between atoms: C_32  and  N_33
REMARK                            x       y       z     vdW  Elec       q    Type
REMARK                         _______ _______ _______ _____ _____    ______ ____
ROOT
ATOM      1  N   UNL     1      -1.826  12.393  19.496  0.00  0.00    +0.000 N 
ATOM      2  N   UNL     1      -1.518  11.071  19.496  0.00  0.00    +0.000 NA
ATOM      3  C   UNL     1      -0.202  11.016  19.188  0.00  0.00    +0.000 A 
ATOM      4  C   UNL     1       0.341  12.337  19.028  0.00  0.00    +0.000 A 
ATOM      5  C   UNL     1      -0.732  13.187  19.243  0.00  0.00    +0.000 A 
ENDROOT
BRANCH   1  12
ATOM      6  C   UNL     1      -6.721  12.986  18.793  0.00  0.00    +0.000 C 
ATOM      7  O   UNL     1      -7.772  13.350  19.317  0.00  0.00    +0.000 OA
ATOM      8  N   UNL     1      -5.644  12.503  19.522  0.00  0.00    +0.000 N 
ATOM      9  C   UNL     1      -5.840  12.277  20.950  0.00  0.00    +0.000 C 
ATOM     10  C   UNL     1      -4.858  13.119  21.751  0.00  0.00    +0.000 C 
ATOM     11  C   UNL     1      -3.414  12.803  21.362  0.00  0.00    +0.000 C 
ATOM     12  C   UNL     1      -3.178  12.856  19.839  0.00  0.00    +0.000 C 
ATOM     13  C   UNL     1      -4.291  12.157  19.030  0.00  0.00    +0.000 C 
BRANCH   6  15
ATOM     14  C   UNL     1      -6.980  14.157  16.652  0.00  0.00    +0.000 C 
ATOM     15  C   UNL     1      -6.582  13.060  17.312  0.00  0.00    +0.000 C 
ENDBRANCH   6  15
ENDBRANCH   1  12
BRANCH   3  16
ATOM     16  C   UNL     1       0.527   9.730  19.143  0.00  0.00    +0.000 A 
ATOM     17  C   UNL     1       1.089   9.243  17.949  0.00  0.00    +0.000 A 
ATOM     18  C   UNL     1       2.056   8.225  17.972  0.00  0.00    +0.000 A 
ATOM     19  C   UNL     1       2.421   7.632  19.181  0.00  0.00    +0.000 A 
ATOM     20  C   UNL     1       1.710   7.964  20.337  0.00  0.00    +0.000 A 
ATOM     21  C   UNL     1       0.794   9.025  20.323  0.00  0.00    +0.000 A 
BRANCH  19  22
ATOM     22  O   UNL     1       3.449   6.715  19.138  0.00  0.00    +0.000 OA
BRANCH  22  23
ATOM     23  C   UNL     1       3.179   5.360  19.164  0.00  0.00    +0.000 A 
ATOM     24  C   UNL     1       2.769   4.647  20.295  0.00  0.00    +0.000 A 
ATOM     25  C   UNL     1       2.445   3.290  20.196  0.00  0.00    +0.000 A 
ATOM     26  C   UNL     1       2.596   2.632  18.981  0.00  0.00    +0.000 A 
ATOM     27  F   UNL     1       2.272   1.335  18.891  0.00  0.00    +0.000 F 
ATOM     28  C   UNL     1       3.082   3.297  17.865  0.00  0.00    +0.000 A 
ATOM     29  C   UNL     1       3.373   4.658  17.965  0.00  0.00    +0.000 A 
ATOM     30  F   UNL     1       3.849   5.288  16.881  0.00  0.00    +0.000 F 
ENDBRANCH  22  23
ENDBRANCH  19  22
ENDBRANCH   3  16
BRANCH   4  31
ATOM     31  C   UNL     1       1.683  12.825  18.738  0.00  0.00    +0.000 C 
ATOM     32  N   UNL     1       2.198  12.578  17.500  0.00  0.00    +0.000 N 
ATOM     33  O   UNL     1       2.380  13.406  19.568  0.00  0.00    +0.000 OA
ATOM     34  H   UNL     1       1.738  12.003  16.810  0.00  0.00    +0.000 HD
ATOM     35  H   UNL     1       3.135  12.905  17.316  0.00  0.00    +0.000 HD
ENDBRANCH   4  31
BRANCH   5  36
ATOM     36  N   UNL     1      -0.751  14.539  19.278  0.00  0.00    +0.000 N 
ATOM     37  H   UNL     1      -0.387  15.044  18.464  0.00  0.00    +0.000 HD
ATOM     38  H   UNL     1      -1.401  15.094  19.824  0.00  0.00    +0.000 HD
ENDBRANCH   5  36
TORSDOF 7
ENDMDL
MODEL 5
REMARK VINA RESULT:      -8.9      1.695      2.538
REMARK  Name = 
REMARK  7 active torsions:
REMARK  status: ('A' for Active; 'I' for Inactive)
REMARK    1  A    between atoms: C_2  and  C_3
REMARK    2  A    between atoms: C_9  and  N_10
REMARK    3  A    between atoms: C_12  and  C_13
REMARK    4  A    between atoms: C_16  and  O_17
REMARK    5  A    between atoms: O_17  and  C_18
REMARK    6  A    between atoms: C_28  and  C_29
REMARK    7  A    between atoms: C_32  and  N_33
REMARK                            x       y       z     vdW  Elec       q    Type
REMARK                         _______ _______ _______ _____ _____    ______ ____
ROOT
ATOM      1  N   UNL     1       4.041   4.793  17.344  0.00  0.00    +0.000 N 
ATOM      2  N   UNL     1       3.726   6.111  17.434  0.00  0.00    +0.000 NA
ATOM      3  C   UNL     1       2.822   6.189  18.437  0.00  0.00    +0.000 A 
ATOM      4  C   UNL     1       2.591   4.895  19.019  0.00  0.00    +0.000 A 
ATOM      5  C   UNL     1       3.398   4.034  18.294  0.00  0.00    +0.000 A 
ENDROOT
BRANCH   1  12
ATOM      6  C   UNL     1       5.796   3.663  12.822  0.00  0.00    +0.000 C 
ATOM      7  O   UNL     1       6.800   3.351  12.186  0.00  0.00    +0.000 OA
ATOM      8  N   UNL     1       5.848   4.388  14.004  0.00  0.00    +0.000 N 
ATOM      9  C   UNL     1       7.141   4.929  14.410  0.00  0.00    +0.000 C 
ATOM     10  C   UNL     1       7.530   4.380  15.774  0.00  0.00    +0.000 C 
ATOM     11  C   UNL     1       6.469   4.710  16.825  0.00  0.00    +0.000 C 
ATOM     12  C   UNL     1       5.045   4.318  16.382  0.00  0.00    +0.000 C 
ATOM     13  C   UNL     1       4.734   4.715  14.923  0.00  0.00    +0.000 C 
BRANCH   6  15
ATOM     14  C   UNL     1       4.090   3.554  11.061  0.00  0.00    +0.000 C 
ATOM     15  C   UNL     1       4.456   3.254  12.315  0.00  0.00    +0.000 C 
ENDBRANCH   6  15
ENDBRANCH   1  12
BRANCH   3  16
ATOM     16  C   UNL     1       2.272   7.488  18.880  0.00  0.00    +0.000 A 
ATOM     17  C   UNL     1       2.031   8.534  17.971  0.00  0.00    +0.000 A 
ATOM     18  C   UNL     1       1.205   9.615  18.320  0.00  0.00    +0.000 A 
ATOM     19  C   UNL     1       0.666   9.699  19.604  0.00  0.00    +0.000 A 
ATOM     20  C   UNL     1       1.077   8.777  20.570  0.00  0.00    +0.000 A 
ATOM     21  C   UNL     1       1.847   7.665  20.202  0.00  0.00    +0.000 A 
BRANCH  19  22
ATOM     22  O   UNL     1      -0.218  10.729  19.841  0.00  0.00    +0.000 OA
BRANCH  22  23
ATOM     23  C   UNL     1       0.180  12.043  19.677  0.00  0.00    +0.000 A 
ATOM     24  C   UNL     1       1.070  12.720  20.517  0.00  0.00    +0.000 A 
ATOM     25  C   UNL     1       1.469  14.027  20.218  0.00  0.00    +0.000 A 
ATOM     26  C   UNL     1       0.925  14.679  19.118  0.00  0.00    +0.000 A 
ATOM     27  F   UNL     1       1.320  15.926  18.831  0.00  0.00    +0.000 F 
ATOM     28  C   UNL     1      -0.025  14.059  18.320  0.00  0.00    +0.000 A 
ATOM     29  C   UNL     1      -0.394  12.745  18.607  0.00  0.00    +0.000 A 
ATOM     30  F   UNL     1      -1.317  12.159  17.831  0.00  0.00    +0.000 F 
ENDBRANCH  22  23
ENDBRANCH  19  22
ENDBRANCH   3  16
BRANCH   4  31
ATOM     31  C   UNL     1       1.759   4.445  20.127  0.00  0.00    +0.000 C 
ATOM     32  N   UNL     1       2.210   4.668  21.395  0.00  0.00    +0.000 N 
ATOM     33  O   UNL     1       0.699   3.840  19.970  0.00  0.00    +0.000 OA
ATOM     34  H   UNL     1       3.122   5.046  21.603  0.00  0.00    +0.000 HD
ATOM     35  H   UNL     1       1.634   4.337  22.155  0.00  0.00    +0.000 HD
ENDBRANCH   4  31
BRANCH   5  36
ATOM     36  N   UNL     1       3.609   2.711  18.478  0.00  0.00    +0.000 N 
ATOM     37  H   UNL     1       3.114   2.250  19.248  0.00  0.00    +0.000 HD
ATOM     38  H   UNL     1       3.888   2.063  17.749  0.00  0.00    +0.000 HD
ENDBRANCH   5  36
TORSDOF 7
ENDMDL
MODEL 6
REMARK VINA RESULT:      -8.9      5.114     10.718
REMARK  Name = 
REMARK  7 active torsions:
REMARK  status: ('A' for Active; 'I' for Inactive)
REMARK    1  A    between atoms: C_2  and  C_3
REMARK    2  A    between atoms: C_9  and  N_10
REMARK    3  A    between atoms: C_12  and  C_13
REMARK    4  A    between atoms: C_16  and  O_17
REMARK    5  A    between atoms: O_17  and  C_18
REMARK    6  A    between atoms: C_28  and  C_29
REMARK    7  A    between atoms: C_32  and  N_33
REMARK                            x       y       z     vdW  Elec       q    Type
REMARK                         _______ _______ _______ _____ _____    ______ ____
ROOT
ATOM      1  N   UNL     1      -1.909  11.425  18.793  0.00  0.00    +0.000 N 
ATOM      2  N   UNL     1      -1.276  10.240  18.989  0.00  0.00    +0.000 NA
ATOM      3  C   UNL     1       0.043  10.536  18.952  0.00  0.00    +0.000 A 
ATOM      4  C   UNL     1       0.246  11.946  18.767  0.00  0.00    +0.000 A 
ATOM      5  C   UNL     1      -1.031  12.477  18.679  0.00  0.00    +0.000 A 
ENDROOT
BRANCH   1  12
ATOM      6  C   UNL     1      -6.329  12.860  20.586  0.00  0.00    +0.000 C 
ATOM      7  O   UNL     1      -7.536  12.908  20.357  0.00  0.00    +0.000 OA
ATOM      8  N   UNL     1      -5.372  12.830  19.582  0.00  0.00    +0.000 N 
ATOM      9  C   UNL     1      -5.826  13.024  18.209  0.00  0.00    +0.000 C 
ATOM     10  C   UNL     1      -5.460  11.814  17.362  0.00  0.00    +0.000 C 
ATOM     11  C   UNL     1      -3.953  11.558  17.387  0.00  0.00    +0.000 C 
ATOM     12  C   UNL     1      -3.377  11.513  18.816  0.00  0.00    +0.000 C 
ATOM     13  C   UNL     1      -3.910  12.644  19.720  0.00  0.00    +0.000 C 
BRANCH   6  15
ATOM     14  C   UNL     1      -6.737  12.692  23.000  0.00  0.00    +0.000 C 
ATOM     15  C   UNL     1      -5.857  12.831  21.998  0.00  0.00    +0.000 C 
ENDBRANCH   6  15
ENDBRANCH   1  12
BRANCH   3  16
ATOM     16  C   UNL     1       1.072   9.499  19.183  0.00  0.00    +0.000 A 
ATOM     17  C   UNL     1       1.205   8.857  20.428  0.00  0.00    +0.000 A 
ATOM     18  C   UNL     1       1.928   7.659  20.546  0.00  0.00    +0.000 A 
ATOM     19  C   UNL     1       2.586   7.125  19.437  0.00  0.00    +0.000 A 
ATOM     20  C   UNL     1       2.634   7.872  18.258  0.00  0.00    +0.000 A 
ATOM     21  C   UNL     1       1.859   9.032  18.123  0.00  0.00    +0.000 A 
BRANCH  19  22
ATOM     22  O   UNL     1       3.186   5.896  19.603  0.00  0.00    +0.000 OA
BRANCH  22  23
ATOM     23  C   UNL     1       2.464   4.733  19.409  0.00  0.00    +0.000 A 
ATOM     24  C   UNL     1       1.674   4.111  20.381  0.00  0.00    +0.000 A 
ATOM     25  C   UNL     1       0.920   2.978  20.058  0.00  0.00    +0.000 A 
ATOM     26  C   UNL     1       1.009   2.429  18.785  0.00  0.00    +0.000 A 
ATOM     27  F   UNL     1       0.274   1.352  18.480  0.00  0.00    +0.000 F 
ATOM     28  C   UNL     1       1.852   2.979  17.830  0.00  0.00    +0.000 A 
ATOM     29  C   UNL     1       2.577   4.127  18.150  0.00  0.00    +0.000 A 
ATOM     30  F   UNL     1       3.393   4.644  17.220  0.00  0.00    +0.000 F 
ENDBRANCH  22  23
ENDBRANCH  19  22
ENDBRANCH   3  16
BRANCH   4  31
ATOM     31  C   UNL     1       1.445  12.771  18.697  0.00  0.00    +0.000 C 
ATOM     32  N   UNL     1       2.267  12.611  17.621  0.00  0.00    +0.000 N 
ATOM     33  O   UNL     1       1.766  13.565  19.579  0.00  0.00    +0.000 OA
ATOM     34  H   UNL     1       2.136  11.896  16.922  0.00  0.00    +0.000 HD
ATOM     35  H   UNL     1       3.104  13.175  17.591  0.00  0.00    +0.000 HD
ENDBRANCH   4  31
BRANCH   5  36
ATOM     36  N   UNL     1      -1.407  13.772  18.572  0.00  0.00    +0.000 N 
ATOM     37  H   UNL     1      -1.722  14.251  19.422  0.00  0.00    +0.000 HD
ATOM     38  H   UNL     1      -1.070  14.414  17.863  0.00  0.00    +0.000 HD
ENDBRANCH   5  36
TORSDOF 7
ENDMDL
MODEL 7
REMARK VINA RESULT:      -8.9      4.901     10.761
REMARK  Name = 
REMARK  7 active torsions:
REMARK  status: ('A' for Active; 'I' for Inactive)
REMARK    1  A    between atoms: C_2  and  C_3
REMARK    2  A    between atoms: C_9  and  N_10
REMARK    3  A    between atoms: C_12  and  C_13
REMARK    4  A    between atoms: C_16  and  O_17
REMARK    5  A    between atoms: O_17  and  C_18
REMARK    6  A    between atoms: C_28  and  C_29
REMARK    7  A    between atoms: C_32  and  N_33
REMARK                            x       y       z     vdW  Elec       q    Type
REMARK                         _______ _______ _______ _____ _____    ______ ____
ROOT
ATOM      1  N   UNL     1      -1.772  12.543  19.563  0.00  0.00    +0.000 N 
ATOM      2  N   UNL     1      -1.504  11.212  19.607  0.00  0.00    +0.000 NA
ATOM      3  C   UNL     1      -0.196  11.106  19.279  0.00  0.00    +0.000 A 
ATOM      4  C   UNL     1       0.383  12.403  19.061  0.00  0.00    +0.000 A 
ATOM      5  C   UNL     1      -0.660  13.292  19.262  0.00  0.00    +0.000 A 
ENDROOT
BRANCH   1  12
ATOM      6  C   UNL     1      -6.699  13.067  19.053  0.00  0.00    +0.000 C 
ATOM      7  O   UNL     1      -7.719  13.509  19.578  0.00  0.00    +0.000 OA
ATOM      8  N   UNL     1      -5.583  12.684  19.783  0.00  0.00    +0.000 N 
ATOM      9  C   UNL     1      -5.700  12.662  21.237  0.00  0.00    +0.000 C 
ATOM     10  C   UNL     1      -4.675  13.600  21.857  0.00  0.00    +0.000 C 
ATOM     11  C   UNL     1      -3.254  13.222  21.437  0.00  0.00    +0.000 C 
ATOM     12  C   UNL     1      -3.104  13.059  19.911  0.00  0.00    +0.000 C 
ATOM     13  C   UNL     1      -4.259  12.262  19.270  0.00  0.00    +0.000 C 
BRANCH   6  15
ATOM     14  C   UNL     1      -6.797  14.010  16.790  0.00  0.00    +0.000 C 
ATOM     15  C   UNL     1      -6.642  12.931  17.571  0.00  0.00    +0.000 C 
ENDBRANCH   6  15
ENDBRANCH   1  12
BRANCH   3  16
ATOM     16  C   UNL     1       0.493   9.797  19.270  0.00  0.00    +0.000 A 
ATOM     17  C   UNL     1       1.086   9.285  18.102  0.00  0.00    +0.000 A 
ATOM     18  C   UNL     1       2.019   8.237  18.169  0.00  0.00    +0.000 A 
ATOM     19  C   UNL     1       2.316   7.640  19.395  0.00  0.00    +0.000 A 
ATOM     20  C   UNL     1       1.570   8.002  20.519  0.00  0.00    +0.000 A 
ATOM     21  C   UNL     1       0.689   9.091  20.463  0.00  0.00    +0.000 A 
BRANCH  19  22
ATOM     22  O   UNL     1       3.315   6.691  19.398  0.00  0.00    +0.000 OA
BRANCH  22  23
ATOM     23  C   UNL     1       3.111   5.459  18.804  0.00  0.00    +0.000 A 
ATOM     24  C   UNL     1       3.619   5.078  17.558  0.00  0.00    +0.000 A 
ATOM     25  C   UNL     1       3.421   3.778  17.082  0.00  0.00    +0.000 A 
ATOM     26  C   UNL     1       2.658   2.882  17.822  0.00  0.00    +0.000 A 
ATOM     27  F   UNL     1       2.482   1.635  17.365  0.00  0.00    +0.000 F 
ATOM     28  C   UNL     1       2.072   3.264  19.020  0.00  0.00    +0.000 A 
ATOM     29  C   UNL     1       2.301   4.553  19.502  0.00  0.00    +0.000 A 
ATOM     30  F   UNL     1       1.723   4.912  20.658  0.00  0.00    +0.000 F 
ENDBRANCH  22  23
ENDBRANCH  19  22
ENDBRANCH   3  16
BRANCH   4  31
ATOM     31  C   UNL     1       1.734  12.838  18.731  0.00  0.00    +0.000 C 
ATOM     32  N   UNL     1       2.221  12.524  17.497  0.00  0.00    +0.000 N 
ATOM     33  O   UNL     1       2.461  13.432  19.525  0.00  0.00    +0.000 OA
ATOM     34  H   UNL     1       1.733  11.935  16.838  0.00  0.00    +0.000 HD
ATOM     35  H   UNL     1       3.165  12.816  17.284  0.00  0.00    +0.000 HD
ENDBRANCH   4  31
BRANCH   5  36
ATOM     36  N   UNL     1      -0.637  14.645  19.248  0.00  0.00    +0.000 N 
ATOM     37  H   UNL     1      -1.365  15.130  18.714  0.00  0.00    +0.000 HD
ATOM     38  H   UNL     1      -0.235  15.223  19.978  0.00  0.00    +0.000 HD
ENDBRANCH   5  36
TORSDOF 7
ENDMDL
MODEL 8
REMARK VINA RESULT:      -8.9      1.694      2.162
REMARK  Name = 
REMARK  7 active torsions:
REMARK  status: ('A' for Active; 'I' for Inactive)
REMARK    1  A    between atoms: C_2  and  C_3
REMARK    2  A    between atoms: C_9  and  N_10
REMARK    3  A    between atoms: C_12  and  C_13
REMARK    4  A    between atoms: C_16  and  O_17
REMARK    5  A    between atoms: O_17  and  C_18
REMARK    6  A    between atoms: C_28  and  C_29
REMARK    7  A    between atoms: C_32  and  N_33
REMARK                            x       y       z     vdW  Elec       q    Type
REMARK                         _______ _______ _______ _____ _____    ______ ____
ROOT
ATOM      1  N   UNL     1       4.046   4.569  17.929  0.00  0.00    +0.000 N 
ATOM      2  N   UNL     1       3.605   5.846  18.063  0.00  0.00    +0.000 NA
ATOM      3  C   UNL     1       2.677   5.796  19.047  0.00  0.00    +0.000 A 
ATOM      4  C   UNL     1       2.560   4.464  19.571  0.00  0.00    +0.000 A 
ATOM      5  C   UNL     1       3.461   3.714  18.832  0.00  0.00    +0.000 A 
ENDROOT
BRANCH   1  12
ATOM      6  C   UNL     1       6.039   3.965  13.405  0.00  0.00    +0.000 C 
ATOM      7  O   UNL     1       7.083   3.756  12.789  0.00  0.00    +0.000 OA
ATOM      8  N   UNL     1       6.009   4.570  14.653  0.00  0.00    +0.000 N 
ATOM      9  C   UNL     1       7.259   5.118  15.170  0.00  0.00    +0.000 C 
ATOM     10  C   UNL     1       7.613   4.452  16.491  0.00  0.00    +0.000 C 
ATOM     11  C   UNL     1       6.495   4.633  17.518  0.00  0.00    +0.000 C 
ATOM     12  C   UNL     1       5.110   4.232  16.972  0.00  0.00    +0.000 C 
ATOM     13  C   UNL     1       4.845   4.760  15.547  0.00  0.00    +0.000 C 
BRANCH   6  15
ATOM     14  C   UNL     1       4.704   3.079  11.546  0.00  0.00    +0.000 C 
ATOM     15  C   UNL     1       4.742   3.555  12.799  0.00  0.00    +0.000 C 
ENDBRANCH   6  15
ENDBRANCH   1  12
BRANCH   3  16
ATOM     16  C   UNL     1       1.996   7.018  19.527  0.00  0.00    +0.000 A 
ATOM     17  C   UNL     1       1.537   7.133  20.852  0.00  0.00    +0.000 A 
ATOM     18  C   UNL     1       1.214   8.387  21.395  0.00  0.00    +0.000 A 
ATOM     19  C   UNL     1       1.276   9.532  20.600  0.00  0.00    +0.000 A 
ATOM     20  C   UNL     1       1.522   9.391  19.232  0.00  0.00    +0.000 A 
ATOM     21  C   UNL     1       1.909   8.150  18.708  0.00  0.00    +0.000 A 
BRANCH  19  22
ATOM     22  O   UNL     1       1.047  10.737  21.227  0.00  0.00    +0.000 OA
BRANCH  22  23
ATOM     23  C   UNL     1      -0.153  11.401  21.051  0.00  0.00    +0.000 A 
ATOM     24  C   UNL     1      -0.542  12.053  19.875  0.00  0.00    +0.000 A 
ATOM     25  C   UNL     1      -1.813  12.627  19.773  0.00  0.00    +0.000 A 
ATOM     26  C   UNL     1      -2.668  12.609  20.869  0.00  0.00    +0.000 A 
ATOM     27  F   UNL     1      -3.888  13.151  20.760  0.00  0.00    +0.000 F 
ATOM     28  C   UNL     1      -2.272  12.044  22.072  0.00  0.00    +0.000 A 
ATOM     29  C   UNL     1      -1.015  11.445  22.156  0.00  0.00    +0.000 A 
ATOM     30  F   UNL     1      -0.642  10.909  23.327  0.00  0.00    +0.000 F 
ENDBRANCH  22  23
ENDBRANCH  19  22
ENDBRANCH   3  16
BRANCH   4  31
ATOM     31  C   UNL     1       1.753   3.891  20.641  0.00  0.00    +0.000 C 
ATOM     32  N   UNL     1       0.504   3.442  20.327  0.00  0.00    +0.000 N 
ATOM     33  O   UNL     1       2.129   3.836  21.810  0.00  0.00    +0.000 OA
ATOM     34  H   UNL     1       0.080   3.565  19.420  0.00  0.00    +0.000 HD
ATOM     35  H   UNL     1      -0.053   3.063  21.079  0.00  0.00    +0.000 HD
ENDBRANCH   4  31
BRANCH   5  36
ATOM     36  N   UNL     1       3.794   2.410  18.970  0.00  0.00    +0.000 N 
ATOM     37  H   UNL     1       3.984   1.873  18.118  0.00  0.00    +0.000 HD
ATOM     38  H   UNL     1       4.234   2.010  19.791  0.00  0.00    +0.000 HD
ENDBRANCH   5  36
TORSDOF 7
ENDMDL
MODEL 9
REMARK VINA RESULT:      -8.8      2.016      2.622
REMARK  Name = 
REMARK  7 active torsions:
REMARK  status: ('A' for Active; 'I' for Inactive)
REMARK    1  A    between atoms: C_2  and  C_3
REMARK    2  A    between atoms: C_9  and  N_10
REMARK    3  A    between atoms: C_12  and  C_13
REMARK    4  A    between atoms: C_16  and  O_17
REMARK    5  A    between atoms: O_17  and  C_18
REMARK    6  A    between atoms: C_28  and  C_29
REMARK    7  A    between atoms: C_32  and  N_33
REMARK                            x       y       z     vdW  Elec       q    Type
REMARK                         _______ _______ _______ _____ _____    ______ ____
ROOT
ATOM      1  N   UNL     1       4.071   4.872  17.444  0.00  0.00    +0.000 N 
ATOM      2  N   UNL     1       3.715   6.182  17.469  0.00  0.00    +0.000 NA
ATOM      3  C   UNL     1       2.815   6.283  18.474  0.00  0.00    +0.000 A 
ATOM      4  C   UNL     1       2.630   5.014  19.123  0.00  0.00    +0.000 A 
ATOM      5  C   UNL     1       3.460   4.143  18.436  0.00  0.00    +0.000 A 
ENDROOT
BRANCH   1  12
ATOM      6  C   UNL     1       5.877   3.696  12.954  0.00  0.00    +0.000 C 
ATOM      7  O   UNL     1       6.887   3.368  12.334  0.00  0.00    +0.000 OA
ATOM      8  N   UNL     1       5.920   4.427  14.132  0.00  0.00    +0.000 N 
ATOM      9  C   UNL     1       7.214   4.956  14.553  0.00  0.00    +0.000 C 
ATOM     10  C   UNL     1       7.577   4.411  15.927  0.00  0.00    +0.000 C 
ATOM     11  C   UNL     1       6.505   4.759  16.960  0.00  0.00    +0.000 C 
ATOM     12  C   UNL     1       5.084   4.380  16.499  0.00  0.00    +0.000 C 
ATOM     13  C   UNL     1       4.798   4.772  15.034  0.00  0.00    +0.000 C 
BRANCH   6  15
ATOM     14  C   UNL     1       4.326   3.239  11.108  0.00  0.00    +0.000 C 
ATOM     15  C   UNL     1       4.540   3.298  12.431  0.00  0.00    +0.000 C 
ENDBRANCH   6  15
ENDBRANCH   1  12
BRANCH   3  16
ATOM     16  C   UNL     1       2.227   7.585  18.855  0.00  0.00    +0.000 A 
ATOM     17  C   UNL     1       1.899   8.555  17.890  0.00  0.00    +0.000 A 
ATOM     18  C   UNL     1       1.041   9.621  18.204  0.00  0.00    +0.000 A 
ATOM     19  C   UNL     1       0.556   9.771  19.504  0.00  0.00    +0.000 A 
ATOM     20  C   UNL     1       1.050   8.936  20.509  0.00  0.00    +0.000 A 
ATOM     21  C   UNL     1       1.853   7.835  20.181  0.00  0.00    +0.000 A 
BRANCH  19  22
ATOM     22  O   UNL     1      -0.362  10.777  19.713  0.00  0.00    +0.000 OA
BRANCH  22  23
ATOM     23  C   UNL     1       0.059  12.077  19.922  0.00  0.00    +0.000 A 
ATOM     24  C   UNL     1       0.444  12.966  18.913  0.00  0.00    +0.000 A 
ATOM     25  C   UNL     1       0.780  14.287  19.226  0.00  0.00    +0.000 A 
ATOM     26  C   UNL     1       0.796  14.699  20.553  0.00  0.00    +0.000 A 
ATOM     27  F   UNL     1       1.106  15.969  20.844  0.00  0.00    +0.000 F 
ATOM     28  C   UNL     1       0.501  13.812  21.578  0.00  0.00    +0.000 A 
ATOM     29  C   UNL     1       0.137  12.504  21.256  0.00  0.00    +0.000 A 
ATOM     30  F   UNL     1      -0.138  11.655  22.256  0.00  0.00    +0.000 F 
ENDBRANCH  22  23
ENDBRANCH  19  22
ENDBRANCH   3  16
BRANCH   4  31
ATOM     31  C   UNL     1       1.820   4.596  20.259  0.00  0.00    +0.000 C 
ATOM     32  N   UNL     1       2.394   4.622  21.496  0.00  0.00    +0.000 N 
ATOM     33  O   UNL     1       0.667   4.183  20.148  0.00  0.00    +0.000 OA
ATOM     34  H   UNL     1       3.369   4.830  21.653  0.00  0.00    +0.000 HD
ATOM     35  H   UNL     1       1.830   4.314  22.275  0.00  0.00    +0.000 HD
ENDBRANCH   4  31
BRANCH   5  36
ATOM     36  N   UNL     1       3.714   2.838  18.686  0.00  0.00    +0.000 N 
ATOM     37  H   UNL     1       3.344   2.144  18.029  0.00  0.00    +0.000 HD
ATOM     38  H   UNL     1       4.513   2.495  19.209  0.00  0.00    +0.000 HD
ENDBRANCH   5  36
TORSDOF 7
ENDMDL
