MODEL 1
REMARK VINA RESULT:      -7.8      0.000      0.000
REMARK  Name = 
REMARK  7 active torsions:
REMARK  status: ('A' for Active; 'I' for Inactive)
REMARK    1  A    between atoms: C_1  and  N_2
REMARK    2  A    between atoms: N_2  and  C_3
REMARK    3  A    between atoms: N_2  and  C_16
REMARK    4  A    between atoms: C_3  and  C_4
REMARK    5  A    between atoms: C_5  and  C_6
REMARK    6  A    between atoms: C_11  and  C_12
REMARK    7  A    between atoms: C_16  and  C_17
REMARK                            x       y       z     vdW  Elec       q    Type
REMARK                         _______ _______ _______ _____ _____    ______ ____
ROOT
ATOM      1  C   UNL     1       0.503   2.507  19.578  0.00  0.00    +0.000 C 
ATOM      2  N   UNL     1       1.558   3.507  19.372  0.00  0.00    +0.000 NA
ENDROOT
BRANCH   2   3
ATOM      3  C   UNL     1       1.884   4.139  20.651  0.00  0.00    +0.000 C 
BRANCH   3   4
ATOM      4  C   UNL     1       1.307   5.520  20.777  0.00  0.00    +0.000 C 
ATOM      5  C   UNL     1       1.915   6.596  20.258  0.00  0.00    +0.000 C 
BRANCH   5   6
ATOM      6  C   UNL     1       1.457   7.958  20.520  0.00  0.00    +0.000 A 
ATOM      7  C   UNL     1       0.959   8.267  21.794  0.00  0.00    +0.000 A 
ATOM      8  C   UNL     1       0.482   9.548  22.079  0.00  0.00    +0.000 A 
ATOM      9  C   UNL     1       0.504  10.530  21.093  0.00  0.00    +0.000 A 
ATOM     10  C   UNL     1       1.009  10.232  19.825  0.00  0.00    +0.000 A 
ATOM     11  C   UNL     1       1.492   8.943  19.519  0.00  0.00    +0.000 A 
BRANCH  11  12
ATOM     12  C   UNL     1       2.008   8.704  18.115  0.00  0.00    +0.000 C 
ATOM     13  F   UNL     1       1.915   9.752  17.249  0.00  0.00    +0.000 F 
ATOM     14  F   UNL     1       3.328   8.361  18.117  0.00  0.00    +0.000 F 
ATOM     15  F   UNL     1       1.362   7.671  17.503  0.00  0.00    +0.000 F 
ENDBRANCH  11  12
ENDBRANCH   5   6
ENDBRANCH   3   4
ENDBRANCH   2   3
BRANCH   2  16
ATOM     16  C   UNL     1       2.751   2.884  18.762  0.00  0.00    +0.000 C 
BRANCH  16  17
ATOM     17  C   UNL     1       3.763   3.909  18.303  0.00  0.00    +0.000 A 
ATOM     18  C   UNL     1       3.447   4.883  17.349  0.00  0.00    +0.000 A 
ATOM     19  C   UNL     1       4.395   5.851  17.004  0.00  0.00    +0.000 A 
ATOM     20  C   UNL     1       5.668   5.845  17.594  0.00  0.00    +0.000 A 
ATOM     21  C   UNL     1       5.991   4.826  18.485  0.00  0.00    +0.000 A 
ATOM     22  C   UNL     1       5.051   3.873  18.844  0.00  0.00    +0.000 A 
ATOM     23  O   UNL     1       7.241   4.686  19.020  0.00  0.00    +0.000 OA
ATOM     24  C   UNL     1       7.817   5.945  19.340  0.00  0.00    +0.000 C 
ATOM     25  C   UNL     1       7.924   6.869  18.138  0.00  0.00    +0.000 C 
ATOM     26  C   UNL     1       6.655   6.930  17.288  0.00  0.00    +0.000 C 
ENDBRANCH  16  17
ENDBRANCH   2  16
TORSDOF 6
ENDMDL
MODEL 2
REMARK VINA RESULT:      -7.5      2.007      2.618
REMARK  Name = 
REMARK  7 active torsions:
REMARK  status: ('A' for Active; 'I' for Inactive)
REMARK    1  A    between atoms: C_1  and  N_2
REMARK    2  A    between atoms: N_2  and  C_3
REMARK    3  A    between atoms: N_2  and  C_16
REMARK    4  A    between atoms: C_3  and  C_4
REMARK    5  A    between atoms: C_5  and  C_6
REMARK    6  A    between atoms: C_11  and  C_12
REMARK    7  A    between atoms: C_16  and  C_17
REMARK                            x       y       z     vdW  Elec       q    Type
REMARK                         _______ _______ _______ _____ _____    ______ ____
ROOT
ATOM      1  C   UNL     1       1.210   2.490  21.616  0.00  0.00    +0.000 C 
ATOM      2  N   UNL     1       1.972   3.290  20.650  0.00  0.00    +0.000 NA
ENDROOT
BRANCH   2   3
ATOM      3  C   UNL     1       2.248   4.608  21.225  0.00  0.00    +0.000 C 
BRANCH   3   4
ATOM      4  C   UNL     1       1.909   5.730  20.286  0.00  0.00    +0.000 C 
ATOM      5  C   UNL     1       2.188   7.010  20.575  0.00  0.00    +0.000 C 
BRANCH   5   6
ATOM      6  C   UNL     1       1.712   8.121  19.756  0.00  0.00    +0.000 A 
ATOM      7  C   UNL     1       2.239   8.279  18.465  0.00  0.00    +0.000 A 
ATOM      8  C   UNL     1       1.836   9.345  17.659  0.00  0.00    +0.000 A 
ATOM      9  C   UNL     1       0.899  10.258  18.136  0.00  0.00    +0.000 A 
ATOM     10  C   UNL     1       0.363  10.100  19.415  0.00  0.00    +0.000 A 
ATOM     11  C   UNL     1       0.760   9.031  20.244  0.00  0.00    +0.000 A 
BRANCH  11  12
ATOM     12  C   UNL     1       0.137   8.944  21.622  0.00  0.00    +0.000 C 
ATOM     13  F   UNL     1       0.999   8.812  22.669  0.00  0.00    +0.000 F 
ATOM     14  F   UNL     1      -0.604  10.053  21.909  0.00  0.00    +0.000 F 
ATOM     15  F   UNL     1      -0.723   7.891  21.728  0.00  0.00    +0.000 F 
ENDBRANCH  11  12
ENDBRANCH   5   6
ENDBRANCH   3   4
ENDBRANCH   2   3
BRANCH   2  16
ATOM     16  C   UNL     1       3.221   2.598  20.273  0.00  0.00    +0.000 C 
BRANCH  16  17
ATOM     17  C   UNL     1       3.926   3.272  19.118  0.00  0.00    +0.000 A 
ATOM     18  C   UNL     1       3.343   3.364  17.849  0.00  0.00    +0.000 A 
ATOM     19  C   UNL     1       4.004   4.055  16.829  0.00  0.00    +0.000 A 
ATOM     20  C   UNL     1       5.257   4.644  17.062  0.00  0.00    +0.000 A 
ATOM     21  C   UNL     1       5.855   4.480  18.307  0.00  0.00    +0.000 A 
ATOM     22  C   UNL     1       5.199   3.811  19.327  0.00  0.00    +0.000 A 
ATOM     23  O   UNL     1       7.117   4.928  18.580  0.00  0.00    +0.000 OA
ATOM     24  C   UNL     1       7.366   6.189  17.975  0.00  0.00    +0.000 C 
ATOM     25  C   UNL     1       7.198   6.164  16.464  0.00  0.00    +0.000 C 
ATOM     26  C   UNL     1       5.927   5.455  15.995  0.00  0.00    +0.000 C 
ENDBRANCH  16  17
ENDBRANCH   2  16
TORSDOF 6
ENDMDL
MODEL 3
REMARK VINA RESULT:      -7.4      4.775      7.328
REMARK  Name = 
REMARK  7 active torsions:
REMARK  status: ('A' for Active; 'I' for Inactive)
REMARK    1  A    between atoms: C_1  and  N_2
REMARK    2  A    between atoms: N_2  and  C_3
REMARK    3  A    between atoms: N_2  and  C_16
REMARK    4  A    between atoms: C_3  and  C_4
REMARK    5  A    between atoms: C_5  and  C_6
REMARK    6  A    between atoms: C_11  and  C_12
REMARK    7  A    between atoms: C_16  and  C_17
REMARK                            x       y       z     vdW  Elec       q    Type
REMARK                         _______ _______ _______ _____ _____    ______ ____
ROOT
ATOM      1  C   UNL     1       8.027   6.408  18.904  0.00  0.00    +0.000 C 
ATOM      2  N   UNL     1       7.237   7.257  18.003  0.00  0.00    +0.000 NA
ENDROOT
BRANCH   2   3
ATOM      3  C   UNL     1       8.107   8.275  17.412  0.00  0.00    +0.000 C 
BRANCH   3   4
ATOM      4  C   UNL     1       8.218   9.507  18.264  0.00  0.00    +0.000 C 
ATOM      5  C   UNL     1       9.391   9.927  18.759  0.00  0.00    +0.000 C 
BRANCH   5   6
ATOM      6  C   UNL     1       9.489  11.018  19.725  0.00  0.00    +0.000 A 
ATOM      7  C   UNL     1       9.036  10.800  21.035  0.00  0.00    +0.000 A 
ATOM      8  C   UNL     1       9.082  11.825  21.982  0.00  0.00    +0.000 A 
ATOM      9  C   UNL     1       9.586  13.073  21.628  0.00  0.00    +0.000 A 
ATOM     10  C   UNL     1      10.049  13.293  20.328  0.00  0.00    +0.000 A 
ATOM     11  C   UNL     1      10.008  12.271  19.359  0.00  0.00    +0.000 A 
BRANCH  11  12
ATOM     12  C   UNL     1      10.518  12.602  17.971  0.00  0.00    +0.000 C 
ATOM     13  F   UNL     1       9.579  12.701  16.988  0.00  0.00    +0.000 F 
ATOM     14  F   UNL     1      11.180  13.794  17.950  0.00  0.00    +0.000 F 
ATOM     15  F   UNL     1      11.414  11.677  17.523  0.00  0.00    +0.000 F 
ENDBRANCH  11  12
ENDBRANCH   5   6
ENDBRANCH   3   4
ENDBRANCH   2   3
BRANCH   2  16
ATOM     16  C   UNL     1       6.582   6.441  16.962  0.00  0.00    +0.000 C 
BRANCH  16  17
ATOM     17  C   UNL     1       5.250   5.890  17.417  0.00  0.00    +0.000 A 
ATOM     18  C   UNL     1       4.130   6.712  17.590  0.00  0.00    +0.000 A 
ATOM     19  C   UNL     1       2.902   6.146  17.948  0.00  0.00    +0.000 A 
ATOM     20  C   UNL     1       2.786   4.763  18.152  0.00  0.00    +0.000 A 
ATOM     21  C   UNL     1       3.924   3.971  18.048  0.00  0.00    +0.000 A 
ATOM     22  C   UNL     1       5.141   4.521  17.678  0.00  0.00    +0.000 A 
ATOM     23  O   UNL     1       3.918   2.634  18.336  0.00  0.00    +0.000 OA
ATOM     24  C   UNL     1       2.727   2.007  17.880  0.00  0.00    +0.000 C 
ATOM     25  C   UNL     1       1.471   2.619  18.479  0.00  0.00    +0.000 C 
ATOM     26  C   UNL     1       1.453   4.147  18.453  0.00  0.00    +0.000 C 
ENDBRANCH  16  17
ENDBRANCH   2  16
TORSDOF 6
ENDMDL
MODEL 4
REMARK VINA RESULT:      -7.3      1.508      2.068
REMARK  Name = 
REMARK  7 active torsions:
REMARK  status: ('A' for Active; 'I' for Inactive)
REMARK    1  A    between atoms: C_1  and  N_2
REMARK    2  A    between atoms: N_2  and  C_3
REMARK    3  A    between atoms: N_2  and  C_16
REMARK    4  A    between atoms: C_3  and  C_4
REMARK    5  A    between atoms: C_5  and  C_6
REMARK    6  A    between atoms: C_11  and  C_12
REMARK    7  A    between atoms: C_16  and  C_17
REMARK                            x       y       z     vdW  Elec       q    Type
REMARK                         _______ _______ _______ _____ _____    ______ ____
ROOT
ATOM      1  C   UNL     1       0.941   2.457  19.707  0.00  0.00    +0.000 C 
ATOM      2  N   UNL     1       2.033   3.438  19.708  0.00  0.00    +0.000 NA
ENDROOT
BRANCH   2   3
ATOM      3  C   UNL     1       1.983   4.216  20.947  0.00  0.00    +0.000 C 
BRANCH   3   4
ATOM      4  C   UNL     1       1.374   5.575  20.752  0.00  0.00    +0.000 C 
ATOM      5  C   UNL     1       2.122   6.665  20.526  0.00  0.00    +0.000 C 
BRANCH   5   6
ATOM      6  C   UNL     1       1.558   8.012  20.507  0.00  0.00    +0.000 A 
ATOM      7  C   UNL     1       0.981   8.518  21.681  0.00  0.00    +0.000 A 
ATOM      8  C   UNL     1       0.403   9.788  21.699  0.00  0.00    +0.000 A 
ATOM      9  C   UNL     1       0.402  10.565  20.543  0.00  0.00    +0.000 A 
ATOM     10  C   UNL     1       0.984  10.071  19.373  0.00  0.00    +0.000 A 
ATOM     11  C   UNL     1       1.570   8.790  19.337  0.00  0.00    +0.000 A 
BRANCH  11  12
ATOM     12  C   UNL     1       2.166   8.330  18.022  0.00  0.00    +0.000 C 
ATOM     13  F   UNL     1       3.466   7.924  18.055  0.00  0.00    +0.000 F 
ATOM     14  F   UNL     1       1.478   7.274  17.501  0.00  0.00    +0.000 F 
ATOM     15  F   UNL     1       2.116   9.306  17.070  0.00  0.00    +0.000 F 
ENDBRANCH  11  12
ENDBRANCH   5   6
ENDBRANCH   3   4
ENDBRANCH   2   3
BRANCH   2  16
ATOM     16  C   UNL     1       3.337   2.763  19.552  0.00  0.00    +0.000 C 
BRANCH  16  17
ATOM     17  C   UNL     1       4.298   3.559  18.698  0.00  0.00    +0.000 A 
ATOM     18  C   UNL     1       5.244   4.423  19.261  0.00  0.00    +0.000 A 
ATOM     19  C   UNL     1       6.156   5.088  18.435  0.00  0.00    +0.000 A 
ATOM     20  C   UNL     1       6.120   4.909  17.044  0.00  0.00    +0.000 A 
ATOM     21  C   UNL     1       5.127   4.105  16.495  0.00  0.00    +0.000 A 
ATOM     22  C   UNL     1       4.231   3.430  17.308  0.00  0.00    +0.000 A 
ATOM     23  O   UNL     1       4.957   3.964  15.146  0.00  0.00    +0.000 OA
ATOM     24  C   UNL     1       6.202   3.898  14.466  0.00  0.00    +0.000 C 
ATOM     25  C   UNL     1       7.070   5.124  14.701  0.00  0.00    +0.000 C 
ATOM     26  C   UNL     1       7.149   5.554  16.166  0.00  0.00    +0.000 C 
ENDBRANCH  16  17
ENDBRANCH   2  16
TORSDOF 6
ENDMDL
MODEL 5
REMARK VINA RESULT:      -7.3      4.722      7.286
REMARK  Name = 
REMARK  7 active torsions:
REMARK  status: ('A' for Active; 'I' for Inactive)
REMARK    1  A    between atoms: C_1  and  N_2
REMARK    2  A    between atoms: N_2  and  C_3
REMARK    3  A    between atoms: N_2  and  C_16
REMARK    4  A    between atoms: C_3  and  C_4
REMARK    5  A    between atoms: C_5  and  C_6
REMARK    6  A    between atoms: C_11  and  C_12
REMARK    7  A    between atoms: C_16  and  C_17
REMARK                            x       y       z     vdW  Elec       q    Type
REMARK                         _______ _______ _______ _____ _____    ______ ____
ROOT
ATOM      1  C   UNL     1       7.675   6.033  18.597  0.00  0.00    +0.000 C 
ATOM      2  N   UNL     1       6.990   7.139  17.916  0.00  0.00    +0.000 NA
ENDROOT
BRANCH   2   3
ATOM      3  C   UNL     1       7.981   8.121  17.472  0.00  0.00    +0.000 C 
BRANCH   3   4
ATOM      4  C   UNL     1       8.173   9.235  18.461  0.00  0.00    +0.000 C 
ATOM      5  C   UNL     1       9.084  10.201  18.277  0.00  0.00    +0.000 C 
BRANCH   5   6
ATOM      6  C   UNL     1       9.400  11.188  19.306  0.00  0.00    +0.000 A 
ATOM      7  C   UNL     1       9.324  10.804  20.653  0.00  0.00    +0.000 A 
ATOM      8  C   UNL     1       9.586  11.723  21.671  0.00  0.00    +0.000 A 
ATOM      9  C   UNL     1       9.932  13.033  21.348  0.00  0.00    +0.000 A 
ATOM     10  C   UNL     1      10.020  13.419  20.009  0.00  0.00    +0.000 A 
ATOM     11  C   UNL     1       9.756  12.505  18.969  0.00  0.00    +0.000 A 
BRANCH  11  12
ATOM     12  C   UNL     1       9.862  13.013  17.546  0.00  0.00    +0.000 C 
ATOM     13  F   UNL     1       8.742  12.901  16.778  0.00  0.00    +0.000 F 
ATOM     14  F   UNL     1      10.186  14.338  17.509  0.00  0.00    +0.000 F 
ATOM     15  F   UNL     1      10.844  12.376  16.848  0.00  0.00    +0.000 F 
ENDBRANCH  11  12
ENDBRANCH   5   6
ENDBRANCH   3   4
ENDBRANCH   2   3
BRANCH   2  16
ATOM     16  C   UNL     1       6.191   6.634  16.781  0.00  0.00    +0.000 C 
BRANCH  16  17
ATOM     17  C   UNL     1       4.996   5.826  17.234  0.00  0.00    +0.000 A 
ATOM     18  C   UNL     1       4.701   4.573  16.685  0.00  0.00    +0.000 A 
ATOM     19  C   UNL     1       3.623   3.833  17.182  0.00  0.00    +0.000 A 
ATOM     20  C   UNL     1       2.825   4.343  18.218  0.00  0.00    +0.000 A 
ATOM     21  C   UNL     1       3.088   5.620  18.702  0.00  0.00    +0.000 A 
ATOM     22  C   UNL     1       4.163   6.353  18.226  0.00  0.00    +0.000 A 
ATOM     23  O   UNL     1       2.294   6.231  19.632  0.00  0.00    +0.000 OA
ATOM     24  C   UNL     1       1.846   5.314  20.620  0.00  0.00    +0.000 C 
ATOM     25  C   UNL     1       1.065   4.149  20.034  0.00  0.00    +0.000 C 
ATOM     26  C   UNL     1       1.724   3.516  18.808  0.00  0.00    +0.000 C 
ENDBRANCH  16  17
ENDBRANCH   2  16
TORSDOF 6
ENDMDL
MODEL 6
REMARK VINA RESULT:      -7.2      2.585      3.266
REMARK  Name = 
REMARK  7 active torsions:
REMARK  status: ('A' for Active; 'I' for Inactive)
REMARK    1  A    between atoms: C_1  and  N_2
REMARK    2  A    between atoms: N_2  and  C_3
REMARK    3  A    between atoms: N_2  and  C_16
REMARK    4  A    between atoms: C_3  and  C_4
REMARK    5  A    between atoms: C_5  and  C_6
REMARK    6  A    between atoms: C_11  and  C_12
REMARK    7  A    between atoms: C_16  and  C_17
REMARK                            x       y       z     vdW  Elec       q    Type
REMARK                         _______ _______ _______ _____ _____    ______ ____
ROOT
ATOM      1  C   UNL     1       0.836   3.231  20.064  0.00  0.00    +0.000 C 
ATOM      2  N   UNL     1       1.993   4.089  19.784  0.00  0.00    +0.000 NA
ENDROOT
BRANCH   2   3
ATOM      3  C   UNL     1       2.095   5.117  20.821  0.00  0.00    +0.000 C 
BRANCH   3   4
ATOM      4  C   UNL     1       1.975   6.509  20.269  0.00  0.00    +0.000 C 
ATOM      5  C   UNL     1       1.358   7.491  20.941  0.00  0.00    +0.000 C 
BRANCH   5   6
ATOM      6  C   UNL     1       1.084   8.796  20.345  0.00  0.00    +0.000 A 
ATOM      7  C   UNL     1       1.546   9.055  19.046  0.00  0.00    +0.000 A 
ATOM      8  C   UNL     1       1.334  10.299  18.451  0.00  0.00    +0.000 A 
ATOM      9  C   UNL     1       0.654  11.294  19.148  0.00  0.00    +0.000 A 
ATOM     10  C   UNL     1       0.181  11.040  20.438  0.00  0.00    +0.000 A 
ATOM     11  C   UNL     1       0.388   9.790  21.055  0.00  0.00    +0.000 A 
BRANCH  11  12
ATOM     12  C   UNL     1      -0.146   9.606  22.461  0.00  0.00    +0.000 C 
ATOM     13  F   UNL     1      -0.903  10.624  22.959  0.00  0.00    +0.000 F 
ATOM     14  F   UNL     1      -0.935   8.498  22.558  0.00  0.00    +0.000 F 
ATOM     15  F   UNL     1       0.855   9.423  23.368  0.00  0.00    +0.000 F 
ENDBRANCH  11  12
ENDBRANCH   5   6
ENDBRANCH   3   4
ENDBRANCH   2   3
BRANCH   2  16
ATOM     16  C   UNL     1       3.229   3.285  19.704  0.00  0.00    +0.000 C 
BRANCH  16  17
ATOM     17  C   UNL     1       4.266   3.912  18.802  0.00  0.00    +0.000 A 
ATOM     18  C   UNL     1       5.344   4.645  19.312  0.00  0.00    +0.000 A 
ATOM     19  C   UNL     1       6.315   5.150  18.442  0.00  0.00    +0.000 A 
ATOM     20  C   UNL     1       6.211   4.943  17.058  0.00  0.00    +0.000 A 
ATOM     21  C   UNL     1       5.095   4.277  16.561  0.00  0.00    +0.000 A 
ATOM     22  C   UNL     1       4.138   3.758  17.418  0.00  0.00    +0.000 A 
ATOM     23  O   UNL     1       4.864   4.128  15.222  0.00  0.00    +0.000 OA
ATOM     24  C   UNL     1       6.066   3.866  14.510  0.00  0.00    +0.000 C 
ATOM     25  C   UNL     1       7.107   4.959  14.685  0.00  0.00    +0.000 C 
ATOM     26  C   UNL     1       7.293   5.411  16.134  0.00  0.00    +0.000 C 
ENDBRANCH  16  17
ENDBRANCH   2  16
TORSDOF 6
ENDMDL
MODEL 7
REMARK VINA RESULT:      -7.2      0.858      1.202
REMARK  Name = 
REMARK  7 active torsions:
REMARK  status: ('A' for Active; 'I' for Inactive)
REMARK    1  A    between atoms: C_1  and  N_2
REMARK    2  A    between atoms: N_2  and  C_3
REMARK    3  A    between atoms: N_2  and  C_16
REMARK    4  A    between atoms: C_3  and  C_4
REMARK    5  A    between atoms: C_5  and  C_6
REMARK    6  A    between atoms: C_11  and  C_12
REMARK    7  A    between atoms: C_16  and  C_17
REMARK                            x       y       z     vdW  Elec       q    Type
REMARK                         _______ _______ _______ _____ _____    ______ ____
ROOT
ATOM      1  C   UNL     1       2.130   2.614  20.461  0.00  0.00    +0.000 C 
ATOM      2  N   UNL     1       1.920   3.846  19.692  0.00  0.00    +0.000 NA
ENDROOT
BRANCH   2   3
ATOM      3  C   UNL     1       2.559   4.965  20.386  0.00  0.00    +0.000 C 
BRANCH   3   4
ATOM      4  C   UNL     1       1.631   6.130  20.582  0.00  0.00    +0.000 C 
ATOM      5  C   UNL     1       1.998   7.388  20.301  0.00  0.00    +0.000 C 
BRANCH   5   6
ATOM      6  C   UNL     1       1.172   8.542  20.647  0.00  0.00    +0.000 A 
ATOM      7  C   UNL     1       0.718   8.673  21.968  0.00  0.00    +0.000 A 
ATOM      8  C   UNL     1      -0.100   9.743  22.335  0.00  0.00    +0.000 A 
ATOM      9  C   UNL     1      -0.466  10.693  21.385  0.00  0.00    +0.000 A 
ATOM     10  C   UNL     1      -0.008  10.574  20.071  0.00  0.00    +0.000 A 
ATOM     11  C   UNL     1       0.816   9.499  19.682  0.00  0.00    +0.000 A 
BRANCH  11  12
ATOM     12  C   UNL     1       1.255   9.442  18.233  0.00  0.00    +0.000 C 
ATOM     13  F   UNL     1       1.267   8.209  17.652  0.00  0.00    +0.000 F 
ATOM     14  F   UNL     1       0.452  10.203  17.435  0.00  0.00    +0.000 F 
ATOM     15  F   UNL     1       2.515   9.935  18.062  0.00  0.00    +0.000 F 
ENDBRANCH  11  12
ENDBRANCH   5   6
ENDBRANCH   3   4
ENDBRANCH   2   3
BRANCH   2  16
ATOM     16  C   UNL     1       2.444   3.698  18.320  0.00  0.00    +0.000 C 
BRANCH  16  17
ATOM     17  C   UNL     1       3.604   4.627  18.043  0.00  0.00    +0.000 A 
ATOM     18  C   UNL     1       3.452   5.793  17.284  0.00  0.00    +0.000 A 
ATOM     19  C   UNL     1       4.539   6.656  17.111  0.00  0.00    +0.000 A 
ATOM     20  C   UNL     1       5.786   6.354  17.679  0.00  0.00    +0.000 A 
ATOM     21  C   UNL     1       5.939   5.156  18.368  0.00  0.00    +0.000 A 
ATOM     22  C   UNL     1       4.863   4.304  18.557  0.00  0.00    +0.000 A 
ATOM     23  O   UNL     1       7.145   4.738  18.857  0.00  0.00    +0.000 OA
ATOM     24  C   UNL     1       7.894   5.819  19.395  0.00  0.00    +0.000 C 
ATOM     25  C   UNL     1       8.159   6.918  18.378  0.00  0.00    +0.000 C 
ATOM     26  C   UNL     1       6.928   7.318  17.565  0.00  0.00    +0.000 C 
ENDBRANCH  16  17
ENDBRANCH   2  16
TORSDOF 6
ENDMDL
MODEL 8
REMARK VINA RESULT:      -7.0      4.717      7.207
REMARK  Name = 
REMARK  7 active torsions:
REMARK  status: ('A' for Active; 'I' for Inactive)
REMARK    1  A    between atoms: C_1  and  N_2
REMARK    2  A    between atoms: N_2  and  C_3
REMARK    3  A    between atoms: N_2  and  C_16
REMARK    4  A    between atoms: C_3  and  C_4
REMARK    5  A    between atoms: C_5  and  C_6
REMARK    6  A    between atoms: C_11  and  C_12
REMARK    7  A    between atoms: C_16  and  C_17
REMARK                            x       y       z     vdW  Elec       q    Type
REMARK                         _______ _______ _______ _____ _____    ______ ____
ROOT
ATOM      1  C   UNL     1       7.764   5.986  19.072  0.00  0.00    +0.000 C 
ATOM      2  N   UNL     1       7.227   7.074  18.245  0.00  0.00    +0.000 NA
ENDROOT
BRANCH   2   3
ATOM      3  C   UNL     1       8.328   7.924  17.788  0.00  0.00    +0.000 C 
BRANCH   3   4
ATOM      4  C   UNL     1       8.017   9.388  17.907  0.00  0.00    +0.000 C 
ATOM      5  C   UNL     1       8.980  10.318  17.973  0.00  0.00    +0.000 C 
BRANCH   5   6
ATOM      6  C   UNL     1       8.696  11.722  18.261  0.00  0.00    +0.000 A 
ATOM      7  C   UNL     1       7.912  12.450  17.354  0.00  0.00    +0.000 A 
ATOM      8  C   UNL     1       7.642  13.802  17.573  0.00  0.00    +0.000 A 
ATOM      9  C   UNL     1       8.151  14.435  18.705  0.00  0.00    +0.000 A 
ATOM     10  C   UNL     1       8.924  13.713  19.617  0.00  0.00    +0.000 A 
ATOM     11  C   UNL     1       9.208  12.348  19.410  0.00  0.00    +0.000 A 
BRANCH  11  12
ATOM     12  C   UNL     1      10.065  11.647  20.444  0.00  0.00    +0.000 C 
ATOM     13  F   UNL     1       9.551  10.505  20.984  0.00  0.00    +0.000 F 
ATOM     14  F   UNL     1      11.275  11.283  19.930  0.00  0.00    +0.000 F 
ATOM     15  F   UNL     1      10.346  12.454  21.506  0.00  0.00    +0.000 F 
ENDBRANCH  11  12
ENDBRANCH   5   6
ENDBRANCH   3   4
ENDBRANCH   2   3
BRANCH   2  16
ATOM     16  C   UNL     1       6.461   6.531  17.106  0.00  0.00    +0.000 C 
BRANCH  16  17
ATOM     17  C   UNL     1       5.144   5.925  17.535  0.00  0.00    +0.000 A 
ATOM     18  C   UNL     1       3.997   6.706  17.718  0.00  0.00    +0.000 A 
ATOM     19  C   UNL     1       2.785   6.092  18.051  0.00  0.00    +0.000 A 
ATOM     20  C   UNL     1       2.712   4.702  18.219  0.00  0.00    +0.000 A 
ATOM     21  C   UNL     1       3.876   3.949  18.105  0.00  0.00    +0.000 A 
ATOM     22  C   UNL     1       5.077   4.547  17.759  0.00  0.00    +0.000 A 
ATOM     23  O   UNL     1       3.911   2.606  18.358  0.00  0.00    +0.000 OA
ATOM     24  C   UNL     1       2.745   1.953  17.876  0.00  0.00    +0.000 C 
ATOM     25  C   UNL     1       1.464   2.508  18.479  0.00  0.00    +0.000 C 
ATOM     26  C   UNL     1       1.398   4.035  18.492  0.00  0.00    +0.000 C 
ENDBRANCH  16  17
ENDBRANCH   2  16
TORSDOF 6
ENDMDL
MODEL 9
REMARK VINA RESULT:      -7.0      4.813      7.333
REMARK  Name = 
REMARK  7 active torsions:
REMARK  status: ('A' for Active; 'I' for Inactive)
REMARK    1  A    between atoms: C_1  and  N_2
REMARK    2  A    between atoms: N_2  and  C_3
REMARK    3  A    between atoms: N_2  and  C_16
REMARK    4  A    between atoms: C_3  and  C_4
REMARK    5  A    between atoms: C_5  and  C_6
REMARK    6  A    between atoms: C_11  and  C_12
REMARK    7  A    between atoms: C_16  and  C_17
REMARK                            x       y       z     vdW  Elec       q    Type
REMARK                         _______ _______ _______ _____ _____    ______ ____
ROOT
ATOM      1  C   UNL     1       7.308   5.792  18.959  0.00  0.00    +0.000 C 
ATOM      2  N   UNL     1       6.974   7.042  18.264  0.00  0.00    +0.000 NA
ENDROOT
BRANCH   2   3
ATOM      3  C   UNL     1       8.209   7.749  17.920  0.00  0.00    +0.000 C 
BRANCH   3   4
ATOM      4  C   UNL     1       8.016   9.235  17.823  0.00  0.00    +0.000 C 
ATOM      5  C   UNL     1       9.005  10.101  18.087  0.00  0.00    +0.000 C 
BRANCH   5   6
ATOM      6  C   UNL     1       8.786  11.542  18.164  0.00  0.00    +0.000 A 
ATOM      7  C   UNL     1       7.772  12.112  17.379  0.00  0.00    +0.000 A 
ATOM      8  C   UNL     1       7.548  13.490  17.397  0.00  0.00    +0.000 A 
ATOM      9  C   UNL     1       8.334  14.308  18.205  0.00  0.00    +0.000 A 
ATOM     10  C   UNL     1       9.337  13.746  18.997  0.00  0.00    +0.000 A 
ATOM     11  C   UNL     1       9.579  12.357  18.989  0.00  0.00    +0.000 A 
BRANCH  11  12
ATOM     12  C   UNL     1      10.696  11.836  19.869  0.00  0.00    +0.000 C 
ATOM     13  F   UNL     1      11.691  11.148  19.241  0.00  0.00    +0.000 F 
ATOM     14  F   UNL     1      11.328  12.847  20.531  0.00  0.00    +0.000 F 
ATOM     15  F   UNL     1      10.233  10.996  20.838  0.00  0.00    +0.000 F 
ENDBRANCH  11  12
ENDBRANCH   5   6
ENDBRANCH   3   4
ENDBRANCH   2   3
BRANCH   2  16
ATOM     16  C   UNL     1       6.163   6.766  17.062  0.00  0.00    +0.000 C 
BRANCH  16  17
ATOM     17  C   UNL     1       4.994   5.853  17.355  0.00  0.00    +0.000 A 
ATOM     18  C   UNL     1       4.820   4.637  16.683  0.00  0.00    +0.000 A 
ATOM     19  C   UNL     1       3.760   3.795  17.035  0.00  0.00    +0.000 A 
ATOM     20  C   UNL     1       2.859   4.165  18.044  0.00  0.00    +0.000 A 
ATOM     21  C   UNL     1       3.003   5.409  18.650  0.00  0.00    +0.000 A 
ATOM     22  C   UNL     1       4.060   6.242  18.319  0.00  0.00    +0.000 A 
ATOM     23  O   UNL     1       2.107   5.890  19.564  0.00  0.00    +0.000 OA
ATOM     24  C   UNL     1       1.649   4.866  20.436  0.00  0.00    +0.000 C 
ATOM     25  C   UNL     1       0.990   3.712  19.699  0.00  0.00    +0.000 C 
ATOM     26  C   UNL     1       1.774   3.227  18.479  0.00  0.00    +0.000 C 
ENDBRANCH  16  17
ENDBRANCH   2  16
TORSDOF 6
ENDMDL
