MODEL 1
REMARK VINA RESULT:      -8.2      0.000      0.000
REMARK  Name = 
REMARK  6 active torsions:
REMARK  status: ('A' for Active; 'I' for Inactive)
REMARK    1  A    between atoms: O_1  and  N_2
REMARK    2  A    between atoms: C_3  and  C_4
REMARK    3  A    between atoms: N_7  and  C_8
REMARK    4  A    between atoms: C_8  and  C_9
REMARK    5  A    between atoms: C_9  and  N_10
REMARK    6  A    between atoms: N_10  and  C_11
REMARK                            x       y       z     vdW  Elec       q    Type
REMARK                         _______ _______ _______ _____ _____    ______ ____
ROOT
ATOM      1  N   UNL     1       2.844   7.386  18.766  0.00  0.00    +0.000 N 
ATOM      2  H   UNL     1       2.678   7.403  19.771  0.00  0.00    +0.000 HD
ENDROOT
BRANCH   1   3
ATOM      3  C   UNL     1       3.155   6.036  18.343  0.00  0.00    +0.000 A 
ATOM      4  C   UNL     1       4.074   5.713  17.280  0.00  0.00    +0.000 A 
ATOM      5  C   UNL     1       4.341   4.362  17.051  0.00  0.00    +0.000 A 
ATOM      6  N   UNL     1       3.789   3.365  17.750  0.00  0.00    +0.000 NA
ATOM      7  C   UNL     1       2.932   3.626  18.711  0.00  0.00    +0.000 A 
ATOM      8  C   UNL     1       2.408   2.492  19.287  0.00  0.00    +0.000 A 
ATOM      9  C   UNL     1       1.460   2.565  20.289  0.00  0.00    +0.000 A 
ATOM     10  C   UNL     1       1.082   3.818  20.753  0.00  0.00    +0.000 A 
ATOM     11  C   UNL     1       1.634   4.984  20.192  0.00  0.00    +0.000 A 
ATOM     12  C   UNL     1       2.564   4.933  19.108  0.00  0.00    +0.000 A 
ATOM     13  C   UNL     1       5.316   3.828  16.056  0.00  0.00    +0.000 C 
ATOM     14  C   UNL     1       5.694   4.735  14.915  0.00  0.00    +0.000 C 
ATOM     15  C   UNL     1       5.651   6.216  15.214  0.00  0.00    +0.000 C 
ATOM     16  C   UNL     1       4.783   6.698  16.386  0.00  0.00    +0.000 C 
ENDBRANCH   1   3
BRANCH   1  17
ATOM     17  C   UNL     1       1.885   8.170  17.986  0.00  0.00    +0.000 C 
BRANCH  17  18
ATOM     18  C   UNL     1       1.658   9.645  18.373  0.00  0.00    +0.000 C 
BRANCH  18  22
ATOM     19  C   UNL     1      -2.434  10.952  18.097  0.00  0.00    +0.000 A 
ATOM     20  C   UNL     1      -1.577  11.502  19.045  0.00  0.00    +0.000 A 
ATOM     21  C   UNL     1      -0.269  11.022  19.146  0.00  0.00    +0.000 A 
ATOM     22  N   UNL     1       0.180  10.028  18.330  0.00  0.00    +0.000 N 
ATOM     23  C   UNL     1      -0.676   9.475  17.430  0.00  0.00    +0.000 A 
ATOM     24  C   UNL     1      -1.992   9.901  17.310  0.00  0.00    +0.000 A 
BRANCH  19  26
ATOM     25  N   UNL     1      -4.417  11.228  16.737  0.00  0.00    +0.000 NA
ATOM     26  C   UNL     1      -3.773  11.508  17.822  0.00  0.00    +0.000 C 
BRANCH  25  27
ATOM     27  O   UNL     1      -5.682  11.828  16.814  0.00  0.00    +0.000 OA
ATOM     28  H   UNL     1      -6.122  11.327  17.528  0.00  0.00    +0.000 HD
ENDBRANCH  25  27
ENDBRANCH  19  26
ENDBRANCH  18  22
ENDBRANCH  17  18
ENDBRANCH   1  17
TORSDOF 6
ENDMDL
MODEL 2
REMARK VINA RESULT:      -8.1      3.051      4.907
REMARK  Name = 
REMARK  6 active torsions:
REMARK  status: ('A' for Active; 'I' for Inactive)
REMARK    1  A    between atoms: O_1  and  N_2
REMARK    2  A    between atoms: C_3  and  C_4
REMARK    3  A    between atoms: N_7  and  C_8
REMARK    4  A    between atoms: C_8  and  C_9
REMARK    5  A    between atoms: C_9  and  N_10
REMARK    6  A    between atoms: N_10  and  C_11
REMARK                            x       y       z     vdW  Elec       q    Type
REMARK                         _______ _______ _______ _____ _____    ______ ____
ROOT
ATOM      1  N   UNL     1       2.270   6.848  18.026  0.00  0.00    +0.000 N 
ATOM      2  H   UNL     1       2.475   7.031  17.046  0.00  0.00    +0.000 HD
ENDROOT
BRANCH   1   3
ATOM      3  C   UNL     1       3.189   5.854  18.541  0.00  0.00    +0.000 A 
ATOM      4  C   UNL     1       2.796   4.746  19.377  0.00  0.00    +0.000 A 
ATOM      5  C   UNL     1       3.781   3.818  19.718  0.00  0.00    +0.000 A 
ATOM      6  N   UNL     1       5.056   3.905  19.322  0.00  0.00    +0.000 NA
ATOM      7  C   UNL     1       5.449   4.914  18.578  0.00  0.00    +0.000 A 
ATOM      8  C   UNL     1       6.799   4.892  18.311  0.00  0.00    +0.000 A 
ATOM      9  C   UNL     1       7.404   5.891  17.576  0.00  0.00    +0.000 A 
ATOM     10  C   UNL     1       6.610   6.902  17.052  0.00  0.00    +0.000 A 
ATOM     11  C   UNL     1       5.224   6.918  17.291  0.00  0.00    +0.000 A 
ATOM     12  C   UNL     1       4.587   5.932  18.107  0.00  0.00    +0.000 A 
ATOM     13  C   UNL     1       3.561   2.569  20.505  0.00  0.00    +0.000 C 
ATOM     14  C   UNL     1       2.337   2.519  21.380  0.00  0.00    +0.000 C 
ATOM     15  C   UNL     1       1.155   3.330  20.898  0.00  0.00    +0.000 C 
ATOM     16  C   UNL     1       1.415   4.489  19.923  0.00  0.00    +0.000 C 
ENDBRANCH   1   3
BRANCH   1  17
ATOM     17  C   UNL     1       2.010   8.051  18.820  0.00  0.00    +0.000 C 
BRANCH  17  18
ATOM     18  C   UNL     1       1.908   7.908  20.351  0.00  0.00    +0.000 C 
BRANCH  18  22
ATOM     19  C   UNL     1      -0.565  10.911  22.193  0.00  0.00    +0.000 A 
ATOM     20  C   UNL     1      -0.181   9.778  22.903  0.00  0.00    +0.000 A 
ATOM     21  C   UNL     1       0.579   8.795  22.263  0.00  0.00    +0.000 A 
ATOM     22  N   UNL     1       0.951   8.931  20.960  0.00  0.00    +0.000 N 
ATOM     23  C   UNL     1       0.542  10.027  20.267  0.00  0.00    +0.000 A 
ATOM     24  C   UNL     1      -0.236  11.018  20.852  0.00  0.00    +0.000 A 
BRANCH  19  26
ATOM     25  N   UNL     1      -0.567  13.101  23.223  0.00  0.00    +0.000 NA
ATOM     26  C   UNL     1      -1.230  12.061  22.837  0.00  0.00    +0.000 C 
BRANCH  25  27
ATOM     27  O   UNL     1      -1.483  14.047  23.705  0.00  0.00    +0.000 OA
ATOM     28  H   UNL     1      -1.693  13.717  24.600  0.00  0.00    +0.000 HD
ENDBRANCH  25  27
ENDBRANCH  19  26
ENDBRANCH  18  22
ENDBRANCH  17  18
ENDBRANCH   1  17
TORSDOF 6
ENDMDL
MODEL 3
REMARK VINA RESULT:      -8.1      0.168      3.602
REMARK  Name = 
REMARK  6 active torsions:
REMARK  status: ('A' for Active; 'I' for Inactive)
REMARK    1  A    between atoms: O_1  and  N_2
REMARK    2  A    between atoms: C_3  and  C_4
REMARK    3  A    between atoms: N_7  and  C_8
REMARK    4  A    between atoms: C_8  and  C_9
REMARK    5  A    between atoms: C_9  and  N_10
REMARK    6  A    between atoms: N_10  and  C_11
REMARK                            x       y       z     vdW  Elec       q    Type
REMARK                         _______ _______ _______ _____ _____    ______ ____
ROOT
ATOM      1  N   UNL     1       2.988   7.445  18.629  0.00  0.00    +0.000 N 
ATOM      2  H   UNL     1       3.035   7.591  19.636  0.00  0.00    +0.000 HD
ENDROOT
BRANCH   1   3
ATOM      3  C   UNL     1       3.238   6.051  18.325  0.00  0.00    +0.000 A 
ATOM      4  C   UNL     1       2.603   4.948  19.003  0.00  0.00    +0.000 A 
ATOM      5  C   UNL     1       2.876   3.662  18.533  0.00  0.00    +0.000 A 
ATOM      6  N   UNL     1       3.693   3.402  17.506  0.00  0.00    +0.000 NA
ATOM      7  C   UNL     1       4.303   4.384  16.881  0.00  0.00    +0.000 A 
ATOM      8  C   UNL     1       5.154   3.946  15.894  0.00  0.00    +0.000 A 
ATOM      9  C   UNL     1       5.913   4.831  15.153  0.00  0.00    +0.000 A 
ATOM     10  C   UNL     1       5.758   6.191  15.383  0.00  0.00    +0.000 A 
ATOM     11  C   UNL     1       4.867   6.652  16.369  0.00  0.00    +0.000 A 
ATOM     12  C   UNL     1       4.123   5.752  17.195  0.00  0.00    +0.000 A 
ATOM     13  C   UNL     1       2.262   2.403  19.046  0.00  0.00    +0.000 C 
ATOM     14  C   UNL     1       1.680   2.443  20.434  0.00  0.00    +0.000 C 
ATOM     15  C   UNL     1       1.145   3.784  20.881  0.00  0.00    +0.000 C 
ATOM     16  C   UNL     1       1.664   5.048  20.178  0.00  0.00    +0.000 C 
ENDBRANCH   1   3
BRANCH   1  17
ATOM     17  C   UNL     1       1.869   8.123  17.975  0.00  0.00    +0.000 C 
BRANCH  17  18
ATOM     18  C   UNL     1       1.642   9.618  18.276  0.00  0.00    +0.000 C 
BRANCH  18  22
ATOM     19  C   UNL     1      -2.465  10.897  18.103  0.00  0.00    +0.000 A 
ATOM     20  C   UNL     1      -1.614  11.381  19.091  0.00  0.00    +0.000 A 
ATOM     21  C   UNL     1      -0.300  10.909  19.154  0.00  0.00    +0.000 A 
ATOM     22  N   UNL     1       0.159   9.987  18.263  0.00  0.00    +0.000 N 
ATOM     23  C   UNL     1      -0.691   9.497  17.322  0.00  0.00    +0.000 A 
ATOM     24  C   UNL     1      -2.012   9.916  17.236  0.00  0.00    +0.000 A 
BRANCH  19  26
ATOM     25  N   UNL     1      -4.449  11.261  16.765  0.00  0.00    +0.000 NA
ATOM     26  C   UNL     1      -3.810  11.458  17.872  0.00  0.00    +0.000 C 
BRANCH  25  27
ATOM     27  O   UNL     1      -5.722  11.837  16.889  0.00  0.00    +0.000 OA
ATOM     28  H   UNL     1      -5.808  12.363  16.071  0.00  0.00    +0.000 HD
ENDBRANCH  25  27
ENDBRANCH  19  26
ENDBRANCH  18  22
ENDBRANCH  17  18
ENDBRANCH   1  17
TORSDOF 6
ENDMDL
MODEL 4
REMARK VINA RESULT:      -8.0      1.591      3.900
REMARK  Name = 
REMARK  6 active torsions:
REMARK  status: ('A' for Active; 'I' for Inactive)
REMARK    1  A    between atoms: O_1  and  N_2
REMARK    2  A    between atoms: C_3  and  C_4
REMARK    3  A    between atoms: N_7  and  C_8
REMARK    4  A    between atoms: C_8  and  C_9
REMARK    5  A    between atoms: C_9  and  N_10
REMARK    6  A    between atoms: N_10  and  C_11
REMARK                            x       y       z     vdW  Elec       q    Type
REMARK                         _______ _______ _______ _____ _____    ______ ____
ROOT
ATOM      1  N   UNL     1       2.448   6.866  17.971  0.00  0.00    +0.000 N 
ATOM      2  H   UNL     1       2.689   7.047  16.999  0.00  0.00    +0.000 HD
ENDROOT
BRANCH   1   3
ATOM      3  C   UNL     1       3.327   5.850  18.514  0.00  0.00    +0.000 A 
ATOM      4  C   UNL     1       2.886   4.761  19.351  0.00  0.00    +0.000 A 
ATOM      5  C   UNL     1       3.837   3.808  19.719  0.00  0.00    +0.000 A 
ATOM      6  N   UNL     1       5.121   3.856  19.349  0.00  0.00    +0.000 NA
ATOM      7  C   UNL     1       5.558   4.847  18.604  0.00  0.00    +0.000 A 
ATOM      8  C   UNL     1       6.912   4.784  18.366  0.00  0.00    +0.000 A 
ATOM      9  C   UNL     1       7.560   5.759  17.635  0.00  0.00    +0.000 A 
ATOM     10  C   UNL     1       6.806   6.787  17.086  0.00  0.00    +0.000 A 
ATOM     11  C   UNL     1       5.416   6.845  17.297  0.00  0.00    +0.000 A 
ATOM     12  C   UNL     1       4.735   5.885  18.108  0.00  0.00    +0.000 A 
ATOM     13  C   UNL     1       3.565   2.573  20.511  0.00  0.00    +0.000 C 
ATOM     14  C   UNL     1       2.323   2.566  21.361  0.00  0.00    +0.000 C 
ATOM     15  C   UNL     1       1.175   3.406  20.849  0.00  0.00    +0.000 C 
ATOM     16  C   UNL     1       1.487   4.548  19.869  0.00  0.00    +0.000 C 
ENDBRANCH   1   3
BRANCH   1  17
ATOM     17  C   UNL     1       2.187   8.071  18.761  0.00  0.00    +0.000 C 
BRANCH  17  18
ATOM     18  C   UNL     1       1.882   9.383  18.012  0.00  0.00    +0.000 C 
BRANCH  18  22
ATOM     19  C   UNL     1      -1.640  11.495  19.303  0.00  0.00    +0.000 A 
ATOM     20  C   UNL     1      -0.434  11.651  19.979  0.00  0.00    +0.000 A 
ATOM     21  C   UNL     1       0.680  10.913  19.569  0.00  0.00    +0.000 A 
ATOM     22  N   UNL     1       0.604  10.049  18.519  0.00  0.00    +0.000 N 
ATOM     23  C   UNL     1      -0.589   9.881  17.887  0.00  0.00    +0.000 A 
ATOM     24  C   UNL     1      -1.729  10.572  18.274  0.00  0.00    +0.000 A 
BRANCH  19  26
ATOM     25  N   UNL     1      -3.958  12.128  19.013  0.00  0.00    +0.000 NA
ATOM     26  C   UNL     1      -2.813  12.349  19.571  0.00  0.00    +0.000 C 
BRANCH  25  27
ATOM     27  O   UNL     1      -4.882  13.043  19.537  0.00  0.00    +0.000 OA
ATOM     28  H   UNL     1      -4.360  13.530  20.203  0.00  0.00    +0.000 HD
ENDBRANCH  25  27
ENDBRANCH  19  26
ENDBRANCH  18  22
ENDBRANCH  17  18
ENDBRANCH   1  17
TORSDOF 6
ENDMDL
MODEL 5
REMARK VINA RESULT:      -8.0      2.564      2.700
REMARK  Name = 
REMARK  6 active torsions:
REMARK  status: ('A' for Active; 'I' for Inactive)
REMARK    1  A    between atoms: O_1  and  N_2
REMARK    2  A    between atoms: C_3  and  C_4
REMARK    3  A    between atoms: N_7  and  C_8
REMARK    4  A    between atoms: C_8  and  C_9
REMARK    5  A    between atoms: C_9  and  N_10
REMARK    6  A    between atoms: N_10  and  C_11
REMARK                            x       y       z     vdW  Elec       q    Type
REMARK                         _______ _______ _______ _____ _____    ______ ____
ROOT
ATOM      1  N   UNL     1       3.012   7.343  18.746  0.00  0.00    +0.000 N 
ATOM      2  H   UNL     1       3.076   7.413  19.759  0.00  0.00    +0.000 HD
ENDROOT
BRANCH   1   3
ATOM      3  C   UNL     1       3.259   5.977  18.332  0.00  0.00    +0.000 A 
ATOM      4  C   UNL     1       4.147   5.604  17.259  0.00  0.00    +0.000 A 
ATOM      5  C   UNL     1       4.353   4.241  17.040  0.00  0.00    +0.000 A 
ATOM      6  N   UNL     1       3.771   3.275  17.758  0.00  0.00    +0.000 NA
ATOM      7  C   UNL     1       2.941   3.582  18.729  0.00  0.00    +0.000 A 
ATOM      8  C   UNL     1       2.379   2.477  19.326  0.00  0.00    +0.000 A 
ATOM      9  C   UNL     1       1.451   2.600  20.341  0.00  0.00    +0.000 A 
ATOM     10  C   UNL     1       1.133   3.872  20.797  0.00  0.00    +0.000 A 
ATOM     11  C   UNL     1       1.725   5.008  20.215  0.00  0.00    +0.000 A 
ATOM     12  C   UNL     1       2.635   4.908  19.118  0.00  0.00    +0.000 A 
ATOM     13  C   UNL     1       5.289   3.656  16.035  0.00  0.00    +0.000 C 
ATOM     14  C   UNL     1       5.687   4.534  14.879  0.00  0.00    +0.000 C 
ATOM     15  C   UNL     1       5.711   6.019  15.163  0.00  0.00    +0.000 C 
ATOM     16  C   UNL     1       4.882   6.549  16.344  0.00  0.00    +0.000 C 
ENDBRANCH   1   3
BRANCH   1  17
ATOM     17  C   UNL     1       1.879   8.065  18.164  0.00  0.00    +0.000 C 
BRANCH  17  18
ATOM     18  C   UNL     1       1.833   9.598  18.316  0.00  0.00    +0.000 C 
BRANCH  18  22
ATOM     19  C   UNL     1      -0.375  10.852  21.791  0.00  0.00    +0.000 A 
ATOM     20  C   UNL     1       0.210  11.791  20.948  0.00  0.00    +0.000 A 
ATOM     21  C   UNL     1       0.964  11.354  19.856  0.00  0.00    +0.000 A 
ATOM     22  N   UNL     1       1.132  10.026  19.604  0.00  0.00    +0.000 N 
ATOM     23  C   UNL     1       0.583   9.118  20.454  0.00  0.00    +0.000 A 
ATOM     24  C   UNL     1      -0.154   9.504  21.566  0.00  0.00    +0.000 A 
BRANCH  19  26
ATOM     25  N   UNL     1      -2.354  11.960  22.637  0.00  0.00    +0.000 NA
ATOM     26  C   UNL     1      -1.312  11.230  22.867  0.00  0.00    +0.000 C 
BRANCH  25  27
ATOM     27  O   UNL     1      -3.085  12.063  23.830  0.00  0.00    +0.000 OA
ATOM     28  H   UNL     1      -2.423  12.392  24.468  0.00  0.00    +0.000 HD
ENDBRANCH  25  27
ENDBRANCH  19  26
ENDBRANCH  18  22
ENDBRANCH  17  18
ENDBRANCH   1  17
TORSDOF 6
ENDMDL
MODEL 6
REMARK VINA RESULT:      -7.9      2.656      2.931
REMARK  Name = 
REMARK  6 active torsions:
REMARK  status: ('A' for Active; 'I' for Inactive)
REMARK    1  A    between atoms: O_1  and  N_2
REMARK    2  A    between atoms: C_3  and  C_4
REMARK    3  A    between atoms: N_7  and  C_8
REMARK    4  A    between atoms: C_8  and  C_9
REMARK    5  A    between atoms: C_9  and  N_10
REMARK    6  A    between atoms: N_10  and  C_11
REMARK                            x       y       z     vdW  Elec       q    Type
REMARK                         _______ _______ _______ _____ _____    ______ ____
ROOT
ATOM      1  N   UNL     1       2.822   7.274  18.807  0.00  0.00    +0.000 N 
ATOM      2  H   UNL     1       2.655   7.286  19.811  0.00  0.00    +0.000 HD
ENDROOT
BRANCH   1   3
ATOM      3  C   UNL     1       3.154   5.930  18.382  0.00  0.00    +0.000 A 
ATOM      4  C   UNL     1       4.078   5.622  17.319  0.00  0.00    +0.000 A 
ATOM      5  C   UNL     1       4.366   4.276  17.088  0.00  0.00    +0.000 A 
ATOM      6  N   UNL     1       3.828   3.269  17.785  0.00  0.00    +0.000 NA
ATOM      7  C   UNL     1       2.966   3.515  18.745  0.00  0.00    +0.000 A 
ATOM      8  C   UNL     1       2.459   2.373  19.319  0.00  0.00    +0.000 A 
ATOM      9  C   UNL     1       1.510   2.431  20.321  0.00  0.00    +0.000 A 
ATOM     10  C   UNL     1       1.113   3.677  20.786  0.00  0.00    +0.000 A 
ATOM     11  C   UNL     1       1.647   4.852  20.228  0.00  0.00    +0.000 A 
ATOM     12  C   UNL     1       2.579   4.817  19.144  0.00  0.00    +0.000 A 
ATOM     13  C   UNL     1       5.349   3.758  16.092  0.00  0.00    +0.000 C 
ATOM     14  C   UNL     1       5.714   4.672  14.953  0.00  0.00    +0.000 C 
ATOM     15  C   UNL     1       5.649   6.152  15.255  0.00  0.00    +0.000 C 
ATOM     16  C   UNL     1       4.773   6.619  16.428  0.00  0.00    +0.000 C 
ENDBRANCH   1   3
BRANCH   1  17
ATOM     17  C   UNL     1       1.854   8.045  18.026  0.00  0.00    +0.000 C 
BRANCH  17  18
ATOM     18  C   UNL     1       2.045   9.572  17.926  0.00  0.00    +0.000 C 
BRANCH  18  22
ATOM     19  C   UNL     1      -0.033  11.663  21.062  0.00  0.00    +0.000 A 
ATOM     20  C   UNL     1       0.015  10.273  21.050  0.00  0.00    +0.000 A 
ATOM     21  C   UNL     1       0.652   9.620  19.992  0.00  0.00    +0.000 A 
ATOM     22  N   UNL     1       1.228  10.322  18.977  0.00  0.00    +0.000 N 
ATOM     23  C   UNL     1       1.146  11.679  18.983  0.00  0.00    +0.000 A 
ATOM     24  C   UNL     1       0.501  12.372  19.999  0.00  0.00    +0.000 A 
BRANCH  19  26
ATOM     25  N   UNL     1      -0.040  13.567  22.556  0.00  0.00    +0.000 NA
ATOM     26  C   UNL     1      -0.546  12.427  22.216  0.00  0.00    +0.000 C 
BRANCH  25  27
ATOM     27  O   UNL     1      -0.797  14.079  23.621  0.00  0.00    +0.000 OA
ATOM     28  H   UNL     1      -1.704  14.101  23.259  0.00  0.00    +0.000 HD
ENDBRANCH  25  27
ENDBRANCH  19  26
ENDBRANCH  18  22
ENDBRANCH  17  18
ENDBRANCH   1  17
TORSDOF 6
ENDMDL
MODEL 7
REMARK VINA RESULT:      -7.9      0.712      1.151
REMARK  Name = 
REMARK  6 active torsions:
REMARK  status: ('A' for Active; 'I' for Inactive)
REMARK    1  A    between atoms: O_1  and  N_2
REMARK    2  A    between atoms: C_3  and  C_4
REMARK    3  A    between atoms: N_7  and  C_8
REMARK    4  A    between atoms: C_8  and  C_9
REMARK    5  A    between atoms: C_9  and  N_10
REMARK    6  A    between atoms: N_10  and  C_11
REMARK                            x       y       z     vdW  Elec       q    Type
REMARK                         _______ _______ _______ _____ _____    ______ ____
ROOT
ATOM      1  N   UNL     1       2.645   7.083  19.650  0.00  0.00    +0.000 N 
ATOM      2  H   UNL     1       2.293   6.836  20.572  0.00  0.00    +0.000 HD
ENDROOT
BRANCH   1   3
ATOM      3  C   UNL     1       2.922   5.881  18.892  0.00  0.00    +0.000 A 
ATOM      4  C   UNL     1       3.831   5.820  17.774  0.00  0.00    +0.000 A 
ATOM      5  C   UNL     1       4.065   4.568  17.204  0.00  0.00    +0.000 A 
ATOM      6  N   UNL     1       3.489   3.437  17.628  0.00  0.00    +0.000 NA
ATOM      7  C   UNL     1       2.640   3.463  18.630  0.00  0.00    +0.000 A 
ATOM      8  C   UNL     1       2.089   2.231  18.900  0.00  0.00    +0.000 A 
ATOM      9  C   UNL     1       1.145   2.067  19.894  0.00  0.00    +0.000 A 
ATOM     10  C   UNL     1       0.799   3.167  20.667  0.00  0.00    +0.000 A 
ATOM     11  C   UNL     1       1.378   4.425  20.420  0.00  0.00    +0.000 A 
ATOM     12  C   UNL     1       2.305   4.633  19.352  0.00  0.00    +0.000 A 
ATOM     13  C   UNL     1       5.025   4.284  16.097  0.00  0.00    +0.000 C 
ATOM     14  C   UNL     1       5.423   5.444  15.224  0.00  0.00    +0.000 C 
ATOM     15  C   UNL     1       5.417   6.799  15.894  0.00  0.00    +0.000 C 
ATOM     16  C   UNL     1       4.563   6.984  17.158  0.00  0.00    +0.000 C 
ENDBRANCH   1   3
BRANCH   1  17
ATOM     17  C   UNL     1       1.918   8.177  19.002  0.00  0.00    +0.000 C 
BRANCH  17  18
ATOM     18  C   UNL     1       1.379   9.320  19.884  0.00  0.00    +0.000 C 
BRANCH  18  22
ATOM     19  C   UNL     1      -2.199  11.008  18.188  0.00  0.00    +0.000 A 
ATOM     20  C   UNL     1      -1.417  10.123  17.453  0.00  0.00    +0.000 A 
ATOM     21  C   UNL     1      -0.234   9.631  18.010  0.00  0.00    +0.000 A 
ATOM     22  N   UNL     1       0.163  10.002  19.259  0.00  0.00    +0.000 N 
ATOM     23  C   UNL     1      -0.594  10.892  19.955  0.00  0.00    +0.000 A 
ATOM     24  C   UNL     1      -1.764  11.428  19.434  0.00  0.00    +0.000 A 
BRANCH  19  26
ATOM     25  N   UNL     1      -4.188  10.807  16.824  0.00  0.00    +0.000 NA
ATOM     26  C   UNL     1      -3.534  11.447  17.737  0.00  0.00    +0.000 C 
BRANCH  25  27
ATOM     27  O   UNL     1      -5.447  11.410  16.686  0.00  0.00    +0.000 OA
ATOM     28  H   UNL     1      -5.990  10.702  16.289  0.00  0.00    +0.000 HD
ENDBRANCH  25  27
ENDBRANCH  19  26
ENDBRANCH  18  22
ENDBRANCH  17  18
ENDBRANCH   1  17
TORSDOF 6
ENDMDL
MODEL 8
REMARK VINA RESULT:      -7.9      1.907      4.158
REMARK  Name = 
REMARK  6 active torsions:
REMARK  status: ('A' for Active; 'I' for Inactive)
REMARK    1  A    between atoms: O_1  and  N_2
REMARK    2  A    between atoms: C_3  and  C_4
REMARK    3  A    between atoms: N_7  and  C_8
REMARK    4  A    between atoms: C_8  and  C_9
REMARK    5  A    between atoms: C_9  and  N_10
REMARK    6  A    between atoms: N_10  and  C_11
REMARK                            x       y       z     vdW  Elec       q    Type
REMARK                         _______ _______ _______ _____ _____    ______ ____
ROOT
ATOM      1  N   UNL     1       2.334   6.682  17.842  0.00  0.00    +0.000 N 
ATOM      2  H   UNL     1       2.393   6.623  16.827  0.00  0.00    +0.000 HD
ENDROOT
BRANCH   1   3
ATOM      3  C   UNL     1       3.245   5.730  18.443  0.00  0.00    +0.000 A 
ATOM      4  C   UNL     1       2.836   4.658  19.315  0.00  0.00    +0.000 A 
ATOM      5  C   UNL     1       3.821   3.765  19.741  0.00  0.00    +0.000 A 
ATOM      6  N   UNL     1       5.110   3.857  19.394  0.00  0.00    +0.000 NA
ATOM      7  C   UNL     1       5.518   4.835  18.618  0.00  0.00    +0.000 A 
ATOM      8  C   UNL     1       6.877   4.825  18.408  0.00  0.00    +0.000 A 
ATOM      9  C   UNL     1       7.496   5.799  17.650  0.00  0.00    +0.000 A 
ATOM     10  C   UNL     1       6.708   6.768  17.045  0.00  0.00    +0.000 A 
ATOM     11  C   UNL     1       5.313   6.770  17.226  0.00  0.00    +0.000 A 
ATOM     12  C   UNL     1       4.659   5.814  18.063  0.00  0.00    +0.000 A 
ATOM     13  C   UNL     1       3.589   2.552  20.578  0.00  0.00    +0.000 C 
ATOM     14  C   UNL     1       2.331   2.522  21.404  0.00  0.00    +0.000 C 
ATOM     15  C   UNL     1       1.157   3.287  20.835  0.00  0.00    +0.000 C 
ATOM     16  C   UNL     1       1.438   4.402  19.815  0.00  0.00    +0.000 C 
ENDBRANCH   1   3
BRANCH   1  17
ATOM     17  C   UNL     1       2.292   8.049  18.364  0.00  0.00    +0.000 C 
BRANCH  17  18
ATOM     18  C   UNL     1       1.765   8.270  19.796  0.00  0.00    +0.000 C 
BRANCH  18  22
ATOM     19  C   UNL     1      -0.993  11.569  19.981  0.00  0.00    +0.000 A 
ATOM     20  C   UNL     1      -0.417  11.195  18.771  0.00  0.00    +0.000 A 
ATOM     21  C   UNL     1       0.514  10.154  18.749  0.00  0.00    +0.000 A 
ATOM     22  N   UNL     1       0.863   9.499  19.892  0.00  0.00    +0.000 N 
ATOM     23  C   UNL     1       0.317   9.895  21.073  0.00  0.00    +0.000 A 
ATOM     24  C   UNL     1      -0.592  10.941  21.148  0.00  0.00    +0.000 A 
BRANCH  19  26
ATOM     25  N   UNL     1      -3.263  12.300  19.568  0.00  0.00    +0.000 NA
ATOM     26  C   UNL     1      -2.095  12.547  20.064  0.00  0.00    +0.000 C 
BRANCH  25  27
ATOM     27  O   UNL     1      -4.108  13.374  19.887  0.00  0.00    +0.000 OA
ATOM     28  H   UNL     1      -4.498  13.614  19.025  0.00  0.00    +0.000 HD
ENDBRANCH  25  27
ENDBRANCH  19  26
ENDBRANCH  18  22
ENDBRANCH  17  18
ENDBRANCH   1  17
TORSDOF 6
ENDMDL
MODEL 9
REMARK VINA RESULT:      -7.9      2.412      4.414
REMARK  Name = 
REMARK  6 active torsions:
REMARK  status: ('A' for Active; 'I' for Inactive)
REMARK    1  A    between atoms: O_1  and  N_2
REMARK    2  A    between atoms: C_3  and  C_4
REMARK    3  A    between atoms: N_7  and  C_8
REMARK    4  A    between atoms: C_8  and  C_9
REMARK    5  A    between atoms: C_9  and  N_10
REMARK    6  A    between atoms: N_10  and  C_11
REMARK                            x       y       z     vdW  Elec       q    Type
REMARK                         _______ _______ _______ _____ _____    ______ ____
ROOT
ATOM      1  N   UNL     1       3.161   7.337  18.509  0.00  0.00    +0.000 N 
ATOM      2  H   UNL     1       3.289   7.519  19.502  0.00  0.00    +0.000 HD
ENDROOT
BRANCH   1   3
ATOM      3  C   UNL     1       3.364   5.928  18.239  0.00  0.00    +0.000 A 
ATOM      4  C   UNL     1       2.687   4.865  18.939  0.00  0.00    +0.000 A 
ATOM      5  C   UNL     1       2.918   3.559  18.502  0.00  0.00    +0.000 A 
ATOM      6  N   UNL     1       3.731   3.246  17.487  0.00  0.00    +0.000 NA
ATOM      7  C   UNL     1       4.380   4.191  16.844  0.00  0.00    +0.000 A 
ATOM      8  C   UNL     1       5.222   3.700  15.874  0.00  0.00    +0.000 A 
ATOM      9  C   UNL     1       6.016   4.539  15.118  0.00  0.00    +0.000 A 
ATOM     10  C   UNL     1       5.907   5.909  15.314  0.00  0.00    +0.000 A 
ATOM     11  C   UNL     1       5.026   6.424  16.282  0.00  0.00    +0.000 A 
ATOM     12  C   UNL     1       4.246   5.572  17.123  0.00  0.00    +0.000 A 
ATOM     13  C   UNL     1       2.256   2.335  19.040  0.00  0.00    +0.000 C 
ATOM     14  C   UNL     1       1.667   2.428  20.422  0.00  0.00    +0.000 C 
ATOM     15  C   UNL     1       1.176   3.798  20.833  0.00  0.00    +0.000 C 
ATOM     16  C   UNL     1       1.744   5.025  20.103  0.00  0.00    +0.000 C 
ENDBRANCH   1   3
BRANCH   1  17
ATOM     17  C   UNL     1       2.005   8.012  17.917  0.00  0.00    +0.000 C 
BRANCH  17  18
ATOM     18  C   UNL     1       2.018   9.551  17.838  0.00  0.00    +0.000 C 
BRANCH  18  22
ATOM     19  C   UNL     1      -0.531  11.332  20.814  0.00  0.00    +0.000 A 
ATOM     20  C   UNL     1      -0.000  12.102  19.785  0.00  0.00    +0.000 A 
ATOM     21  C   UNL     1       0.866  11.508  18.862  0.00  0.00    +0.000 A 
ATOM     22  N   UNL     1       1.194  10.190  18.954  0.00  0.00    +0.000 N 
ATOM     23  C   UNL     1       0.695   9.455  19.984  0.00  0.00    +0.000 A 
ATOM     24  C   UNL     1      -0.149  10.007  20.939  0.00  0.00    +0.000 A 
BRANCH  19  26
ATOM     25  N   UNL     1      -1.368  11.938  23.003  0.00  0.00    +0.000 NA
ATOM     26  C   UNL     1      -1.570  11.842  21.729  0.00  0.00    +0.000 C 
BRANCH  25  27
ATOM     27  O   UNL     1      -2.498  12.538  23.579  0.00  0.00    +0.000 OA
ATOM     28  H   UNL     1      -2.703  11.949  24.330  0.00  0.00    +0.000 HD
ENDBRANCH  25  27
ENDBRANCH  19  26
ENDBRANCH  18  22
ENDBRANCH  17  18
ENDBRANCH   1  17
TORSDOF 6
ENDMDL
