MODEL 1
REMARK VINA RESULT:      -8.9      0.000      0.000
REMARK  Name = 
REMARK  14 active torsions:
REMARK  status: ('A' for Active; 'I' for Inactive)
REMARK    1  A    between atoms: C_1  and  C_2
REMARK    2  A    between atoms: C_2  and  C_3
REMARK    3  A    between atoms: C_3  and  C_4
REMARK    4  A    between atoms: C_4  and  C_5
REMARK    5  A    between atoms: C_4  and  N_6
REMARK    6  A    between atoms: C_9  and  C_10
REMARK    7  A    between atoms: C_12  and  N_13
REMARK    8  A    between atoms: N_13  and  C_14
REMARK    9  A    between atoms: C_14  and  C_15
REMARK   10  A    between atoms: C_14  and  C_22
REMARK   11  A    between atoms: C_15  and  C_16
REMARK   12  A    between atoms: N_24  and  C_25
REMARK   13  A    between atoms: C_25  and  C_26
REMARK   14  A    between atoms: C_26  and  C_27
REMARK                            x       y       z     vdW  Elec       q    Type
REMARK                         _______ _______ _______ _____ _____    ______ ____
ROOT
ATOM      1  C   UNL     1       6.666   5.981  16.556  0.00  0.00    +0.000 C 
ENDROOT
BRANCH   1   2
ATOM      2  C   UNL     1       7.450   6.754  17.654  0.00  0.00    +0.000 C 
ATOM      3  O   UNL     1       7.698   6.262  18.756  0.00  0.00    +0.000 OA
ATOM      4  N   UNL     1       7.834   8.041  17.326  0.00  0.00    +0.000 N 
ATOM      5  H   UNL     1       7.565   8.435  16.433  0.00  0.00    +0.000 HD
BRANCH   4   6
ATOM      6  C   UNL     1       8.401   8.930  18.326  0.00  0.00    +0.000 C 
BRANCH   6   7
ATOM      7  C   UNL     1       8.623  10.346  17.797  0.00  0.00    +0.000 C 
BRANCH   7   8
ATOM      8  C   UNL     1       9.755  11.045  18.504  0.00  0.00    +0.000 A 
ATOM      9  C   UNL     1       9.775  11.125  19.904  0.00  0.00    +0.000 A 
ATOM     10  C   UNL     1      10.829  11.763  20.559  0.00  0.00    +0.000 A 
ATOM     11  C   UNL     1      11.866  12.332  19.824  0.00  0.00    +0.000 A 
ATOM     12  C   UNL     1      11.849  12.268  18.431  0.00  0.00    +0.000 A 
ATOM     13  C   UNL     1      10.797  11.630  17.774  0.00  0.00    +0.000 A 
ENDBRANCH   7   8
ENDBRANCH   6   7
ENDBRANCH   4   6
ENDBRANCH   1   2
BRANCH   1  14
ATOM     14  N   UNL     1       5.441   6.747  16.260  0.00  0.00    +0.000 N 
ATOM     15  H   UNL     1       5.278   6.832  15.259  0.00  0.00    +0.000 HD
BRANCH  14  22
ATOM     16  N   UNL     1       2.267   4.097  18.535  0.00  0.00    +0.000 N 
ATOM     17  C   UNL     1       2.791   5.329  18.193  0.00  0.00    +0.000 A 
ATOM     18  N   UNL     1       2.090   6.386  18.613  0.00  0.00    +0.000 NA
ATOM     19  C   UNL     1       2.527   7.600  18.234  0.00  0.00    +0.000 A 
ATOM     20  C   UNL     1       1.780   8.794  18.749  0.00  0.00    +0.000 C 
ATOM     21  C   UNL     1       3.619   7.760  17.406  0.00  0.00    +0.000 A 
ATOM     22  C   UNL     1       4.293   6.617  17.024  0.00  0.00    +0.000 A 
ATOM     23  N   UNL     1       3.902   5.410  17.449  0.00  0.00    +0.000 NA
ATOM     24  H   UNL     1       1.568   4.259  19.250  0.00  0.00    +0.000 HD
BRANCH  16  25
ATOM     25  C   UNL     1       3.195   2.998  18.765  0.00  0.00    +0.000 C 
ATOM     26  C   UNL     1       2.587   1.752  18.116  0.00  0.00    +0.000 C 
BRANCH  25  27
ATOM     27  C   UNL     1       3.411   2.825  20.281  0.00  0.00    +0.000 C 
BRANCH  27  29
ATOM     28  C   UNL     1       1.298   2.677  21.645  0.00  0.00    +0.000 C 
ATOM     29  C   UNL     1       2.397   3.593  21.132  0.00  0.00    +0.000 C 
ENDBRANCH  27  29
ENDBRANCH  25  27
ENDBRANCH  16  25
ENDBRANCH  14  22
ENDBRANCH   1  14
BRANCH   1  30
ATOM     30  C   UNL     1       7.591   5.705  15.350  0.00  0.00    +0.000 C 
BRANCH  30  31
ATOM     31  C   UNL     1       7.013   4.884  14.221  0.00  0.00    +0.000 A 
ATOM     32  C   UNL     1       5.823   4.158  14.391  0.00  0.00    +0.000 A 
ATOM     33  C   UNL     1       5.285   3.422  13.335  0.00  0.00    +0.000 A 
ATOM     34  C   UNL     1       5.916   3.419  12.096  0.00  0.00    +0.000 A 
ATOM     35  C   UNL     1       7.095   4.140  11.915  0.00  0.00    +0.000 A 
ATOM     36  C   UNL     1       7.644   4.865  12.973  0.00  0.00    +0.000 A 
ENDBRANCH  30  31
ENDBRANCH   1  30
TORSDOF 11
ENDMDL
MODEL 2
REMARK VINA RESULT:      -8.3      1.218      3.485
REMARK  Name = 
REMARK  14 active torsions:
REMARK  status: ('A' for Active; 'I' for Inactive)
REMARK    1  A    between atoms: C_1  and  C_2
REMARK    2  A    between atoms: C_2  and  C_3
REMARK    3  A    between atoms: C_3  and  C_4
REMARK    4  A    between atoms: C_4  and  C_5
REMARK    5  A    between atoms: C_4  and  N_6
REMARK    6  A    between atoms: C_9  and  C_10
REMARK    7  A    between atoms: C_12  and  N_13
REMARK    8  A    between atoms: N_13  and  C_14
REMARK    9  A    between atoms: C_14  and  C_15
REMARK   10  A    between atoms: C_14  and  C_22
REMARK   11  A    between atoms: C_15  and  C_16
REMARK   12  A    between atoms: N_24  and  C_25
REMARK   13  A    between atoms: C_25  and  C_26
REMARK   14  A    between atoms: C_26  and  C_27
REMARK                            x       y       z     vdW  Elec       q    Type
REMARK                         _______ _______ _______ _____ _____    ______ ____
ROOT
ATOM      1  C   UNL     1       6.525   5.705  16.634  0.00  0.00    +0.000 C 
ENDROOT
BRANCH   1   2
ATOM      2  C   UNL     1       7.311   6.479  17.728  0.00  0.00    +0.000 C 
ATOM      3  O   UNL     1       7.514   6.011  18.850  0.00  0.00    +0.000 OA
ATOM      4  N   UNL     1       7.752   7.741  17.372  0.00  0.00    +0.000 N 
ATOM      5  H   UNL     1       7.520   8.118  16.462  0.00  0.00    +0.000 HD
BRANCH   4   6
ATOM      6  C   UNL     1       8.330   8.637  18.360  0.00  0.00    +0.000 C 
BRANCH   6   7
ATOM      7  C   UNL     1       8.458  10.072  17.849  0.00  0.00    +0.000 C 
BRANCH   7   8
ATOM      8  C   UNL     1       9.528  10.840  18.580  0.00  0.00    +0.000 A 
ATOM      9  C   UNL     1       9.464  10.995  19.972  0.00  0.00    +0.000 A 
ATOM     10  C   UNL     1      10.461  11.698  20.650  0.00  0.00    +0.000 A 
ATOM     11  C   UNL     1      11.525  12.257  19.943  0.00  0.00    +0.000 A 
ATOM     12  C   UNL     1      11.591  12.117  18.557  0.00  0.00    +0.000 A 
ATOM     13  C   UNL     1      10.595  11.415  17.878  0.00  0.00    +0.000 A 
ENDBRANCH   7   8
ENDBRANCH   6   7
ENDBRANCH   4   6
ENDBRANCH   1   2
BRANCH   1  14
ATOM     14  N   UNL     1       5.208   6.353  16.487  0.00  0.00    +0.000 N 
ATOM     15  H   UNL     1       4.810   6.200  15.563  0.00  0.00    +0.000 HD
BRANCH  14  22
ATOM     16  N   UNL     1       1.881   8.560  19.001  0.00  0.00    +0.000 N 
ATOM     17  C   UNL     1       2.613   7.429  18.695  0.00  0.00    +0.000 A 
ATOM     18  N   UNL     1       2.401   6.376  19.489  0.00  0.00    +0.000 NA
ATOM     19  C   UNL     1       3.152   5.282  19.269  0.00  0.00    +0.000 A 
ATOM     20  C   UNL     1       2.880   4.078  20.118  0.00  0.00    +0.000 C 
ATOM     21  C   UNL     1       4.136   5.252  18.303  0.00  0.00    +0.000 A 
ATOM     22  C   UNL     1       4.284   6.379  17.518  0.00  0.00    +0.000 A 
ATOM     23  N   UNL     1       3.499   7.448  17.690  0.00  0.00    +0.000 NA
ATOM     24  H   UNL     1       1.146   8.275  19.638  0.00  0.00    +0.000 HD
BRANCH  16  25
ATOM     25  C   UNL     1       1.494   9.444  17.910  0.00  0.00    +0.000 C 
ATOM     26  C   UNL     1       2.239  10.765  18.114  0.00  0.00    +0.000 C 
BRANCH  25  27
ATOM     27  C   UNL     1      -0.037   9.623  17.921  0.00  0.00    +0.000 C 
BRANCH  27  29
ATOM     28  C   UNL     1      -0.830  10.649  20.081  0.00  0.00    +0.000 C 
ATOM     29  C   UNL     1      -0.495  10.905  18.620  0.00  0.00    +0.000 C 
ENDBRANCH  27  29
ENDBRANCH  25  27
ENDBRANCH  16  25
ENDBRANCH  14  22
ENDBRANCH   1  14
BRANCH   1  30
ATOM     30  C   UNL     1       7.373   5.612  15.346  0.00  0.00    +0.000 C 
BRANCH  30  31
ATOM     31  C   UNL     1       6.807   4.788  14.214  0.00  0.00    +0.000 A 
ATOM     32  C   UNL     1       5.558   4.158  14.333  0.00  0.00    +0.000 A 
ATOM     33  C   UNL     1       5.033   3.418  13.272  0.00  0.00    +0.000 A 
ATOM     34  C   UNL     1       5.738   3.317  12.079  0.00  0.00    +0.000 A 
ATOM     35  C   UNL     1       6.977   3.942  11.949  0.00  0.00    +0.000 A 
ATOM     36  C   UNL     1       7.511   4.670  13.011  0.00  0.00    +0.000 A 
ENDBRANCH  30  31
ENDBRANCH   1  30
TORSDOF 11
ENDMDL
MODEL 3
REMARK VINA RESULT:      -8.3      1.512      3.548
REMARK  Name = 
REMARK  14 active torsions:
REMARK  status: ('A' for Active; 'I' for Inactive)
REMARK    1  A    between atoms: C_1  and  C_2
REMARK    2  A    between atoms: C_2  and  C_3
REMARK    3  A    between atoms: C_3  and  C_4
REMARK    4  A    between atoms: C_4  and  C_5
REMARK    5  A    between atoms: C_4  and  N_6
REMARK    6  A    between atoms: C_9  and  C_10
REMARK    7  A    between atoms: C_12  and  N_13
REMARK    8  A    between atoms: N_13  and  C_14
REMARK    9  A    between atoms: C_14  and  C_15
REMARK   10  A    between atoms: C_14  and  C_22
REMARK   11  A    between atoms: C_15  and  C_16
REMARK   12  A    between atoms: N_24  and  C_25
REMARK   13  A    between atoms: C_25  and  C_26
REMARK   14  A    between atoms: C_26  and  C_27
REMARK                            x       y       z     vdW  Elec       q    Type
REMARK                         _______ _______ _______ _____ _____    ______ ____
ROOT
ATOM      1  C   UNL     1       6.643   4.978  18.228  0.00  0.00    +0.000 C 
ENDROOT
BRANCH   1   2
ATOM      2  C   UNL     1       7.714   5.966  18.769  0.00  0.00    +0.000 C 
ATOM      3  O   UNL     1       8.462   5.680  19.705  0.00  0.00    +0.000 OA
ATOM      4  N   UNL     1       7.762   7.201  18.146  0.00  0.00    +0.000 N 
ATOM      5  H   UNL     1       7.096   7.424  17.418  0.00  0.00    +0.000 HD
BRANCH   4   6
ATOM      6  C   UNL     1       8.583   8.275  18.679  0.00  0.00    +0.000 C 
BRANCH   6   7
ATOM      7  C   UNL     1       8.385   9.593  17.933  0.00  0.00    +0.000 C 
BRANCH   7   8
ATOM      8  C   UNL     1       9.099  10.738  18.604  0.00  0.00    +0.000 A 
ATOM      9  C   UNL     1       9.541  10.619  19.929  0.00  0.00    +0.000 A 
ATOM     10  C   UNL     1      10.212  11.675  20.546  0.00  0.00    +0.000 A 
ATOM     11  C   UNL     1      10.441  12.859  19.849  0.00  0.00    +0.000 A 
ATOM     12  C   UNL     1       9.995  12.991  18.534  0.00  0.00    +0.000 A 
ATOM     13  C   UNL     1       9.324  11.937  17.916  0.00  0.00    +0.000 A 
ENDBRANCH   7   8
ENDBRANCH   6   7
ENDBRANCH   4   6
ENDBRANCH   1   2
BRANCH   1  14
ATOM     14  N   UNL     1       5.852   4.503  19.378  0.00  0.00    +0.000 N 
ATOM     15  H   UNL     1       6.229   4.836  20.263  0.00  0.00    +0.000 HD
BRANCH  14  22
ATOM     16  N   UNL     1       1.571   6.258  20.303  0.00  0.00    +0.000 N 
ATOM     17  C   UNL     1       2.388   5.310  19.718  0.00  0.00    +0.000 A 
ATOM     18  N   UNL     1       1.754   4.284  19.143  0.00  0.00    +0.000 NA
ATOM     19  C   UNL     1       2.518   3.303  18.630  0.00  0.00    +0.000 A 
ATOM     20  C   UNL     1       1.817   2.177  17.932  0.00  0.00    +0.000 C 
ATOM     21  C   UNL     1       3.894   3.317  18.731  0.00  0.00    +0.000 A 
ATOM     22  C   UNL     1       4.470   4.419  19.332  0.00  0.00    +0.000 A 
ATOM     23  N   UNL     1       3.720   5.428  19.789  0.00  0.00    +0.000 NA
ATOM     24  H   UNL     1       0.631   6.091  19.963  0.00  0.00    +0.000 HD
BRANCH  16  25
ATOM     25  C   UNL     1       2.026   7.642  20.316  0.00  0.00    +0.000 C 
ATOM     26  C   UNL     1       1.228   8.369  21.401  0.00  0.00    +0.000 C 
BRANCH  25  27
ATOM     27  C   UNL     1       1.815   8.258  18.919  0.00  0.00    +0.000 C 
BRANCH  27  29
ATOM     28  C   UNL     1       0.060   9.809  17.990  0.00  0.00    +0.000 C 
ATOM     29  C   UNL     1       1.224   9.669  18.958  0.00  0.00    +0.000 C 
ENDBRANCH  27  29
ENDBRANCH  25  27
ENDBRANCH  16  25
ENDBRANCH  14  22
ENDBRANCH   1  14
BRANCH   1  30
ATOM     30  C   UNL     1       5.838   5.649  17.093  0.00  0.00    +0.000 C 
BRANCH  30  31
ATOM     31  C   UNL     1       6.056   5.118  15.696  0.00  0.00    +0.000 A 
ATOM     32  C   UNL     1       7.253   5.369  15.005  0.00  0.00    +0.000 A 
ATOM     33  C   UNL     1       7.454   4.854  13.724  0.00  0.00    +0.000 A 
ATOM     34  C   UNL     1       6.474   4.068  13.129  0.00  0.00    +0.000 A 
ATOM     35  C   UNL     1       5.284   3.809  13.807  0.00  0.00    +0.000 A 
ATOM     36  C   UNL     1       5.074   4.334  15.081  0.00  0.00    +0.000 A 
ENDBRANCH  30  31
ENDBRANCH   1  30
TORSDOF 11
ENDMDL
MODEL 4
REMARK VINA RESULT:      -8.2      1.518      3.376
REMARK  Name = 
REMARK  14 active torsions:
REMARK  status: ('A' for Active; 'I' for Inactive)
REMARK    1  A    between atoms: C_1  and  C_2
REMARK    2  A    between atoms: C_2  and  C_3
REMARK    3  A    between atoms: C_3  and  C_4
REMARK    4  A    between atoms: C_4  and  C_5
REMARK    5  A    between atoms: C_4  and  N_6
REMARK    6  A    between atoms: C_9  and  C_10
REMARK    7  A    between atoms: C_12  and  N_13
REMARK    8  A    between atoms: N_13  and  C_14
REMARK    9  A    between atoms: C_14  and  C_15
REMARK   10  A    between atoms: C_14  and  C_22
REMARK   11  A    between atoms: C_15  and  C_16
REMARK   12  A    between atoms: N_24  and  C_25
REMARK   13  A    between atoms: C_25  and  C_26
REMARK   14  A    between atoms: C_26  and  C_27
REMARK                            x       y       z     vdW  Elec       q    Type
REMARK                         _______ _______ _______ _____ _____    ______ ____
ROOT
ATOM      1  C   UNL     1       6.394   5.384  16.931  0.00  0.00    +0.000 C 
ENDROOT
BRANCH   1   2
ATOM      2  C   UNL     1       6.539   6.905  17.212  0.00  0.00    +0.000 C 
ATOM      3  O   UNL     1       5.615   7.700  17.031  0.00  0.00    +0.000 OA
ATOM      4  N   UNL     1       7.781   7.319  17.658  0.00  0.00    +0.000 N 
ATOM      5  H   UNL     1       8.535   6.649  17.743  0.00  0.00    +0.000 HD
BRANCH   4   6
ATOM      6  C   UNL     1       8.101   8.732  17.775  0.00  0.00    +0.000 C 
BRANCH   6   7
ATOM      7  C   UNL     1       8.880   9.056  19.049  0.00  0.00    +0.000 C 
BRANCH   7   8
ATOM      8  C   UNL     1       9.307  10.500  19.100  0.00  0.00    +0.000 A 
ATOM      9  C   UNL     1       9.536  11.128  20.332  0.00  0.00    +0.000 A 
ATOM     10  C   UNL     1       9.942  12.462  20.379  0.00  0.00    +0.000 A 
ATOM     11  C   UNL     1      10.116  13.181  19.198  0.00  0.00    +0.000 A 
ATOM     12  C   UNL     1       9.879  12.568  17.968  0.00  0.00    +0.000 A 
ATOM     13  C   UNL     1       9.474  11.234  17.920  0.00  0.00    +0.000 A 
ENDBRANCH   7   8
ENDBRANCH   6   7
ENDBRANCH   4   6
ENDBRANCH   1   2
BRANCH   1  14
ATOM     14  N   UNL     1       6.061   4.723  18.207  0.00  0.00    +0.000 N 
ATOM     15  H   UNL     1       6.676   5.020  18.961  0.00  0.00    +0.000 HD
BRANCH  14  22
ATOM     16  N   UNL     1       2.045   6.084  20.278  0.00  0.00    +0.000 N 
ATOM     17  C   UNL     1       2.774   5.177  19.533  0.00  0.00    +0.000 A 
ATOM     18  N   UNL     1       2.143   4.036  19.242  0.00  0.00    +0.000 NA
ATOM     19  C   UNL     1       2.847   3.098  18.584  0.00  0.00    +0.000 A 
ATOM     20  C   UNL     1       2.129   1.838  18.204  0.00  0.00    +0.000 C 
ATOM     21  C   UNL     1       4.176   3.272  18.261  0.00  0.00    +0.000 A 
ATOM     22  C   UNL     1       4.751   4.485  18.589  0.00  0.00    +0.000 A 
ATOM     23  N   UNL     1       4.039   5.447  19.188  0.00  0.00    +0.000 NA
ATOM     24  H   UNL     1       1.078   5.783  20.251  0.00  0.00    +0.000 HD
BRANCH  16  25
ATOM     25  C   UNL     1       2.294   7.504  20.066  0.00  0.00    +0.000 C 
ATOM     26  C   UNL     1       1.476   8.266  21.111  0.00  0.00    +0.000 C 
BRANCH  25  27
ATOM     27  C   UNL     1       1.900   7.878  18.623  0.00  0.00    +0.000 C 
BRANCH  27  29
ATOM     28  C   UNL     1       0.279   9.580  17.716  0.00  0.00    +0.000 C 
ATOM     29  C   UNL     1       1.599   9.367  18.441  0.00  0.00    +0.000 C 
ENDBRANCH  27  29
ENDBRANCH  25  27
ENDBRANCH  16  25
ENDBRANCH  14  22
ENDBRANCH   1  14
BRANCH   1  30
ATOM     30  C   UNL     1       5.390   5.157  15.778  0.00  0.00    +0.000 C 
BRANCH  30  31
ATOM     31  C   UNL     1       5.962   4.704  14.456  0.00  0.00    +0.000 A 
ATOM     32  C   UNL     1       5.290   3.759  13.664  0.00  0.00    +0.000 A 
ATOM     33  C   UNL     1       5.814   3.365  12.432  0.00  0.00    +0.000 A 
ATOM     34  C   UNL     1       7.001   3.922  11.971  0.00  0.00    +0.000 A 
ATOM     35  C   UNL     1       7.674   4.864  12.747  0.00  0.00    +0.000 A 
ATOM     36  C   UNL     1       7.160   5.250  13.985  0.00  0.00    +0.000 A 
ENDBRANCH  30  31
ENDBRANCH   1  30
TORSDOF 11
ENDMDL
MODEL 5
REMARK VINA RESULT:      -8.0      2.260      4.865
REMARK  Name = 
REMARK  14 active torsions:
REMARK  status: ('A' for Active; 'I' for Inactive)
REMARK    1  A    between atoms: C_1  and  C_2
REMARK    2  A    between atoms: C_2  and  C_3
REMARK    3  A    between atoms: C_3  and  C_4
REMARK    4  A    between atoms: C_4  and  C_5
REMARK    5  A    between atoms: C_4  and  N_6
REMARK    6  A    between atoms: C_9  and  C_10
REMARK    7  A    between atoms: C_12  and  N_13
REMARK    8  A    between atoms: N_13  and  C_14
REMARK    9  A    between atoms: C_14  and  C_15
REMARK   10  A    between atoms: C_14  and  C_22
REMARK   11  A    between atoms: C_15  and  C_16
REMARK   12  A    between atoms: N_24  and  C_25
REMARK   13  A    between atoms: C_25  and  C_26
REMARK   14  A    between atoms: C_26  and  C_27
REMARK                            x       y       z     vdW  Elec       q    Type
REMARK                         _______ _______ _______ _____ _____    ______ ____
ROOT
ATOM      1  C   UNL     1       5.407   6.235  17.598  0.00  0.00    +0.000 C 
ENDROOT
BRANCH   1   2
ATOM      2  C   UNL     1       6.711   6.955  17.155  0.00  0.00    +0.000 C 
ATOM      3  O   UNL     1       7.415   6.537  16.234  0.00  0.00    +0.000 OA
ATOM      4  N   UNL     1       7.047   8.086  17.876  0.00  0.00    +0.000 N 
ATOM      5  H   UNL     1       6.478   8.371  18.662  0.00  0.00    +0.000 HD
BRANCH   4   6
ATOM      6  C   UNL     1       8.333   8.738  17.687  0.00  0.00    +0.000 C 
BRANCH   6   7
ATOM      7  C   UNL     1       8.238  10.261  17.768  0.00  0.00    +0.000 C 
BRANCH   7   8
ATOM      8  C   UNL     1       9.407  10.864  18.502  0.00  0.00    +0.000 A 
ATOM      9  C   UNL     1      10.523  11.334  17.795  0.00  0.00    +0.000 A 
ATOM     10  C   UNL     1      11.601  11.901  18.475  0.00  0.00    +0.000 A 
ATOM     11  C   UNL     1      11.577  11.998  19.865  0.00  0.00    +0.000 A 
ATOM     12  C   UNL     1      10.477  11.523  20.578  0.00  0.00    +0.000 A 
ATOM     13  C   UNL     1       9.398  10.955  19.900  0.00  0.00    +0.000 A 
ENDBRANCH   7   8
ENDBRANCH   6   7
ENDBRANCH   4   6
ENDBRANCH   1   2
BRANCH   1  14
ATOM     14  N   UNL     1       4.291   7.182  17.419  0.00  0.00    +0.000 N 
ATOM     15  H   UNL     1       3.952   7.195  16.460  0.00  0.00    +0.000 HD
BRANCH  14  22
ATOM     16  N   UNL     1       1.043   9.821  19.600  0.00  0.00    +0.000 N 
ATOM     17  C   UNL     1       1.678   8.611  19.393  0.00  0.00    +0.000 A 
ATOM     18  N   UNL     1       1.310   7.624  20.215  0.00  0.00    +0.000 NA
ATOM     19  C   UNL     1       1.961   6.453  20.094  0.00  0.00    +0.000 A 
ATOM     20  C   UNL     1       1.516   5.323  20.973  0.00  0.00    +0.000 C 
ATOM     21  C   UNL     1       2.998   6.280  19.201  0.00  0.00    +0.000 A 
ATOM     22  C   UNL     1       3.309   7.348  18.382  0.00  0.00    +0.000 A 
ATOM     23  N   UNL     1       2.624   8.495  18.453  0.00  0.00    +0.000 NA
ATOM     24  H   UNL     1       0.244   9.640  20.195  0.00  0.00    +0.000 HD
BRANCH  16  25
ATOM     25  C   UNL     1       0.818  10.683  18.447  0.00  0.00    +0.000 C 
ATOM     26  C   UNL     1       1.901  11.764  18.475  0.00  0.00    +0.000 C 
BRANCH  25  27
ATOM     27  C   UNL     1      -0.604  11.272  18.525  0.00  0.00    +0.000 C 
BRANCH  27  29
ATOM     28  C   UNL     1      -2.018   9.878  16.975  0.00  0.00    +0.000 C 
ATOM     29  C   UNL     1      -1.707  10.217  18.424  0.00  0.00    +0.000 C 
ENDBRANCH  27  29
ENDBRANCH  25  27
ENDBRANCH  16  25
ENDBRANCH  14  22
ENDBRANCH   1  14
BRANCH   1  30
ATOM     30  C   UNL     1       5.271   4.891  16.848  0.00  0.00    +0.000 C 
BRANCH  30  31
ATOM     31  C   UNL     1       4.433   3.822  17.511  0.00  0.00    +0.000 A 
ATOM     32  C   UNL     1       4.801   3.282  18.753  0.00  0.00    +0.000 A 
ATOM     33  C   UNL     1       4.008   2.312  19.368  0.00  0.00    +0.000 A 
ATOM     34  C   UNL     1       2.832   1.887  18.759  0.00  0.00    +0.000 A 
ATOM     35  C   UNL     1       2.455   2.421  17.528  0.00  0.00    +0.000 A 
ATOM     36  C   UNL     1       3.253   3.379  16.904  0.00  0.00    +0.000 A 
ENDBRANCH  30  31
ENDBRANCH   1  30
TORSDOF 11
ENDMDL
MODEL 6
REMARK VINA RESULT:      -7.9      1.579      3.514
REMARK  Name = 
REMARK  14 active torsions:
REMARK  status: ('A' for Active; 'I' for Inactive)
REMARK    1  A    between atoms: C_1  and  C_2
REMARK    2  A    between atoms: C_2  and  C_3
REMARK    3  A    between atoms: C_3  and  C_4
REMARK    4  A    between atoms: C_4  and  C_5
REMARK    5  A    between atoms: C_4  and  N_6
REMARK    6  A    between atoms: C_9  and  C_10
REMARK    7  A    between atoms: C_12  and  N_13
REMARK    8  A    between atoms: N_13  and  C_14
REMARK    9  A    between atoms: C_14  and  C_15
REMARK   10  A    between atoms: C_14  and  C_22
REMARK   11  A    between atoms: C_15  and  C_16
REMARK   12  A    between atoms: N_24  and  C_25
REMARK   13  A    between atoms: C_25  and  C_26
REMARK   14  A    between atoms: C_26  and  C_27
REMARK                            x       y       z     vdW  Elec       q    Type
REMARK                         _______ _______ _______ _____ _____    ______ ____
ROOT
ATOM      1  C   UNL     1       6.037   5.258  17.180  0.00  0.00    +0.000 C 
ENDROOT
BRANCH   1   2
ATOM      2  C   UNL     1       6.374   6.768  17.027  0.00  0.00    +0.000 C 
ATOM      3  O   UNL     1       5.823   7.485  16.191  0.00  0.00    +0.000 OA
ATOM      4  N   UNL     1       7.351   7.254  17.877  0.00  0.00    +0.000 N 
ATOM      5  H   UNL     1       7.823   6.626  18.514  0.00  0.00    +0.000 HD
BRANCH   4   6
ATOM      6  C   UNL     1       7.889   8.593  17.707  0.00  0.00    +0.000 C 
BRANCH   6   7
ATOM      7  C   UNL     1       8.874   8.976  18.812  0.00  0.00    +0.000 C 
BRANCH   7   8
ATOM      8  C   UNL     1       9.164  10.455  18.825  0.00  0.00    +0.000 A 
ATOM      9  C   UNL     1       9.908  11.022  19.869  0.00  0.00    +0.000 A 
ATOM     10  C   UNL     1      10.185  12.389  19.876  0.00  0.00    +0.000 A 
ATOM     11  C   UNL     1       9.717  13.202  18.846  0.00  0.00    +0.000 A 
ATOM     12  C   UNL     1       8.967  12.648  17.808  0.00  0.00    +0.000 A 
ATOM     13  C   UNL     1       8.689  11.282  17.800  0.00  0.00    +0.000 A 
ENDBRANCH   7   8
ENDBRANCH   6   7
ENDBRANCH   4   6
ENDBRANCH   1   2
BRANCH   1  14
ATOM     14  N   UNL     1       4.627   5.073  16.787  0.00  0.00    +0.000 N 
ATOM     15  H   UNL     1       4.539   4.544  15.923  0.00  0.00    +0.000 HD
BRANCH  14  22
ATOM     16  N   UNL     1       1.947   6.437  20.423  0.00  0.00    +0.000 N 
ATOM     17  C   UNL     1       2.278   5.522  19.442  0.00  0.00    +0.000 A 
ATOM     18  N   UNL     1       1.603   4.370  19.481  0.00  0.00    +0.000 NA
ATOM     19  C   UNL     1       1.953   3.426  18.589  0.00  0.00    +0.000 A 
ATOM     20  C   UNL     1       1.163   2.152  18.589  0.00  0.00    +0.000 C 
ATOM     21  C   UNL     1       2.992   3.606  17.701  0.00  0.00    +0.000 A 
ATOM     22  C   UNL     1       3.632   4.830  17.719  0.00  0.00    +0.000 A 
ATOM     23  N   UNL     1       3.249   5.797  18.561  0.00  0.00    +0.000 NA
ATOM     24  H   UNL     1       1.076   6.126  20.837  0.00  0.00    +0.000 HD
BRANCH  16  25
ATOM     25  C   UNL     1       2.049   7.855  20.103  0.00  0.00    +0.000 C 
ATOM     26  C   UNL     1       1.261   8.616  21.171  0.00  0.00    +0.000 C 
BRANCH  25  27
ATOM     27  C   UNL     1       1.500   8.095  18.683  0.00  0.00    +0.000 C 
BRANCH  27  29
ATOM     28  C   UNL     1       0.063  10.103  18.184  0.00  0.00    +0.000 C 
ATOM     29  C   UNL     1       1.484   9.570  18.277  0.00  0.00    +0.000 C 
ENDBRANCH  27  29
ENDBRANCH  25  27
ENDBRANCH  16  25
ENDBRANCH  14  22
ENDBRANCH   1  14
BRANCH   1  30
ATOM     30  C   UNL     1       7.066   4.410  16.400  0.00  0.00    +0.000 C 
BRANCH  30  31
ATOM     31  C   UNL     1       6.949   4.411  14.894  0.00  0.00    +0.000 A 
ATOM     32  C   UNL     1       7.798   5.201  14.103  0.00  0.00    +0.000 A 
ATOM     33  C   UNL     1       7.697   5.176  12.711  0.00  0.00    +0.000 A 
ATOM     34  C   UNL     1       6.764   4.350  12.096  0.00  0.00    +0.000 A 
ATOM     35  C   UNL     1       5.919   3.558  12.872  0.00  0.00    +0.000 A 
ATOM     36  C   UNL     1       6.007   3.591  14.263  0.00  0.00    +0.000 A 
ENDBRANCH  30  31
ENDBRANCH   1  30
TORSDOF 11
ENDMDL
MODEL 7
REMARK VINA RESULT:      -7.9      1.191      3.425
REMARK  Name = 
REMARK  14 active torsions:
REMARK  status: ('A' for Active; 'I' for Inactive)
REMARK    1  A    between atoms: C_1  and  C_2
REMARK    2  A    between atoms: C_2  and  C_3
REMARK    3  A    between atoms: C_3  and  C_4
REMARK    4  A    between atoms: C_4  and  C_5
REMARK    5  A    between atoms: C_4  and  N_6
REMARK    6  A    between atoms: C_9  and  C_10
REMARK    7  A    between atoms: C_12  and  N_13
REMARK    8  A    between atoms: N_13  and  C_14
REMARK    9  A    between atoms: C_14  and  C_15
REMARK   10  A    between atoms: C_14  and  C_22
REMARK   11  A    between atoms: C_15  and  C_16
REMARK   12  A    between atoms: N_24  and  C_25
REMARK   13  A    between atoms: C_25  and  C_26
REMARK   14  A    between atoms: C_26  and  C_27
REMARK                            x       y       z     vdW  Elec       q    Type
REMARK                         _______ _______ _______ _____ _____    ______ ____
ROOT
ATOM      1  C   UNL     1       6.511   4.479  17.238  0.00  0.00    +0.000 C 
ENDROOT
BRANCH   1   2
ATOM      2  C   UNL     1       7.214   5.456  18.221  0.00  0.00    +0.000 C 
ATOM      3  O   UNL     1       7.364   5.195  19.415  0.00  0.00    +0.000 OA
ATOM      4  N   UNL     1       7.644   6.652  17.674  0.00  0.00    +0.000 N 
ATOM      5  H   UNL     1       7.456   6.859  16.702  0.00  0.00    +0.000 HD
BRANCH   4   6
ATOM      6  C   UNL     1       8.143   7.723  18.520  0.00  0.00    +0.000 C 
BRANCH   6   7
ATOM      7  C   UNL     1       8.087   9.088  17.836  0.00  0.00    +0.000 C 
BRANCH   7   8
ATOM      8  C   UNL     1       9.020  10.083  18.478  0.00  0.00    +0.000 A 
ATOM      9  C   UNL     1       9.090  10.190  19.874  0.00  0.00    +0.000 A 
ATOM     10  C   UNL     1       9.961  11.104  20.468  0.00  0.00    +0.000 A 
ATOM     11  C   UNL     1      10.763  11.922  19.674  0.00  0.00    +0.000 A 
ATOM     12  C   UNL     1      10.691  11.830  18.285  0.00  0.00    +0.000 A 
ATOM     13  C   UNL     1       9.821  10.918  17.689  0.00  0.00    +0.000 A 
ENDBRANCH   7   8
ENDBRANCH   6   7
ENDBRANCH   4   6
ENDBRANCH   1   2
BRANCH   1  14
ATOM     14  N   UNL     1       5.589   3.639  18.026  0.00  0.00    +0.000 N 
ATOM     15  H   UNL     1       6.068   2.853  18.460  0.00  0.00    +0.000 HD
BRANCH  14  22
ATOM     16  N   UNL     1       2.680   7.198  19.090  0.00  0.00    +0.000 N 
ATOM     17  C   UNL     1       3.102   5.892  19.251  0.00  0.00    +0.000 A 
ATOM     18  N   UNL     1       2.485   5.206  20.217  0.00  0.00    +0.000 NA
ATOM     19  C   UNL     1       2.921   3.956  20.454  0.00  0.00    +0.000 A 
ATOM     20  C   UNL     1       2.197   3.159  21.496  0.00  0.00    +0.000 C 
ATOM     21  C   UNL     1       3.990   3.412  19.773  0.00  0.00    +0.000 A 
ATOM     22  C   UNL     1       4.567   4.185  18.783  0.00  0.00    +0.000 A 
ATOM     23  N   UNL     1       4.097   5.405  18.499  0.00  0.00    +0.000 NA
ATOM     24  H   UNL     1       1.808   7.294  19.596  0.00  0.00    +0.000 HD
BRANCH  16  25
ATOM     25  C   UNL     1       2.727   7.774  17.752  0.00  0.00    +0.000 C 
ATOM     26  C   UNL     1       4.183   7.712  17.285  0.00  0.00    +0.000 C 
BRANCH  25  27
ATOM     27  C   UNL     1       2.185   9.216  17.802  0.00  0.00    +0.000 C 
BRANCH  27  29
ATOM     28  C   UNL     1       0.313  10.030  19.278  0.00  0.00    +0.000 C 
ATOM     29  C   UNL     1       0.669   9.291  17.999  0.00  0.00    +0.000 C 
ENDBRANCH  27  29
ENDBRANCH  25  27
ENDBRANCH  16  25
ENDBRANCH  14  22
ENDBRANCH   1  14
BRANCH   1  30
ATOM     30  C   UNL     1       5.867   5.274  16.080  0.00  0.00    +0.000 C 
BRANCH  30  31
ATOM     31  C   UNL     1       6.258   4.874  14.677  0.00  0.00    +0.000 A 
ATOM     32  C   UNL     1       7.415   5.391  14.074  0.00  0.00    +0.000 A 
ATOM     33  C   UNL     1       7.780   4.996  12.786  0.00  0.00    +0.000 A 
ATOM     34  C   UNL     1       7.007   4.069  12.097  0.00  0.00    +0.000 A 
ATOM     35  C   UNL     1       5.858   3.546  12.689  0.00  0.00    +0.000 A 
ATOM     36  C   UNL     1       5.483   3.949  13.970  0.00  0.00    +0.000 A 
ENDBRANCH  30  31
ENDBRANCH   1  30
TORSDOF 11
ENDMDL
MODEL 8
REMARK VINA RESULT:      -7.9      2.658      8.114
REMARK  Name = 
REMARK  14 active torsions:
REMARK  status: ('A' for Active; 'I' for Inactive)
REMARK    1  A    between atoms: C_1  and  C_2
REMARK    2  A    between atoms: C_2  and  C_3
REMARK    3  A    between atoms: C_3  and  C_4
REMARK    4  A    between atoms: C_4  and  C_5
REMARK    5  A    between atoms: C_4  and  N_6
REMARK    6  A    between atoms: C_9  and  C_10
REMARK    7  A    between atoms: C_12  and  N_13
REMARK    8  A    between atoms: N_13  and  C_14
REMARK    9  A    between atoms: C_14  and  C_15
REMARK   10  A    between atoms: C_14  and  C_22
REMARK   11  A    between atoms: C_15  and  C_16
REMARK   12  A    between atoms: N_24  and  C_25
REMARK   13  A    between atoms: C_25  and  C_26
REMARK   14  A    between atoms: C_26  and  C_27
REMARK                            x       y       z     vdW  Elec       q    Type
REMARK                         _______ _______ _______ _____ _____    ______ ____
ROOT
ATOM      1  C   UNL     1       2.891   6.109  17.942  0.00  0.00    +0.000 C 
ENDROOT
BRANCH   1   2
ATOM      2  C   UNL     1       2.230   7.362  18.582  0.00  0.00    +0.000 C 
ATOM      3  O   UNL     1       1.782   8.288  17.904  0.00  0.00    +0.000 OA
ATOM      4  N   UNL     1       2.194   7.383  19.964  0.00  0.00    +0.000 N 
ATOM      5  H   UNL     1       2.621   6.632  20.491  0.00  0.00    +0.000 HD
BRANCH   4   6
ATOM      6  C   UNL     1       1.777   8.576  20.682  0.00  0.00    +0.000 C 
BRANCH   6   7
ATOM      7  C   UNL     1       0.486   8.365  21.474  0.00  0.00    +0.000 C 
BRANCH   7   8
ATOM      8  C   UNL     1      -0.254   9.657  21.705  0.00  0.00    +0.000 A 
ATOM      9  C   UNL     1      -0.752   9.970  22.978  0.00  0.00    +0.000 A 
ATOM     10  C   UNL     1      -1.428  11.171  23.194  0.00  0.00    +0.000 A 
ATOM     11  C   UNL     1      -1.618  12.065  22.142  0.00  0.00    +0.000 A 
ATOM     12  C   UNL     1      -1.137  11.756  20.870  0.00  0.00    +0.000 A 
ATOM     13  C   UNL     1      -0.460  10.557  20.652  0.00  0.00    +0.000 A 
ENDBRANCH   7   8
ENDBRANCH   6   7
ENDBRANCH   4   6
ENDBRANCH   1   2
BRANCH   1  14
ATOM     14  N   UNL     1       4.220   5.941  18.561  0.00  0.00    +0.000 N 
ATOM     15  H   UNL     1       4.245   5.148  19.198  0.00  0.00    +0.000 HD
BRANCH  14  22
ATOM     16  N   UNL     1       7.182   4.841  15.056  0.00  0.00    +0.000 N 
ATOM     17  C   UNL     1       6.795   5.660  16.099  0.00  0.00    +0.000 A 
ATOM     18  N   UNL     1       7.647   6.643  16.403  0.00  0.00    +0.000 NA
ATOM     19  C   UNL     1       7.341   7.413  17.462  0.00  0.00    +0.000 A 
ATOM     20  C   UNL     1       8.263   8.553  17.775  0.00  0.00    +0.000 C 
ATOM     21  C   UNL     1       6.225   7.180  18.239  0.00  0.00    +0.000 A 
ATOM     22  C   UNL     1       5.390   6.150  17.851  0.00  0.00    +0.000 A 
ATOM     23  N   UNL     1       5.656   5.420  16.762  0.00  0.00    +0.000 NA
ATOM     24  H   UNL     1       7.942   5.309  14.576  0.00  0.00    +0.000 HD
BRANCH  16  25
ATOM     25  C   UNL     1       6.142   4.257  14.220  0.00  0.00    +0.000 C 
ATOM     26  C   UNL     1       5.559   3.070  14.989  0.00  0.00    +0.000 C 
BRANCH  25  27
ATOM     27  C   UNL     1       6.754   3.839  12.868  0.00  0.00    +0.000 C 
BRANCH  27  29
ATOM     28  C   UNL     1       5.982   1.865  11.506  0.00  0.00    +0.000 C 
ATOM     29  C   UNL     1       5.720   3.318  11.867  0.00  0.00    +0.000 C 
ENDBRANCH  27  29
ENDBRANCH  25  27
ENDBRANCH  16  25
ENDBRANCH  14  22
ENDBRANCH   1  14
BRANCH   1  30
ATOM     30  C   UNL     1       1.940   4.897  18.059  0.00  0.00    +0.000 C 
BRANCH  30  31
ATOM     31  C   UNL     1       2.106   4.014  19.274  0.00  0.00    +0.000 A 
ATOM     32  C   UNL     1       3.261   3.234  19.448  0.00  0.00    +0.000 A 
ATOM     33  C   UNL     1       3.415   2.440  20.585  0.00  0.00    +0.000 A 
ATOM     34  C   UNL     1       2.431   2.432  21.566  0.00  0.00    +0.000 A 
ATOM     35  C   UNL     1       1.283   3.206  21.406  0.00  0.00    +0.000 A 
ATOM     36  C   UNL     1       1.119   3.989  20.264  0.00  0.00    +0.000 A 
ENDBRANCH  30  31
ENDBRANCH   1  30
TORSDOF 11
ENDMDL
MODEL 9
REMARK VINA RESULT:      -7.9      4.039      7.851
REMARK  Name = 
REMARK  14 active torsions:
REMARK  status: ('A' for Active; 'I' for Inactive)
REMARK    1  A    between atoms: C_1  and  C_2
REMARK    2  A    between atoms: C_2  and  C_3
REMARK    3  A    between atoms: C_3  and  C_4
REMARK    4  A    between atoms: C_4  and  C_5
REMARK    5  A    between atoms: C_4  and  N_6
REMARK    6  A    between atoms: C_9  and  C_10
REMARK    7  A    between atoms: C_12  and  N_13
REMARK    8  A    between atoms: N_13  and  C_14
REMARK    9  A    between atoms: C_14  and  C_15
REMARK   10  A    between atoms: C_14  and  C_22
REMARK   11  A    between atoms: C_15  and  C_16
REMARK   12  A    between atoms: N_24  and  C_25
REMARK   13  A    between atoms: C_25  and  C_26
REMARK   14  A    between atoms: C_26  and  C_27
REMARK                            x       y       z     vdW  Elec       q    Type
REMARK                         _______ _______ _______ _____ _____    ______ ____
ROOT
ATOM      1  C   UNL     1       2.902   7.107  18.278  0.00  0.00    +0.000 C 
ENDROOT
BRANCH   1   2
ATOM      2  C   UNL     1       4.075   6.906  17.278  0.00  0.00    +0.000 C 
ATOM      3  O   UNL     1       4.173   7.559  16.237  0.00  0.00    +0.000 OA
ATOM      4  N   UNL     1       4.994   5.931  17.618  0.00  0.00    +0.000 N 
ATOM      5  H   UNL     1       4.854   5.375  18.452  0.00  0.00    +0.000 HD
BRANCH   4   6
ATOM      6  C   UNL     1       6.025   5.517  16.681  0.00  0.00    +0.000 C 
BRANCH   6   7
ATOM      7  C   UNL     1       5.615   4.298  15.855  0.00  0.00    +0.000 C 
BRANCH   7   8
ATOM      8  C   UNL     1       6.220   4.319  14.475  0.00  0.00    +0.000 A 
ATOM      9  C   UNL     1       5.722   3.479  13.470  0.00  0.00    +0.000 A 
ATOM     10  C   UNL     1       6.276   3.506  12.189  0.00  0.00    +0.000 A 
ATOM     11  C   UNL     1       7.335   4.366  11.905  0.00  0.00    +0.000 A 
ATOM     12  C   UNL     1       7.844   5.197  12.902  0.00  0.00    +0.000 A 
ATOM     13  C   UNL     1       7.292   5.172  14.182  0.00  0.00    +0.000 A 
ENDBRANCH   7   8
ENDBRANCH   6   7
ENDBRANCH   4   6
ENDBRANCH   1   2
BRANCH   1  14
ATOM     14  N   UNL     1       2.384   8.476  18.091  0.00  0.00    +0.000 N 
ATOM     15  H   UNL     1       2.280   8.712  17.106  0.00  0.00    +0.000 HD
BRANCH  14  22
ATOM     16  N   UNL     1      -1.710  10.727  18.750  0.00  0.00    +0.000 N 
ATOM     17  C   UNL     1      -0.614  10.043  19.240  0.00  0.00    +0.000 A 
ATOM     18  N   UNL     1      -0.531   9.973  20.571  0.00  0.00    +0.000 NA
ATOM     19  C   UNL     1       0.562   9.382  21.086  0.00  0.00    +0.000 A 
ATOM     20  C   UNL     1       0.635   9.248  22.577  0.00  0.00    +0.000 C 
ATOM     21  C   UNL     1       1.583   8.910  20.288  0.00  0.00    +0.000 A 
ATOM     22  C   UNL     1       1.415   9.012  18.921  0.00  0.00    +0.000 A 
ATOM     23  N   UNL     1       0.302   9.543  18.401  0.00  0.00    +0.000 NA
ATOM     24  H   UNL     1      -2.361  10.835  19.518  0.00  0.00    +0.000 HD
BRANCH  16  25
ATOM     25  C   UNL     1      -2.270  10.301  17.474  0.00  0.00    +0.000 C 
ATOM     26  C   UNL     1      -2.166  11.491  16.516  0.00  0.00    +0.000 C 
BRANCH  25  27
ATOM     27  C   UNL     1      -3.726   9.842  17.687  0.00  0.00    +0.000 C 
BRANCH  27  29
ATOM     28  C   UNL     1      -5.907  10.579  18.710  0.00  0.00    +0.000 C 
ATOM     29  C   UNL     1      -4.708  11.001  17.876  0.00  0.00    +0.000 C 
ENDBRANCH  27  29
ENDBRANCH  25  27
ENDBRANCH  16  25
ENDBRANCH  14  22
ENDBRANCH   1  14
BRANCH   1  30
ATOM     30  C   UNL     1       1.868   5.972  18.107  0.00  0.00    +0.000 C 
BRANCH  30  31
ATOM     31  C   UNL     1       1.965   4.811  19.069  0.00  0.00    +0.000 A 
ATOM     32  C   UNL     1       2.159   3.501  18.604  0.00  0.00    +0.000 A 
ATOM     33  C   UNL     1       2.270   2.439  19.502  0.00  0.00    +0.000 A 
ATOM     34  C   UNL     1       2.209   2.676  20.870  0.00  0.00    +0.000 A 
ATOM     35  C   UNL     1       2.021   3.973  21.343  0.00  0.00    +0.000 A 
ATOM     36  C   UNL     1       1.895   5.035  20.448  0.00  0.00    +0.000 A 
ENDBRANCH  30  31
ENDBRANCH   1  30
TORSDOF 11
ENDMDL
