MODEL 1
REMARK VINA RESULT:      -8.9      0.000      0.000
REMARK  Name = 
REMARK  3 active torsions:
REMARK  status: ('A' for Active; 'I' for Inactive)
REMARK    1  A    between atoms: N_1  and  C_2
REMARK    2  A    between atoms: C_7  and  C_8
REMARK    3  A    between atoms: C_15  and  O_16
REMARK                            x       y       z     vdW  Elec       q    Type
REMARK                         _______ _______ _______ _____ _____    ______ ____
ROOT
ATOM      1  C   UNL     1       4.301   6.158  17.308  0.00  0.00    +0.000 A 
ATOM      2  C   UNL     1       3.827   7.485  17.200  0.00  0.00    +0.000 A 
ATOM      3  C   UNL     1       2.881   7.955  18.108  0.00  0.00    +0.000 A 
ATOM      4  N   UNL     1       2.206   9.152  18.188  0.00  0.00    +0.000 N 
ATOM      5  C   UNL     1       1.370   9.175  19.291  0.00  0.00    +0.000 A 
ATOM      6  C   UNL     1       0.524  10.204  19.729  0.00  0.00    +0.000 A 
ATOM      7  C   UNL     1      -0.218   9.993  20.892  0.00  0.00    +0.000 A 
ATOM      8  C   UNL     1      -0.113   8.787  21.575  0.00  0.00    +0.000 A 
ATOM      9  C   UNL     1       0.725   7.758  21.129  0.00  0.00    +0.000 A 
ATOM     10  C   UNL     1       1.491   7.944  19.962  0.00  0.00    +0.000 A 
ATOM     11  C   UNL     1       2.413   7.247  19.176  0.00  0.00    +0.000 A 
ATOM     12  C   UNL     1       2.890   5.931  19.392  0.00  0.00    +0.000 A 
ATOM     13  C   UNL     1       3.811   5.424  18.420  0.00  0.00    +0.000 A 
ATOM     14  C   UNL     1       4.111   4.066  18.822  0.00  0.00    +0.000 C 
ATOM     15  O   UNL     1       4.799   3.167  18.357  0.00  0.00    +0.000 OA
ATOM     16  N   UNL     1       3.418   3.900  19.988  0.00  0.00    +0.000 N 
ATOM     17  C   UNL     1       2.650   4.955  20.403  0.00  0.00    +0.000 C 
ATOM     18  O   UNL     1       1.986   4.910  21.424  0.00  0.00    +0.000 OA
ATOM     19  H   UNL     1       2.300   9.909  17.527  0.00  0.00    +0.000 HD
ATOM     20  H   UNL     1       3.459   3.046  20.516  0.00  0.00    +0.000 HD
ENDROOT
BRANCH   1  26
ATOM     21  C   UNL     1       5.697   4.396  14.220  0.00  0.00    +0.000 A 
ATOM     22  C   UNL     1       7.066   4.434  14.452  0.00  0.00    +0.000 A 
ATOM     23  C   UNL     1       7.560   5.082  15.580  0.00  0.00    +0.000 A 
ATOM     24  C   UNL     1       6.685   5.690  16.493  0.00  0.00    +0.000 A 
ATOM     25 CL   UNL     1       7.457   6.541  17.795  0.00  0.00    +0.000 Cl
ATOM     26  C   UNL     1       5.279   5.608  16.335  0.00  0.00    +0.000 A 
ATOM     27  C   UNL     1       4.831   4.889  15.206  0.00  0.00    +0.000 A 
BRANCH  21  28
ATOM     28  N   UNL     1       5.182   3.677  13.132  0.00  0.00    +0.000 N 
ATOM     29  H   UNL     1       5.697   3.833  12.270  0.00  0.00    +0.000 HD
ATOM     30  H   UNL     1       4.187   3.843  12.998  0.00  0.00    +0.000 HD
ENDBRANCH  21  28
ENDBRANCH   1  26
BRANCH   8  31
ATOM     31  O   UNL     1      -0.827   8.565  22.717  0.00  0.00    +0.000 OA
ATOM     32  H   UNL     1      -0.575   7.702  23.081  0.00  0.00    +0.000 HD
ENDBRANCH   8  31
TORSDOF 3
ENDMDL
MODEL 2
REMARK VINA RESULT:      -7.7      2.769      7.324
REMARK  Name = 
REMARK  3 active torsions:
REMARK  status: ('A' for Active; 'I' for Inactive)
REMARK    1  A    between atoms: N_1  and  C_2
REMARK    2  A    between atoms: C_7  and  C_8
REMARK    3  A    between atoms: C_15  and  O_16
REMARK                            x       y       z     vdW  Elec       q    Type
REMARK                         _______ _______ _______ _____ _____    ______ ____
ROOT
ATOM      1  C   UNL     1       1.479   9.688  18.721  0.00  0.00    +0.000 A 
ATOM      2  C   UNL     1       2.311   9.335  17.635  0.00  0.00    +0.000 A 
ATOM      3  C   UNL     1       2.999   8.125  17.659  0.00  0.00    +0.000 A 
ATOM      4  N   UNL     1       3.916   7.577  16.789  0.00  0.00    +0.000 N 
ATOM      5  C   UNL     1       4.316   6.324  17.220  0.00  0.00    +0.000 A 
ATOM      6  C   UNL     1       5.223   5.438  16.620  0.00  0.00    +0.000 A 
ATOM      7  C   UNL     1       5.454   4.212  17.244  0.00  0.00    +0.000 A 
ATOM      8  C   UNL     1       4.799   3.901  18.431  0.00  0.00    +0.000 A 
ATOM      9  C   UNL     1       3.903   4.791  19.032  0.00  0.00    +0.000 A 
ATOM     10  C   UNL     1       3.645   6.035  18.422  0.00  0.00    +0.000 A 
ATOM     11  C   UNL     1       2.876   7.182  18.636  0.00  0.00    +0.000 A 
ATOM     12  C   UNL     1       2.008   7.431  19.728  0.00  0.00    +0.000 A 
ATOM     13  C   UNL     1       1.353   8.705  19.737  0.00  0.00    +0.000 A 
ATOM     14  C   UNL     1       0.572   8.745  20.956  0.00  0.00    +0.000 C 
ATOM     15  O   UNL     1      -0.146   9.581  21.486  0.00  0.00    +0.000 OA
ATOM     16  N   UNL     1       0.771   7.516  21.522  0.00  0.00    +0.000 N 
ATOM     17  C   UNL     1       1.622   6.668  20.868  0.00  0.00    +0.000 C 
ATOM     18  O   UNL     1       1.875   5.552  21.290  0.00  0.00    +0.000 OA
ATOM     19  H   UNL     1       4.257   8.030  15.956  0.00  0.00    +0.000 HD
ATOM     20  H   UNL     1       0.323   7.248  22.381  0.00  0.00    +0.000 HD
ENDROOT
BRANCH   1  26
ATOM     21  C   UNL     1       0.798  13.408  19.263  0.00  0.00    +0.000 A 
ATOM     22  C   UNL     1      -0.549  13.511  18.939  0.00  0.00    +0.000 A 
ATOM     23  C   UNL     1      -1.240  12.393  18.483  0.00  0.00    +0.000 A 
ATOM     24  C   UNL     1      -0.590  11.155  18.358  0.00  0.00    +0.000 A 
ATOM     25 CL   UNL     1      -1.559   9.882  17.685  0.00  0.00    +0.000 Cl
ATOM     26  C   UNL     1       0.761  10.988  18.752  0.00  0.00    +0.000 A 
ATOM     27  C   UNL     1       1.397  12.139  19.262  0.00  0.00    +0.000 A 
BRANCH  21  28
ATOM     28  N   UNL     1       1.484  14.505  19.801  0.00  0.00    +0.000 N 
ATOM     29  H   UNL     1       0.974  14.970  20.546  0.00  0.00    +0.000 HD
ATOM     30  H   UNL     1       1.770  15.169  19.084  0.00  0.00    +0.000 HD
ENDBRANCH  21  28
ENDBRANCH   1  26
BRANCH   8  31
ATOM     31  O   UNL     1       5.010   2.704  19.052  0.00  0.00    +0.000 OA
ATOM     32  H   UNL     1       4.416   2.641  19.816  0.00  0.00    +0.000 HD
ENDBRANCH   8  31
TORSDOF 3
ENDMDL
MODEL 3
REMARK VINA RESULT:      -7.6      2.305      3.313
REMARK  Name = 
REMARK  3 active torsions:
REMARK  status: ('A' for Active; 'I' for Inactive)
REMARK    1  A    between atoms: N_1  and  C_2
REMARK    2  A    between atoms: C_7  and  C_8
REMARK    3  A    between atoms: C_15  and  O_16
REMARK                            x       y       z     vdW  Elec       q    Type
REMARK                         _______ _______ _______ _____ _____    ______ ____
ROOT
ATOM      1  C   UNL     1       2.922   7.269  18.310  0.00  0.00    +0.000 A 
ATOM      2  C   UNL     1       2.776   8.490  17.614  0.00  0.00    +0.000 A 
ATOM      3  C   UNL     1       1.957   9.487  18.135  0.00  0.00    +0.000 A 
ATOM      4  N   UNL     1       1.583  10.717  17.639  0.00  0.00    +0.000 N 
ATOM      5  C   UNL     1       0.763  11.381  18.534  0.00  0.00    +0.000 A 
ATOM      6  C   UNL     1       0.179  12.650  18.413  0.00  0.00    +0.000 A 
ATOM      7  C   UNL     1      -0.607  13.116  19.468  0.00  0.00    +0.000 A 
ATOM      8  C   UNL     1      -0.797  12.324  20.595  0.00  0.00    +0.000 A 
ATOM      9  C   UNL     1      -0.221  11.053  20.709  0.00  0.00    +0.000 A 
ATOM     10  C   UNL     1       0.581  10.559  19.661  0.00  0.00    +0.000 A 
ATOM     11  C   UNL     1       1.322   9.418  19.341  0.00  0.00    +0.000 A 
ATOM     12  C   UNL     1       1.472   8.253  20.132  0.00  0.00    +0.000 A 
ATOM     13  C   UNL     1       2.259   7.200  19.564  0.00  0.00    +0.000 A 
ATOM     14  C   UNL     1       2.225   6.114  20.520  0.00  0.00    +0.000 C 
ATOM     15  O   UNL     1       2.686   4.980  20.547  0.00  0.00    +0.000 OA
ATOM     16  N   UNL     1       1.498   6.610  21.566  0.00  0.00    +0.000 N 
ATOM     17  C   UNL     1       0.996   7.875  21.421  0.00  0.00    +0.000 C 
ATOM     18  O   UNL     1       0.327   8.410  22.289  0.00  0.00    +0.000 OA
ATOM     19  H   UNL     1       1.861  11.080  16.740  0.00  0.00    +0.000 HD
ATOM     20  H   UNL     1       1.329   6.074  22.400  0.00  0.00    +0.000 HD
ENDROOT
BRANCH   1  26
ATOM     21  C   UNL     1       5.990   5.331  17.116  0.00  0.00    +0.000 A 
ATOM     22  C   UNL     1       5.428   4.149  16.651  0.00  0.00    +0.000 A 
ATOM     23  C   UNL     1       4.059   3.937  16.772  0.00  0.00    +0.000 A 
ATOM     24  C   UNL     1       3.235   4.914  17.351  0.00  0.00    +0.000 A 
ATOM     25 CL   UNL     1       1.567   4.462  17.519  0.00  0.00    +0.000 Cl
ATOM     26  C   UNL     1       3.753   6.165  17.767  0.00  0.00    +0.000 A 
ATOM     27  C   UNL     1       5.139   6.351  17.568  0.00  0.00    +0.000 A 
BRANCH  21  28
ATOM     28  N   UNL     1       7.354   5.592  16.927  0.00  0.00    +0.000 N 
ATOM     29  H   UNL     1       7.871   4.787  16.585  0.00  0.00    +0.000 HD
ATOM     30  H   UNL     1       7.791   5.980  17.760  0.00  0.00    +0.000 HD
ENDBRANCH  21  28
ENDBRANCH   1  26
BRANCH   8  31
ATOM     31  O   UNL     1      -1.558  12.765  21.639  0.00  0.00    +0.000 OA
ATOM     32  H   UNL     1      -1.021  13.359  22.186  0.00  0.00    +0.000 HD
ENDBRANCH   8  31
TORSDOF 3
ENDMDL
MODEL 4
REMARK VINA RESULT:      -7.5      3.249      4.505
REMARK  Name = 
REMARK  3 active torsions:
REMARK  status: ('A' for Active; 'I' for Inactive)
REMARK    1  A    between atoms: N_1  and  C_2
REMARK    2  A    between atoms: C_7  and  C_8
REMARK    3  A    between atoms: C_15  and  O_16
REMARK                            x       y       z     vdW  Elec       q    Type
REMARK                         _______ _______ _______ _____ _____    ______ ____
ROOT
ATOM      1  C   UNL     1       2.244   5.652  19.587  0.00  0.00    +0.000 A 
ATOM      2  C   UNL     1       1.416   5.927  20.698  0.00  0.00    +0.000 A 
ATOM      3  C   UNL     1       1.050   7.241  20.977  0.00  0.00    +0.000 A 
ATOM      4  N   UNL     1       0.332   7.790  22.016  0.00  0.00    +0.000 N 
ATOM      5  C   UNL     1       0.199   9.158  21.856  0.00  0.00    +0.000 A 
ATOM      6  C   UNL     1      -0.463  10.078  22.683  0.00  0.00    +0.000 A 
ATOM      7  C   UNL     1      -0.472  11.419  22.298  0.00  0.00    +0.000 A 
ATOM      8  C   UNL     1       0.171  11.811  21.128  0.00  0.00    +0.000 A 
ATOM      9  C   UNL     1       0.839  10.892  20.311  0.00  0.00    +0.000 A 
ATOM     10  C   UNL     1       0.860   9.531  20.672  0.00  0.00    +0.000 A 
ATOM     11  C   UNL     1       1.368   8.317  20.201  0.00  0.00    +0.000 A 
ATOM     12  C   UNL     1       2.140   8.116  19.030  0.00  0.00    +0.000 A 
ATOM     13  C   UNL     1       2.573   6.773  18.781  0.00  0.00    +0.000 A 
ATOM     14  C   UNL     1       3.375   6.829  17.576  0.00  0.00    +0.000 C 
ATOM     15  O   UNL     1       4.010   6.006  16.930  0.00  0.00    +0.000 OA
ATOM     16  N   UNL     1       3.308   8.138  17.188  0.00  0.00    +0.000 N 
ATOM     17  C   UNL     1       2.604   8.985  18.000  0.00  0.00    +0.000 C 
ATOM     18  O   UNL     1       2.488  10.173  17.752  0.00  0.00    +0.000 OA
ATOM     19  H   UNL     1      -0.041   7.267  22.795  0.00  0.00    +0.000 HD
ATOM     20  H   UNL     1       3.760   8.470  16.354  0.00  0.00    +0.000 HD
ENDROOT
BRANCH   1  26
ATOM     21  C   UNL     1       4.134   2.343  19.845  0.00  0.00    +0.000 A 
ATOM     22  C   UNL     1       3.681   1.657  18.725  0.00  0.00    +0.000 A 
ATOM     23  C   UNL     1       2.714   2.229  17.906  0.00  0.00    +0.000 A 
ATOM     24  C   UNL     1       2.198   3.503  18.193  0.00  0.00    +0.000 A 
ATOM     25 CL   UNL     1       0.931   4.039  17.135  0.00  0.00    +0.000 Cl
ATOM     26  C   UNL     1       2.689   4.269  19.279  0.00  0.00    +0.000 A 
ATOM     27  C   UNL     1       3.711   3.665  20.043  0.00  0.00    +0.000 A 
BRANCH  21  28
ATOM     28  N   UNL     1       5.166   1.813  20.632  0.00  0.00    +0.000 N 
ATOM     29  H   UNL     1       6.088   1.956  20.232  0.00  0.00    +0.000 HD
ATOM     30  H   UNL     1       5.013   0.832  20.858  0.00  0.00    +0.000 HD
ENDBRANCH  21  28
ENDBRANCH   1  26
BRANCH   8  31
ATOM     31  O   UNL     1       0.168  13.118  20.734  0.00  0.00    +0.000 OA
ATOM     32  H   UNL     1       0.763  13.619  21.312  0.00  0.00    +0.000 HD
ENDBRANCH   8  31
TORSDOF 3
ENDMDL
MODEL 5
REMARK VINA RESULT:      -7.5      3.366      4.760
REMARK  Name = 
REMARK  3 active torsions:
REMARK  status: ('A' for Active; 'I' for Inactive)
REMARK    1  A    between atoms: N_1  and  C_2
REMARK    2  A    between atoms: C_7  and  C_8
REMARK    3  A    between atoms: C_15  and  O_16
REMARK                            x       y       z     vdW  Elec       q    Type
REMARK                         _______ _______ _______ _____ _____    ______ ____
ROOT
ATOM      1  C   UNL     1       2.211   6.676  20.025  0.00  0.00    +0.000 A 
ATOM      2  C   UNL     1       1.456   6.857  21.206  0.00  0.00    +0.000 A 
ATOM      3  C   UNL     1       0.841   8.082  21.449  0.00  0.00    +0.000 A 
ATOM      4  N   UNL     1       0.124   8.547  22.530  0.00  0.00    +0.000 N 
ATOM      5  C   UNL     1      -0.320   9.839  22.309  0.00  0.00    +0.000 A 
ATOM      6  C   UNL     1      -1.083  10.661  23.150  0.00  0.00    +0.000 A 
ATOM      7  C   UNL     1      -1.423  11.934  22.693  0.00  0.00    +0.000 A 
ATOM      8  C   UNL     1      -0.999  12.359  21.439  0.00  0.00    +0.000 A 
ATOM      9  C   UNL     1      -0.229  11.540  20.605  0.00  0.00    +0.000 A 
ATOM     10  C   UNL     1       0.124  10.247  21.037  0.00  0.00    +0.000 A 
ATOM     11  C   UNL     1       0.838   9.135  20.582  0.00  0.00    +0.000 A 
ATOM     12  C   UNL     1       1.516   9.009  19.345  0.00  0.00    +0.000 A 
ATOM     13  C   UNL     1       2.207   7.773  19.125  0.00  0.00    +0.000 A 
ATOM     14  C   UNL     1       2.855   7.901  17.837  0.00  0.00    +0.000 C 
ATOM     15  O   UNL     1       3.588   7.182  17.171  0.00  0.00    +0.000 OA
ATOM     16  N   UNL     1       2.466   9.131  17.385  0.00  0.00    +0.000 N 
ATOM     17  C   UNL     1       1.675   9.871  18.221  0.00  0.00    +0.000 C 
ATOM     18  O   UNL     1       1.278  10.984  17.920  0.00  0.00    +0.000 OA
ATOM     19  H   UNL     1      -0.046   8.021  23.374  0.00  0.00    +0.000 HD
ATOM     20  H   UNL     1       2.749   9.483  16.487  0.00  0.00    +0.000 HD
ENDROOT
BRANCH   1  26
ATOM     21  C   UNL     1       5.029   4.226  19.217  0.00  0.00    +0.000 A 
ATOM     22  C   UNL     1       4.350   3.019  19.117  0.00  0.00    +0.000 A 
ATOM     23  C   UNL     1       2.983   2.970  19.368  0.00  0.00    +0.000 A 
ATOM     24  C   UNL     1       2.278   4.134  19.712  0.00  0.00    +0.000 A 
ATOM     25 CL   UNL     1       0.601   3.893  20.090  0.00  0.00    +0.000 Cl
ATOM     26  C   UNL     1       2.916   5.399  19.749  0.00  0.00    +0.000 A 
ATOM     27  C   UNL     1       4.291   5.400  19.429  0.00  0.00    +0.000 A 
BRANCH  21  28
ATOM     28  N   UNL     1       6.389   4.305  18.888  0.00  0.00    +0.000 N 
ATOM     29  H   UNL     1       6.994   3.872  19.580  0.00  0.00    +0.000 HD
ATOM     30  H   UNL     1       6.683   5.259  18.692  0.00  0.00    +0.000 HD
ENDBRANCH  21  28
ENDBRANCH   1  26
BRANCH   8  31
ATOM     31  O   UNL     1      -1.327  13.600  20.973  0.00  0.00    +0.000 OA
ATOM     32  H   UNL     1      -1.141  13.635  20.022  0.00  0.00    +0.000 HD
ENDBRANCH   8  31
TORSDOF 3
ENDMDL
MODEL 6
REMARK VINA RESULT:      -7.3      9.107     11.551
REMARK  Name = 
REMARK  3 active torsions:
REMARK  status: ('A' for Active; 'I' for Inactive)
REMARK    1  A    between atoms: N_1  and  C_2
REMARK    2  A    between atoms: C_7  and  C_8
REMARK    3  A    between atoms: C_15  and  O_16
REMARK                            x       y       z     vdW  Elec       q    Type
REMARK                         _______ _______ _______ _____ _____    ______ ____
ROOT
ATOM      1  C   UNL     1       7.775  12.829  22.973  0.00  0.00    +0.000 A 
ATOM      2  C   UNL     1       8.955  12.120  22.653  0.00  0.00    +0.000 A 
ATOM      3  C   UNL     1       9.550  12.300  21.407  0.00  0.00    +0.000 A 
ATOM      4  N   UNL     1      10.637  11.694  20.816  0.00  0.00    +0.000 N 
ATOM      5  C   UNL     1      10.875  12.222  19.560  0.00  0.00    +0.000 A 
ATOM      6  C   UNL     1      11.882  11.888  18.643  0.00  0.00    +0.000 A 
ATOM      7  C   UNL     1      11.924  12.580  17.432  0.00  0.00    +0.000 A 
ATOM      8  C   UNL     1      10.979  13.563  17.159  0.00  0.00    +0.000 A 
ATOM      9  C   UNL     1       9.969  13.887  18.072  0.00  0.00    +0.000 A 
ATOM     10  C   UNL     1       9.905  13.209  19.305  0.00  0.00    +0.000 A 
ATOM     11  C   UNL     1       9.124  13.189  20.464  0.00  0.00    +0.000 A 
ATOM     12  C   UNL     1       7.986  13.987  20.736  0.00  0.00    +0.000 A 
ATOM     13  C   UNL     1       7.334  13.753  21.990  0.00  0.00    +0.000 A 
ATOM     14  C   UNL     1       6.187  14.637  22.016  0.00  0.00    +0.000 C 
ATOM     15  O   UNL     1       5.277  14.837  22.809  0.00  0.00    +0.000 OA
ATOM     16  N   UNL     1       6.279  15.340  20.847  0.00  0.00    +0.000 N 
ATOM     17  C   UNL     1       7.313  15.014  20.013  0.00  0.00    +0.000 C 
ATOM     18  O   UNL     1       7.482  15.574  18.942  0.00  0.00    +0.000 OA
ATOM     19  H   UNL     1      11.182  10.958  21.239  0.00  0.00    +0.000 HD
ATOM     20  H   UNL     1       5.618  16.057  20.604  0.00  0.00    +0.000 HD
ENDROOT
BRANCH   1  26
ATOM     21  C   UNL     1       5.605  11.252  25.692  0.00  0.00    +0.000 A 
ATOM     22  C   UNL     1       5.653  12.208  26.698  0.00  0.00    +0.000 A 
ATOM     23  C   UNL     1       6.434  13.347  26.536  0.00  0.00    +0.000 A 
ATOM     24  C   UNL     1       7.169  13.545  25.357  0.00  0.00    +0.000 A 
ATOM     25 CL   UNL     1       8.170  14.964  25.345  0.00  0.00    +0.000 Cl
ATOM     26  C   UNL     1       7.088  12.634  24.275  0.00  0.00    +0.000 A 
ATOM     27  C   UNL     1       6.235  11.526  24.469  0.00  0.00    +0.000 A 
BRANCH  21  28
ATOM     28  N   UNL     1       4.759  10.141  25.809  0.00  0.00    +0.000 N 
ATOM     29  H   UNL     1       3.775  10.376  25.717  0.00  0.00    +0.000 HD
ATOM     30  H   UNL     1       4.930   9.613  26.662  0.00  0.00    +0.000 HD
ENDBRANCH  21  28
ENDBRANCH   1  26
BRANCH   8  31
ATOM     31  O   UNL     1      11.009  14.253  15.982  0.00  0.00    +0.000 OA
ATOM     32  H   UNL     1      10.227  14.014  15.460  0.00  0.00    +0.000 HD
ENDBRANCH   8  31
TORSDOF 3
ENDMDL
MODEL 7
REMARK VINA RESULT:      -7.3      2.605      7.191
REMARK  Name = 
REMARK  3 active torsions:
REMARK  status: ('A' for Active; 'I' for Inactive)
REMARK    1  A    between atoms: N_1  and  C_2
REMARK    2  A    between atoms: C_7  and  C_8
REMARK    3  A    between atoms: C_15  and  O_16
REMARK                            x       y       z     vdW  Elec       q    Type
REMARK                         _______ _______ _______ _____ _____    ______ ____
ROOT
ATOM      1  C   UNL     1       1.171   9.579  18.814  0.00  0.00    +0.000 A 
ATOM      2  C   UNL     1       2.025   9.322  17.718  0.00  0.00    +0.000 A 
ATOM      3  C   UNL     1       2.839   8.193  17.729  0.00  0.00    +0.000 A 
ATOM      4  N   UNL     1       3.801   7.749  16.848  0.00  0.00    +0.000 N 
ATOM      5  C   UNL     1       4.339   6.546  17.268  0.00  0.00    +0.000 A 
ATOM      6  C   UNL     1       5.330   5.766  16.655  0.00  0.00    +0.000 A 
ATOM      7  C   UNL     1       5.699   4.570  17.272  0.00  0.00    +0.000 A 
ATOM      8  C   UNL     1       5.096   4.186  18.464  0.00  0.00    +0.000 A 
ATOM      9  C   UNL     1       4.115   4.973  19.079  0.00  0.00    +0.000 A 
ATOM     10  C   UNL     1       3.717   6.182  18.477  0.00  0.00    +0.000 A 
ATOM     11  C   UNL     1       2.830   7.239  18.704  0.00  0.00    +0.000 A 
ATOM     12  C   UNL     1       1.953   7.389  19.806  0.00  0.00    +0.000 A 
ATOM     13  C   UNL     1       1.164   8.585  19.827  0.00  0.00    +0.000 A 
ATOM     14  C   UNL     1       0.397   8.536  21.055  0.00  0.00    +0.000 C 
ATOM     15  O   UNL     1      -0.402   9.288  21.596  0.00  0.00    +0.000 OA
ATOM     16  N   UNL     1       0.734   7.335  21.614  0.00  0.00    +0.000 N 
ATOM     17  C   UNL     1       1.664   6.585  20.947  0.00  0.00    +0.000 C 
ATOM     18  O   UNL     1       2.042   5.503  21.362  0.00  0.00    +0.000 OA
ATOM     19  H   UNL     1       4.082   8.240  16.012  0.00  0.00    +0.000 HD
ATOM     20  H   UNL     1       0.328   7.017  22.476  0.00  0.00    +0.000 HD
ENDROOT
BRANCH   1  26
ATOM     21  C   UNL     1      -1.786  11.918  18.203  0.00  0.00    +0.000 A 
ATOM     22  C   UNL     1      -1.359  13.096  18.803  0.00  0.00    +0.000 A 
ATOM     23  C   UNL     1      -0.136  13.133  19.464  0.00  0.00    +0.000 A 
ATOM     24  C   UNL     1       0.678  11.991  19.523  0.00  0.00    +0.000 A 
ATOM     25 CL   UNL     1       2.125  12.168  20.465  0.00  0.00    +0.000 Cl
ATOM     26  C   UNL     1       0.317  10.793  18.858  0.00  0.00    +0.000 A 
ATOM     27  C   UNL     1      -0.906  10.828  18.153  0.00  0.00    +0.000 A 
BRANCH  21  28
ATOM     28  N   UNL     1      -2.977  11.890  17.464  0.00  0.00    +0.000 N 
ATOM     29  H   UNL     1      -3.034  11.100  16.828  0.00  0.00    +0.000 HD
ATOM     30  H   UNL     1      -3.149  12.766  16.976  0.00  0.00    +0.000 HD
ENDBRANCH  21  28
ENDBRANCH   1  26
BRANCH   8  31
ATOM     31  O   UNL     1       5.441   3.017  19.079  0.00  0.00    +0.000 OA
ATOM     32  H   UNL     1       5.914   2.459  18.443  0.00  0.00    +0.000 HD
ENDBRANCH   8  31
TORSDOF 3
ENDMDL
MODEL 8
REMARK VINA RESULT:      -7.2      4.780      9.839
REMARK  Name = 
REMARK  3 active torsions:
REMARK  status: ('A' for Active; 'I' for Inactive)
REMARK    1  A    between atoms: N_1  and  C_2
REMARK    2  A    between atoms: C_7  and  C_8
REMARK    3  A    between atoms: C_15  and  O_16
REMARK                            x       y       z     vdW  Elec       q    Type
REMARK                         _______ _______ _______ _____ _____    ______ ____
ROOT
ATOM      1  C   UNL     1      -1.397  12.784  20.391  0.00  0.00    +0.000 A 
ATOM      2  C   UNL     1      -0.810  12.416  19.160  0.00  0.00    +0.000 A 
ATOM      3  C   UNL     1      -0.019  11.273  19.087  0.00  0.00    +0.000 A 
ATOM      4  N   UNL     1       0.720  10.735  18.056  0.00  0.00    +0.000 N 
ATOM      5  C   UNL     1       1.333   9.558  18.449  0.00  0.00    +0.000 A 
ATOM      6  C   UNL     1       2.158   8.706  17.701  0.00  0.00    +0.000 A 
ATOM      7  C   UNL     1       2.650   7.557  18.322  0.00  0.00    +0.000 A 
ATOM      8  C   UNL     1       2.325   7.289  19.647  0.00  0.00    +0.000 A 
ATOM      9  C   UNL     1       1.509   8.146  20.393  0.00  0.00    +0.000 A 
ATOM     10  C   UNL     1       0.993   9.311  19.793  0.00  0.00    +0.000 A 
ATOM     11  C   UNL     1       0.185  10.403  20.118  0.00  0.00    +0.000 A 
ATOM     12  C   UNL     1      -0.425  10.665  21.370  0.00  0.00    +0.000 A 
ATOM     13  C   UNL     1      -1.183  11.877  21.463  0.00  0.00    +0.000 A 
ATOM     14  C   UNL     1      -1.658  11.949  22.829  0.00  0.00    +0.000 C 
ATOM     15  O   UNL     1      -2.313  12.762  23.467  0.00  0.00    +0.000 OA
ATOM     16  N   UNL     1      -1.211  10.791  23.401  0.00  0.00    +0.000 N 
ATOM     17  C   UNL     1      -0.456   9.966  22.611  0.00  0.00    +0.000 C 
ATOM     18  O   UNL     1      -0.001   8.913  23.024  0.00  0.00    +0.000 OA
ATOM     19  H   UNL     1       0.810  11.148  17.140  0.00  0.00    +0.000 HD
ATOM     20  H   UNL     1      -1.417  10.554  24.356  0.00  0.00    +0.000 HD
ENDROOT
BRANCH   1  26
ATOM     21  C   UNL     1      -2.300  16.484  20.681  0.00  0.00    +0.000 A 
ATOM     22  C   UNL     1      -3.677  16.438  20.853  0.00  0.00    +0.000 A 
ATOM     23  C   UNL     1      -4.340  15.216  20.817  0.00  0.00    +0.000 A 
ATOM     24  C   UNL     1      -3.627  14.024  20.620  0.00  0.00    +0.000 A 
ATOM     25 CL   UNL     1      -4.605  12.594  20.503  0.00  0.00    +0.000 Cl
ATOM     26  C   UNL     1      -2.214  14.017  20.519  0.00  0.00    +0.000 A 
ATOM     27  C   UNL     1      -1.587  15.278  20.620  0.00  0.00    +0.000 A 
BRANCH  21  28
ATOM     28  N   UNL     1      -1.610  17.699  20.796  0.00  0.00    +0.000 N 
ATOM     29  H   UNL     1      -1.852  18.366  20.069  0.00  0.00    +0.000 HD
ATOM     30  H   UNL     1      -0.602  17.566  20.850  0.00  0.00    +0.000 HD
ENDBRANCH  21  28
ENDBRANCH   1  26
BRANCH   8  31
ATOM     31  O   UNL     1       2.792   6.166  20.267  0.00  0.00    +0.000 OA
ATOM     32  H   UNL     1       3.023   5.510  19.592  0.00  0.00    +0.000 HD
ENDBRANCH   8  31
TORSDOF 3
ENDMDL
MODEL 9
REMARK VINA RESULT:      -7.2      4.696      9.788
REMARK  Name = 
REMARK  3 active torsions:
REMARK  status: ('A' for Active; 'I' for Inactive)
REMARK    1  A    between atoms: N_1  and  C_2
REMARK    2  A    between atoms: C_7  and  C_8
REMARK    3  A    between atoms: C_15  and  O_16
REMARK                            x       y       z     vdW  Elec       q    Type
REMARK                         _______ _______ _______ _____ _____    ______ ____
ROOT
ATOM      1  C   UNL     1      -1.810  12.527  20.415  0.00  0.00    +0.000 A 
ATOM      2  C   UNL     1      -1.265  12.174  19.160  0.00  0.00    +0.000 A 
ATOM      3  C   UNL     1      -0.373  11.109  19.071  0.00  0.00    +0.000 A 
ATOM      4  N   UNL     1       0.351  10.608  18.012  0.00  0.00    +0.000 N 
ATOM      5  C   UNL     1       1.097   9.508  18.400  0.00  0.00    +0.000 A 
ATOM      6  C   UNL     1       1.954   8.712  17.626  0.00  0.00    +0.000 A 
ATOM      7  C   UNL     1       2.590   7.637  18.247  0.00  0.00    +0.000 A 
ATOM      8  C   UNL     1       2.372   7.385  19.597  0.00  0.00    +0.000 A 
ATOM      9  C   UNL     1       1.524   8.187  20.369  0.00  0.00    +0.000 A 
ATOM     10  C   UNL     1       0.863   9.276  19.768  0.00  0.00    +0.000 A 
ATOM     11  C   UNL     1      -0.026  10.298  20.113  0.00  0.00    +0.000 A 
ATOM     12  C   UNL     1      -0.582  10.545  21.391  0.00  0.00    +0.000 A 
ATOM     13  C   UNL     1      -1.447  11.682  21.497  0.00  0.00    +0.000 A 
ATOM     14  C   UNL     1      -1.843  11.756  22.887  0.00  0.00    +0.000 C 
ATOM     15  O   UNL     1      -2.534  12.526  23.542  0.00  0.00    +0.000 OA
ATOM     16  N   UNL     1      -1.254  10.666  23.463  0.00  0.00    +0.000 N 
ATOM     17  C   UNL     1      -0.472   9.889  22.652  0.00  0.00    +0.000 C 
ATOM     18  O   UNL     1       0.107   8.898  23.066  0.00  0.00    +0.000 OA
ATOM     19  H   UNL     1       0.347  10.995  17.081  0.00  0.00    +0.000 HD
ATOM     20  H   UNL     1      -1.379  10.444  24.436  0.00  0.00    +0.000 HD
ENDROOT
BRANCH   1  26
ATOM     21  C   UNL     1      -5.053  14.540  20.573  0.00  0.00    +0.000 A 
ATOM     22  C   UNL     1      -4.585  15.839  20.725  0.00  0.00    +0.000 A 
ATOM     23  C   UNL     1      -3.220  16.076  20.839  0.00  0.00    +0.000 A 
ATOM     24  C   UNL     1      -2.305  15.013  20.791  0.00  0.00    +0.000 A 
ATOM     25 CL   UNL     1      -0.646  15.458  21.045  0.00  0.00    +0.000 Cl
ATOM     26  C   UNL     1      -2.733  13.682  20.558  0.00  0.00    +0.000 A 
ATOM     27  C   UNL     1      -4.123  13.505  20.391  0.00  0.00    +0.000 A 
BRANCH  21  28
ATOM     28  N   UNL     1      -6.419  14.296  20.375  0.00  0.00    +0.000 N 
ATOM     29  H   UNL     1      -6.670  14.203  19.395  0.00  0.00    +0.000 HD
ATOM     30  H   UNL     1      -7.005  14.986  20.839  0.00  0.00    +0.000 HD
ENDBRANCH  21  28
ENDBRANCH   1  26
BRANCH   8  31
ATOM     31  O   UNL     1       2.982   6.334  20.220  0.00  0.00    +0.000 OA
ATOM     32  H   UNL     1       2.377   5.973  20.887  0.00  0.00    +0.000 HD
ENDBRANCH   8  31
TORSDOF 3
ENDMDL
