MODEL 1
REMARK VINA RESULT:      -7.0      0.000      0.000
REMARK  Name = 
REMARK  11 active torsions:
REMARK  status: ('A' for Active; 'I' for Inactive)
REMARK    1  A    between atoms: C_1  and  C_2
REMARK    2  A    between atoms: C_2  and  C_3
REMARK    3  A    between atoms: C_3  and  C_4
REMARK    4  A    between atoms: C_4  and  C_5
REMARK    5  A    between atoms: C_4  and  C_6
REMARK    6  A    between atoms: C_4  and  N_8
REMARK    7  A    between atoms: C_9  and  C_11
REMARK    8  A    between atoms: N_13  and  C_14
REMARK    9  A    between atoms: C_16  and  O_17
REMARK   10  A    between atoms: O_17  and  S_18
REMARK   11  A    between atoms: S_18  and  C_19
REMARK                            x       y       z     vdW  Elec       q    Type
REMARK                         _______ _______ _______ _____ _____    ______ ____
ROOT
ATOM      1  N   UNL     1       3.824   5.139  17.836  0.00  0.00    +0.000 N 
ATOM      2  C   UNL     1       4.363   4.052  17.177  0.00  0.00    +0.000 C 
ATOM      3  O   UNL     1       3.890   2.926  17.269  0.00  0.00    +0.000 OA
ATOM      4  H   UNL     1       4.190   6.057  17.623  0.00  0.00    +0.000 HD
ENDROOT
BRANCH   2   5
ATOM      5  C   UNL     1       5.579   4.287  16.428  0.00  0.00    +0.000 A 
ATOM      6  C   UNL     1       5.594   4.549  15.067  0.00  0.00    +0.000 A 
ATOM      7  N   UNL     1       6.892   4.731  14.713  0.00  0.00    +0.000 N 
ATOM      8  C   UNL     1       7.397   5.100  13.413  0.00  0.00    +0.000 C 
ATOM      9  N   UNL     1       7.747   4.537  15.733  0.00  0.00    +0.000 NA
ATOM     10  C   UNL     1       6.940   4.387  16.784  0.00  0.00    +0.000 A 
BRANCH  10  11
ATOM     11  O   UNL     1       7.484   4.304  18.009  0.00  0.00    +0.000 OA
BRANCH  11  12
ATOM     12  S   UNL     1       7.323   5.521  19.097  0.00  0.00    +0.000 S 
ATOM     13  C   UNL     1       7.604   6.918  18.018  0.00  0.00    +0.000 C 
ATOM     14  O   UNL     1       5.975   5.572  19.629  0.00  0.00    +0.000 OA
ATOM     15  O   UNL     1       8.460   5.446  20.003  0.00  0.00    +0.000 OA
ENDBRANCH  11  12
ENDBRANCH  10  11
ENDBRANCH   2   5
BRANCH   1  16
ATOM     16  C   UNL     1       2.588   5.038  18.644  0.00  0.00    +0.000 C 
ATOM     17  C   UNL     1       1.351   4.691  17.788  0.00  0.00    +0.000 C 
BRANCH  16  18
ATOM     18  C   UNL     1       2.330   6.364  19.339  0.00  0.00    +0.000 C 
ATOM     19  N   UNL     1       2.117   7.464  19.916  0.00  0.00    +0.000 NA
ENDBRANCH  16  18
BRANCH  16  20
ATOM     20  C   UNL     1       2.769   3.954  19.747  0.00  0.00    +0.000 C 
BRANCH  20  22
ATOM     21  C   UNL     1       1.654   2.719  21.655  0.00  0.00    +0.000 C 
ATOM     22  C   UNL     1       1.460   3.355  20.286  0.00  0.00    +0.000 C 
ENDBRANCH  20  22
ENDBRANCH  16  20
ENDBRANCH   1  16
TORSDOF 7
ENDMDL
MODEL 2
REMARK VINA RESULT:      -6.6      1.130      1.242
REMARK  Name = 
REMARK  11 active torsions:
REMARK  status: ('A' for Active; 'I' for Inactive)
REMARK    1  A    between atoms: C_1  and  C_2
REMARK    2  A    between atoms: C_2  and  C_3
REMARK    3  A    between atoms: C_3  and  C_4
REMARK    4  A    between atoms: C_4  and  C_5
REMARK    5  A    between atoms: C_4  and  C_6
REMARK    6  A    between atoms: C_4  and  N_8
REMARK    7  A    between atoms: C_9  and  C_11
REMARK    8  A    between atoms: N_13  and  C_14
REMARK    9  A    between atoms: C_16  and  O_17
REMARK   10  A    between atoms: O_17  and  S_18
REMARK   11  A    between atoms: S_18  and  C_19
REMARK                            x       y       z     vdW  Elec       q    Type
REMARK                         _______ _______ _______ _____ _____    ______ ____
ROOT
ATOM      1  N   UNL     1       3.758   5.031  17.479  0.00  0.00    +0.000 N 
ATOM      2  C   UNL     1       4.394   4.031  16.773  0.00  0.00    +0.000 C 
ATOM      3  O   UNL     1       4.131   2.845  16.930  0.00  0.00    +0.000 OA
ATOM      4  H   UNL     1       3.938   5.991  17.216  0.00  0.00    +0.000 HD
ENDROOT
BRANCH   2   5
ATOM      5  C   UNL     1       5.461   4.443  15.885  0.00  0.00    +0.000 A 
ATOM      6  C   UNL     1       5.606   3.955  14.596  0.00  0.00    +0.000 A 
ATOM      7  N   UNL     1       6.693   4.569  14.061  0.00  0.00    +0.000 N 
ATOM      8  C   UNL     1       7.193   4.437  12.714  0.00  0.00    +0.000 C 
ATOM      9  N   UNL     1       7.321   5.379  14.931  0.00  0.00    +0.000 NA
ATOM     10  C   UNL     1       6.504   5.386  15.985  0.00  0.00    +0.000 A 
BRANCH  10  11
ATOM     11  O   UNL     1       6.774   6.217  17.005  0.00  0.00    +0.000 OA
BRANCH  11  12
ATOM     12  S   UNL     1       7.608   5.708  18.323  0.00  0.00    +0.000 S 
ATOM     13  C   UNL     1       6.246   5.463  19.455  0.00  0.00    +0.000 C 
ATOM     14  O   UNL     1       8.269   4.444  18.067  0.00  0.00    +0.000 OA
ATOM     15  O   UNL     1       8.373   6.843  18.816  0.00  0.00    +0.000 OA
ENDBRANCH  11  12
ENDBRANCH  10  11
ENDBRANCH   2   5
BRANCH   1  16
ATOM     16  C   UNL     1       2.657   4.750  18.427  0.00  0.00    +0.000 C 
ATOM     17  C   UNL     1       1.353   4.338  17.710  0.00  0.00    +0.000 C 
BRANCH  16  18
ATOM     18  C   UNL     1       2.373   5.992  19.255  0.00  0.00    +0.000 C 
ATOM     19  N   UNL     1       2.138   7.023  19.941  0.00  0.00    +0.000 NA
ENDBRANCH  16  18
BRANCH  16  20
ATOM     20  C   UNL     1       3.084   3.617  19.407  0.00  0.00    +0.000 C 
BRANCH  20  22
ATOM     21  C   UNL     1       1.587   2.932  21.330  0.00  0.00    +0.000 C 
ATOM     22  C   UNL     1       1.942   2.698  19.869  0.00  0.00    +0.000 C 
ENDBRANCH  20  22
ENDBRANCH  16  20
ENDBRANCH   1  16
TORSDOF 7
ENDMDL
MODEL 3
REMARK VINA RESULT:      -6.5      1.862      2.530
REMARK  Name = 
REMARK  11 active torsions:
REMARK  status: ('A' for Active; 'I' for Inactive)
REMARK    1  A    between atoms: C_1  and  C_2
REMARK    2  A    between atoms: C_2  and  C_3
REMARK    3  A    between atoms: C_3  and  C_4
REMARK    4  A    between atoms: C_4  and  C_5
REMARK    5  A    between atoms: C_4  and  C_6
REMARK    6  A    between atoms: C_4  and  N_8
REMARK    7  A    between atoms: C_9  and  C_11
REMARK    8  A    between atoms: N_13  and  C_14
REMARK    9  A    between atoms: C_16  and  O_17
REMARK   10  A    between atoms: O_17  and  S_18
REMARK   11  A    between atoms: S_18  and  C_19
REMARK                            x       y       z     vdW  Elec       q    Type
REMARK                         _______ _______ _______ _____ _____    ______ ____
ROOT
ATOM      1  N   UNL     1       4.859   3.213  18.189  0.00  0.00    +0.000 N 
ATOM      2  C   UNL     1       4.431   3.997  17.137  0.00  0.00    +0.000 C 
ATOM      3  O   UNL     1       3.266   4.358  17.018  0.00  0.00    +0.000 OA
ATOM      4  H   UNL     1       5.853   3.052  18.292  0.00  0.00    +0.000 HD
ENDROOT
BRANCH   2   5
ATOM      5  C   UNL     1       5.413   4.311  16.121  0.00  0.00    +0.000 A 
ATOM      6  C   UNL     1       5.445   3.694  14.880  0.00  0.00    +0.000 A 
ATOM      7  N   UNL     1       6.478   4.245  14.192  0.00  0.00    +0.000 N 
ATOM      8  C   UNL     1       6.857   3.975  12.826  0.00  0.00    +0.000 C 
ATOM      9  N   UNL     1       7.178   5.135  14.917  0.00  0.00    +0.000 NA
ATOM     10  C   UNL     1       6.459   5.253  16.033  0.00  0.00    +0.000 A 
BRANCH  10  11
ATOM     11  O   UNL     1       6.815   6.181  16.936  0.00  0.00    +0.000 OA
BRANCH  11  12
ATOM     12  S   UNL     1       7.367   5.758  18.421  0.00  0.00    +0.000 S 
ATOM     13  C   UNL     1       8.367   7.196  18.783  0.00  0.00    +0.000 C 
ATOM     14  O   UNL     1       6.281   5.660  19.376  0.00  0.00    +0.000 OA
ATOM     15  O   UNL     1       8.281   4.639  18.241  0.00  0.00    +0.000 OA
ENDBRANCH  11  12
ENDBRANCH  10  11
ENDBRANCH   2   5
BRANCH   1  16
ATOM     16  C   UNL     1       3.958   2.811  19.292  0.00  0.00    +0.000 C 
ATOM     17  C   UNL     1       3.316   4.023  20.000  0.00  0.00    +0.000 C 
BRANCH  16  18
ATOM     18  C   UNL     1       4.744   2.018  20.323  0.00  0.00    +0.000 C 
ATOM     19  N   UNL     1       5.397   1.361  21.177  0.00  0.00    +0.000 NA
ENDBRANCH  16  18
BRANCH  16  20
ATOM     20  C   UNL     1       2.834   1.884  18.740  0.00  0.00    +0.000 C 
BRANCH  20  22
ATOM     21  C   UNL     1       0.424   2.656  18.715  0.00  0.00    +0.000 C 
ATOM     22  C   UNL     1       1.508   1.946  19.513  0.00  0.00    +0.000 C 
ENDBRANCH  20  22
ENDBRANCH  16  20
ENDBRANCH   1  16
TORSDOF 7
ENDMDL
MODEL 4
REMARK VINA RESULT:      -6.5      1.112      1.361
REMARK  Name = 
REMARK  11 active torsions:
REMARK  status: ('A' for Active; 'I' for Inactive)
REMARK    1  A    between atoms: C_1  and  C_2
REMARK    2  A    between atoms: C_2  and  C_3
REMARK    3  A    between atoms: C_3  and  C_4
REMARK    4  A    between atoms: C_4  and  C_5
REMARK    5  A    between atoms: C_4  and  C_6
REMARK    6  A    between atoms: C_4  and  N_8
REMARK    7  A    between atoms: C_9  and  C_11
REMARK    8  A    between atoms: N_13  and  C_14
REMARK    9  A    between atoms: C_16  and  O_17
REMARK   10  A    between atoms: O_17  and  S_18
REMARK   11  A    between atoms: S_18  and  C_19
REMARK                            x       y       z     vdW  Elec       q    Type
REMARK                         _______ _______ _______ _____ _____    ______ ____
ROOT
ATOM      1  N   UNL     1       3.804   5.318  17.497  0.00  0.00    +0.000 N 
ATOM      2  C   UNL     1       4.362   4.268  16.798  0.00  0.00    +0.000 C 
ATOM      3  O   UNL     1       4.033   3.103  16.986  0.00  0.00    +0.000 OA
ATOM      4  H   UNL     1       4.034   6.260  17.210  0.00  0.00    +0.000 HD
ENDROOT
BRANCH   2   5
ATOM      5  C   UNL     1       5.429   4.597  15.876  0.00  0.00    +0.000 A 
ATOM      6  C   UNL     1       5.592   3.975  14.649  0.00  0.00    +0.000 A 
ATOM      7  N   UNL     1       6.673   4.544  14.057  0.00  0.00    +0.000 N 
ATOM      8  C   UNL     1       7.185   4.274  12.735  0.00  0.00    +0.000 C 
ATOM      9  N   UNL     1       7.283   5.452  14.838  0.00  0.00    +0.000 NA
ATOM     10  C   UNL     1       6.458   5.561  15.880  0.00  0.00    +0.000 A 
BRANCH  10  11
ATOM     11  O   UNL     1       6.708   6.502  16.806  0.00  0.00    +0.000 OA
BRANCH  11  12
ATOM     12  S   UNL     1       7.295   6.109  18.285  0.00  0.00    +0.000 S 
ATOM     13  C   UNL     1       8.021   4.521  17.899  0.00  0.00    +0.000 C 
ATOM     14  O   UNL     1       8.329   7.035  18.701  0.00  0.00    +0.000 OA
ATOM     15  O   UNL     1       6.153   5.856  19.152  0.00  0.00    +0.000 OA
ENDBRANCH  11  12
ENDBRANCH  10  11
ENDBRANCH   2   5
BRANCH   1  16
ATOM     16  C   UNL     1       2.712   5.122  18.476  0.00  0.00    +0.000 C 
ATOM     17  C   UNL     1       1.418   4.596  17.818  0.00  0.00    +0.000 C 
BRANCH  16  18
ATOM     18  C   UNL     1       2.397   6.445  19.154  0.00  0.00    +0.000 C 
ATOM     19  N   UNL     1       2.135   7.543  19.716  0.00  0.00    +0.000 NA
ENDBRANCH  16  18
BRANCH  16  20
ATOM     20  C   UNL     1       3.168   4.123  19.580  0.00  0.00    +0.000 C 
BRANCH  20  22
ATOM     21  C   UNL     1       1.438   3.100  21.118  0.00  0.00    +0.000 C 
ATOM     22  C   UNL     1       2.417   4.247  20.915  0.00  0.00    +0.000 C 
ENDBRANCH  20  22
ENDBRANCH  16  20
ENDBRANCH   1  16
TORSDOF 7
ENDMDL
MODEL 5
REMARK VINA RESULT:      -6.4      2.429      6.028
REMARK  Name = 
REMARK  11 active torsions:
REMARK  status: ('A' for Active; 'I' for Inactive)
REMARK    1  A    between atoms: C_1  and  C_2
REMARK    2  A    between atoms: C_2  and  C_3
REMARK    3  A    between atoms: C_3  and  C_4
REMARK    4  A    between atoms: C_4  and  C_5
REMARK    5  A    between atoms: C_4  and  C_6
REMARK    6  A    between atoms: C_4  and  N_8
REMARK    7  A    between atoms: C_9  and  C_11
REMARK    8  A    between atoms: N_13  and  C_14
REMARK    9  A    between atoms: C_16  and  O_17
REMARK   10  A    between atoms: O_17  and  S_18
REMARK   11  A    between atoms: S_18  and  C_19
REMARK                            x       y       z     vdW  Elec       q    Type
REMARK                         _______ _______ _______ _____ _____    ______ ____
ROOT
ATOM      1  N   UNL     1       5.315   5.591  17.996  0.00  0.00    +0.000 N 
ATOM      2  C   UNL     1       4.197   6.393  17.885  0.00  0.00    +0.000 C 
ATOM      3  O   UNL     1       4.085   7.248  17.014  0.00  0.00    +0.000 OA
ATOM      4  H   UNL     1       5.292   4.828  18.661  0.00  0.00    +0.000 HD
ENDROOT
BRANCH   2   5
ATOM      5  C   UNL     1       3.183   6.237  18.907  0.00  0.00    +0.000 A 
ATOM      6  C   UNL     1       2.609   7.306  19.576  0.00  0.00    +0.000 A 
ATOM      7  N   UNL     1       1.699   6.788  20.441  0.00  0.00    +0.000 N 
ATOM      8  C   UNL     1       0.799   7.520  21.300  0.00  0.00    +0.000 C 
ATOM      9  N   UNL     1       1.680   5.444  20.443  0.00  0.00    +0.000 NA
ATOM     10  C   UNL     1       2.492   5.126  19.433  0.00  0.00    +0.000 A 
BRANCH  10  11
ATOM     11  O   UNL     1       2.597   3.837  19.070  0.00  0.00    +0.000 OA
BRANCH  11  12
ATOM     12  S   UNL     1       3.685   2.837  19.780  0.00  0.00    +0.000 S 
ATOM     13  C   UNL     1       3.526   1.419  18.703  0.00  0.00    +0.000 C 
ATOM     14  O   UNL     1       5.028   3.376  19.690  0.00  0.00    +0.000 OA
ATOM     15  O   UNL     1       3.141   2.453  21.074  0.00  0.00    +0.000 OA
ENDBRANCH  11  12
ENDBRANCH  10  11
ENDBRANCH   2   5
BRANCH   1  16
ATOM     16  C   UNL     1       6.430   5.653  17.026  0.00  0.00    +0.000 C 
ATOM     17  C   UNL     1       7.467   4.531  17.247  0.00  0.00    +0.000 C 
BRANCH  16  18
ATOM     18  C   UNL     1       7.140   6.990  17.158  0.00  0.00    +0.000 C 
ATOM     19  N   UNL     1       7.728   8.100  17.269  0.00  0.00    +0.000 NA
ENDBRANCH  16  18
BRANCH  16  20
ATOM     20  C   UNL     1       5.871   5.557  15.575  0.00  0.00    +0.000 C 
BRANCH  20  22
ATOM     21  C   UNL     1       6.194   3.915  13.677  0.00  0.00    +0.000 C 
ATOM     22  C   UNL     1       5.624   4.126  15.072  0.00  0.00    +0.000 C 
ENDBRANCH  20  22
ENDBRANCH  16  20
ENDBRANCH   1  16
TORSDOF 7
ENDMDL
MODEL 6
REMARK VINA RESULT:      -6.4      1.237      2.527
REMARK  Name = 
REMARK  11 active torsions:
REMARK  status: ('A' for Active; 'I' for Inactive)
REMARK    1  A    between atoms: C_1  and  C_2
REMARK    2  A    between atoms: C_2  and  C_3
REMARK    3  A    between atoms: C_3  and  C_4
REMARK    4  A    between atoms: C_4  and  C_5
REMARK    5  A    between atoms: C_4  and  C_6
REMARK    6  A    between atoms: C_4  and  N_8
REMARK    7  A    between atoms: C_9  and  C_11
REMARK    8  A    between atoms: N_13  and  C_14
REMARK    9  A    between atoms: C_16  and  O_17
REMARK   10  A    between atoms: O_17  and  S_18
REMARK   11  A    between atoms: S_18  and  C_19
REMARK                            x       y       z     vdW  Elec       q    Type
REMARK                         _______ _______ _______ _____ _____    ______ ____
ROOT
ATOM      1  N   UNL     1       3.760   5.439  17.774  0.00  0.00    +0.000 N 
ATOM      2  C   UNL     1       4.434   4.275  17.464  0.00  0.00    +0.000 C 
ATOM      3  O   UNL     1       4.101   3.184  17.911  0.00  0.00    +0.000 OA
ATOM      4  H   UNL     1       4.014   6.285  17.280  0.00  0.00    +0.000 HD
ENDROOT
BRANCH   2   5
ATOM      5  C   UNL     1       5.619   4.411  16.644  0.00  0.00    +0.000 A 
ATOM      6  C   UNL     1       5.573   4.640  15.277  0.00  0.00    +0.000 A 
ATOM      7  N   UNL     1       6.859   4.726  14.848  0.00  0.00    +0.000 N 
ATOM      8  C   UNL     1       7.313   5.031  13.513  0.00  0.00    +0.000 C 
ATOM      9  N   UNL     1       7.756   4.500  15.824  0.00  0.00    +0.000 NA
ATOM     10  C   UNL     1       7.001   4.429  16.921  0.00  0.00    +0.000 A 
BRANCH  10  11
ATOM     11  O   UNL     1       7.607   4.339  18.117  0.00  0.00    +0.000 OA
BRANCH  11  12
ATOM     12  S   UNL     1       7.481   5.538  19.228  0.00  0.00    +0.000 S 
ATOM     13  C   UNL     1       7.819   6.946  18.179  0.00  0.00    +0.000 C 
ATOM     14  O   UNL     1       6.133   5.627  19.753  0.00  0.00    +0.000 OA
ATOM     15  O   UNL     1       8.609   5.405  20.139  0.00  0.00    +0.000 OA
ENDBRANCH  11  12
ENDBRANCH  10  11
ENDBRANCH   2   5
BRANCH   1  16
ATOM     16  C   UNL     1       2.540   5.446  18.611  0.00  0.00    +0.000 C 
ATOM     17  C   UNL     1       2.847   5.190  20.102  0.00  0.00    +0.000 C 
BRANCH  16  18
ATOM     18  C   UNL     1       1.591   4.362  18.127  0.00  0.00    +0.000 C 
ATOM     19  N   UNL     1       0.802   3.464  17.726  0.00  0.00    +0.000 NA
ENDBRANCH  16  18
BRANCH  16  20
ATOM     20  C   UNL     1       1.809   6.813  18.465  0.00  0.00    +0.000 C 
BRANCH  20  22
ATOM     21  C   UNL     1       1.984   9.276  17.908  0.00  0.00    +0.000 C 
ATOM     22  C   UNL     1       2.612   7.901  17.735  0.00  0.00    +0.000 C 
ENDBRANCH  20  22
ENDBRANCH  16  20
ENDBRANCH   1  16
TORSDOF 7
ENDMDL
MODEL 7
REMARK VINA RESULT:      -6.4      2.952      6.355
REMARK  Name = 
REMARK  11 active torsions:
REMARK  status: ('A' for Active; 'I' for Inactive)
REMARK    1  A    between atoms: C_1  and  C_2
REMARK    2  A    between atoms: C_2  and  C_3
REMARK    3  A    between atoms: C_3  and  C_4
REMARK    4  A    between atoms: C_4  and  C_5
REMARK    5  A    between atoms: C_4  and  C_6
REMARK    6  A    between atoms: C_4  and  N_8
REMARK    7  A    between atoms: C_9  and  C_11
REMARK    8  A    between atoms: N_13  and  C_14
REMARK    9  A    between atoms: C_16  and  O_17
REMARK   10  A    between atoms: O_17  and  S_18
REMARK   11  A    between atoms: S_18  and  C_19
REMARK                            x       y       z     vdW  Elec       q    Type
REMARK                         _______ _______ _______ _____ _____    ______ ____
ROOT
ATOM      1  N   UNL     1       5.141   5.672  18.255  0.00  0.00    +0.000 N 
ATOM      2  C   UNL     1       4.029   6.467  18.065  0.00  0.00    +0.000 C 
ATOM      3  O   UNL     1       3.923   7.234  17.115  0.00  0.00    +0.000 OA
ATOM      4  H   UNL     1       5.113   4.978  18.990  0.00  0.00    +0.000 HD
ENDROOT
BRANCH   2   5
ATOM      5  C   UNL     1       3.012   6.416  19.094  0.00  0.00    +0.000 A 
ATOM      6  C   UNL     1       2.396   7.546  19.609  0.00  0.00    +0.000 A 
ATOM      7  N   UNL     1       1.497   7.119  20.533  0.00  0.00    +0.000 N 
ATOM      8  C   UNL     1       0.565   7.929  21.281  0.00  0.00    +0.000 C 
ATOM      9  N   UNL     1       1.524   5.788  20.718  0.00  0.00    +0.000 NA
ATOM     10  C   UNL     1       2.355   5.364  19.765  0.00  0.00    +0.000 A 
BRANCH  10  11
ATOM     11  O   UNL     1       2.507   4.042  19.582  0.00  0.00    +0.000 OA
BRANCH  11  12
ATOM     12  S   UNL     1       1.772   3.264  18.340  0.00  0.00    +0.000 S 
ATOM     13  C   UNL     1       3.213   2.594  17.520  0.00  0.00    +0.000 C 
ATOM     14  O   UNL     1       0.933   2.185  18.821  0.00  0.00    +0.000 OA
ATOM     15  O   UNL     1       1.215   4.281  17.460  0.00  0.00    +0.000 OA
ENDBRANCH  11  12
ENDBRANCH  10  11
ENDBRANCH   2   5
BRANCH   1  16
ATOM     16  C   UNL     1       6.258   5.634  17.285  0.00  0.00    +0.000 C 
ATOM     17  C   UNL     1       7.294   4.541  17.623  0.00  0.00    +0.000 C 
BRANCH  16  18
ATOM     18  C   UNL     1       6.968   6.978  17.280  0.00  0.00    +0.000 C 
ATOM     19  N   UNL     1       7.557   8.092  17.277  0.00  0.00    +0.000 NA
ENDBRANCH  16  18
BRANCH  16  20
ATOM     20  C   UNL     1       5.702   5.389  15.851  0.00  0.00    +0.000 C 
BRANCH  20  22
ATOM     21  C   UNL     1       6.055   3.911  13.827  0.00  0.00    +0.000 C 
ATOM     22  C   UNL     1       6.720   4.819  14.852  0.00  0.00    +0.000 C 
ENDBRANCH  20  22
ENDBRANCH  16  20
ENDBRANCH   1  16
TORSDOF 7
ENDMDL
MODEL 8
REMARK VINA RESULT:      -6.4      2.497      6.028
REMARK  Name = 
REMARK  11 active torsions:
REMARK  status: ('A' for Active; 'I' for Inactive)
REMARK    1  A    between atoms: C_1  and  C_2
REMARK    2  A    between atoms: C_2  and  C_3
REMARK    3  A    between atoms: C_3  and  C_4
REMARK    4  A    between atoms: C_4  and  C_5
REMARK    5  A    between atoms: C_4  and  C_6
REMARK    6  A    between atoms: C_4  and  N_8
REMARK    7  A    between atoms: C_9  and  C_11
REMARK    8  A    between atoms: N_13  and  C_14
REMARK    9  A    between atoms: C_16  and  O_17
REMARK   10  A    between atoms: O_17  and  S_18
REMARK   11  A    between atoms: S_18  and  C_19
REMARK                            x       y       z     vdW  Elec       q    Type
REMARK                         _______ _______ _______ _____ _____    ______ ____
ROOT
ATOM      1  N   UNL     1       5.458   5.446  18.136  0.00  0.00    +0.000 N 
ATOM      2  C   UNL     1       4.640   4.335  18.179  0.00  0.00    +0.000 C 
ATOM      3  O   UNL     1       4.714   3.431  17.355  0.00  0.00    +0.000 OA
ATOM      4  H   UNL     1       5.425   6.094  18.912  0.00  0.00    +0.000 HD
ENDROOT
BRANCH   2   5
ATOM      5  C   UNL     1       3.620   4.322  19.206  0.00  0.00    +0.000 A 
ATOM      6  C   UNL     1       3.190   3.163  19.834  0.00  0.00    +0.000 A 
ATOM      7  N   UNL     1       2.248   3.531  20.740  0.00  0.00    +0.000 N 
ATOM      8  C   UNL     1       1.568   2.677  21.684  0.00  0.00    +0.000 C 
ATOM      9  N   UNL     1       1.972   4.846  20.708  0.00  0.00    +0.000 NA
ATOM     10  C   UNL     1       2.885   5.329  19.865  0.00  0.00    +0.000 A 
BRANCH  10  11
ATOM     11  O   UNL     1       2.976   6.659  19.704  0.00  0.00    +0.000 OA
BRANCH  11  12
ATOM     12  S   UNL     1       2.531   7.380  18.300  0.00  0.00    +0.000 S 
ATOM     13  C   UNL     1       1.661   8.796  18.961  0.00  0.00    +0.000 C 
ATOM     14  O   UNL     1       3.689   7.821  17.548  0.00  0.00    +0.000 OA
ATOM     15  O   UNL     1       1.536   6.525  17.670  0.00  0.00    +0.000 OA
ENDBRANCH  11  12
ENDBRANCH  10  11
ENDBRANCH   2   5
BRANCH   1  16
ATOM     16  C   UNL     1       6.536   5.593  17.133  0.00  0.00    +0.000 C 
ATOM     17  C   UNL     1       7.644   4.532  17.299  0.00  0.00    +0.000 C 
BRANCH  16  18
ATOM     18  C   UNL     1       7.168   6.968  17.269  0.00  0.00    +0.000 C 
ATOM     19  N   UNL     1       7.693   8.109  17.382  0.00  0.00    +0.000 NA
ENDBRANCH  16  18
BRANCH  16  20
ATOM     20  C   UNL     1       5.937   5.490  15.699  0.00  0.00    +0.000 C 
BRANCH  20  22
ATOM     21  C   UNL     1       6.052   3.887  13.743  0.00  0.00    +0.000 C 
ATOM     22  C   UNL     1       6.844   4.800  14.668  0.00  0.00    +0.000 C 
ENDBRANCH  20  22
ENDBRANCH  16  20
ENDBRANCH   1  16
TORSDOF 7
ENDMDL
MODEL 9
REMARK VINA RESULT:      -6.3      2.531      5.944
REMARK  Name = 
REMARK  11 active torsions:
REMARK  status: ('A' for Active; 'I' for Inactive)
REMARK    1  A    between atoms: C_1  and  C_2
REMARK    2  A    between atoms: C_2  and  C_3
REMARK    3  A    between atoms: C_3  and  C_4
REMARK    4  A    between atoms: C_4  and  C_5
REMARK    5  A    between atoms: C_4  and  C_6
REMARK    6  A    between atoms: C_4  and  N_8
REMARK    7  A    between atoms: C_9  and  C_11
REMARK    8  A    between atoms: N_13  and  C_14
REMARK    9  A    between atoms: C_16  and  O_17
REMARK   10  A    between atoms: O_17  and  S_18
REMARK   11  A    between atoms: S_18  and  C_19
REMARK                            x       y       z     vdW  Elec       q    Type
REMARK                         _______ _______ _______ _____ _____    ______ ____
ROOT
ATOM      1  N   UNL     1       5.214   5.370  17.699  0.00  0.00    +0.000 N 
ATOM      2  C   UNL     1       4.477   4.203  17.677  0.00  0.00    +0.000 C 
ATOM      3  O   UNL     1       4.737   3.275  16.920  0.00  0.00    +0.000 OA
ATOM      4  H   UNL     1       5.020   6.044  18.427  0.00  0.00    +0.000 HD
ENDROOT
BRANCH   2   5
ATOM      5  C   UNL     1       3.317   4.153  18.542  0.00  0.00    +0.000 A 
ATOM      6  C   UNL     1       3.144   3.191  19.524  0.00  0.00    +0.000 A 
ATOM      7  N   UNL     1       1.964   3.463  20.140  0.00  0.00    +0.000 N 
ATOM      8  C   UNL     1       1.397   2.778  21.276  0.00  0.00    +0.000 C 
ATOM      9  N   UNL     1       1.308   4.497  19.586  0.00  0.00    +0.000 NA
ATOM     10  C   UNL     1       2.185   4.977  18.704  0.00  0.00    +0.000 A 
BRANCH  10  11
ATOM     11  O   UNL     1       1.892   6.118  18.057  0.00  0.00    +0.000 OA
BRANCH  11  12
ATOM     12  S   UNL     1       2.427   7.569  18.603  0.00  0.00    +0.000 S 
ATOM     13  C   UNL     1       1.271   8.643  17.762  0.00  0.00    +0.000 C 
ATOM     14  O   UNL     1       2.254   7.685  20.037  0.00  0.00    +0.000 OA
ATOM     15  O   UNL     1       3.735   7.800  18.006  0.00  0.00    +0.000 OA
ENDBRANCH  11  12
ENDBRANCH  10  11
ENDBRANCH   2   5
BRANCH   1  16
ATOM     16  C   UNL     1       6.418   5.559  16.859  0.00  0.00    +0.000 C 
ATOM     17  C   UNL     1       7.502   4.495  17.137  0.00  0.00    +0.000 C 
BRANCH  16  18
ATOM     18  C   UNL     1       7.014   6.929  17.132  0.00  0.00    +0.000 C 
ATOM     19  N   UNL     1       7.509   8.067  17.359  0.00  0.00    +0.000 NA
ENDBRANCH  16  18
BRANCH  16  20
ATOM     20  C   UNL     1       6.022   5.507  15.354  0.00  0.00    +0.000 C 
BRANCH  20  22
ATOM     21  C   UNL     1       6.049   3.794  13.491  0.00  0.00    +0.000 C 
ATOM     22  C   UNL     1       6.889   4.578  14.489  0.00  0.00    +0.000 C 
ENDBRANCH  20  22
ENDBRANCH  16  20
ENDBRANCH   1  16
TORSDOF 7
ENDMDL
