MODEL 1
REMARK VINA RESULT:      -8.8      0.000      0.000
REMARK  Name = 
REMARK  12 active torsions:
REMARK  status: ('A' for Active; 'I' for Inactive)
REMARK    1  A    between atoms: N_1  and  C_2
REMARK    2  A    between atoms: C_2  and  C_3
REMARK    3  A    between atoms: C_2  and  C_11
REMARK    4  A    between atoms: C_2  and  C_14
REMARK    5  A    between atoms: C_3  and  C_4
REMARK    6  A    between atoms: C_4  and  C_5
REMARK    7  A    between atoms: C_11  and  O_13
REMARK    8  A    between atoms: C_15  and  C_16
REMARK    9  A    between atoms: C_16  and  C_17
REMARK   10  A    between atoms: C_17  and  C_18
REMARK   11  A    between atoms: C_24  and  C_25
REMARK   12  A    between atoms: C_25  and  O_27
REMARK                            x       y       z     vdW  Elec       q    Type
REMARK                         _______ _______ _______ _____ _____    ______ ____
ROOT
ATOM      1  C   UNL     1       6.041   5.605  15.716  0.00  0.00    +0.000 C 
ENDROOT
BRANCH   1   2
ATOM      2  N   UNL     1       5.313   6.822  15.271  0.00  0.00    +0.000 NA
ATOM      3  H   UNL     1       5.950   7.365  14.679  0.00  0.00    +0.000 HD
ATOM      4  H   UNL     1       5.207   7.431  16.088  0.00  0.00    +0.000 HD
ENDBRANCH   1   2
BRANCH   1   5
ATOM      5  C   UNL     1       7.044   5.963  16.804  0.00  0.00    +0.000 C 
ATOM      6  C   UNL     1       6.982   7.266  17.582  0.00  0.00    +0.000 C 
ATOM      7  C   UNL     1       6.686   5.949  18.288  0.00  0.00    +0.000 C 
BRANCH   7   8
ATOM      8  C   UNL     1       7.636   5.276  19.217  0.00  0.00    +0.000 C 
ATOM      9  O   UNL     1       7.674   5.525  20.411  0.00  0.00    +0.000 OA
BRANCH   8  10
ATOM     10  O   UNL     1       8.444   4.376  18.617  0.00  0.00    +0.000 OA
ATOM     11  H   UNL     1       8.174   3.451  18.762  0.00  0.00    +0.000 HD
ENDBRANCH   8  10
ENDBRANCH   7   8
BRANCH   6  12
ATOM     12  C   UNL     1       8.219   8.064  17.907  0.00  0.00    +0.000 C 
BRANCH  12  13
ATOM     13  C   UNL     1       8.019   9.577  17.749  0.00  0.00    +0.000 C 
BRANCH  13  14
ATOM     14  C   UNL     1       9.084  10.376  18.467  0.00  0.00    +0.000 A 
ATOM     15  C   UNL     1      10.035  11.114  17.747  0.00  0.00    +0.000 A 
ATOM     16  C   UNL     1      11.039  11.823  18.410  0.00  0.00    +0.000 A 
ATOM     17  C   UNL     1      11.092  11.819  19.801  0.00  0.00    +0.000 A 
ATOM     18  C   UNL     1      10.135  11.116  20.529  0.00  0.00    +0.000 A 
ATOM     19  C   UNL     1       9.134  10.401  19.867  0.00  0.00    +0.000 A 
ENDBRANCH  13  14
ENDBRANCH  12  13
ENDBRANCH   6  12
ENDBRANCH   1   5
BRANCH   1  20
ATOM     20  C   UNL     1       6.777   4.999  14.476  0.00  0.00    +0.000 C 
ATOM     21  O   UNL     1       6.314   4.089  13.797  0.00  0.00    +0.000 OA
BRANCH  20  22
ATOM     22  O   UNL     1       7.964   5.572  14.177  0.00  0.00    +0.000 OA
ATOM     23  H   UNL     1       8.746   5.008  14.326  0.00  0.00    +0.000 HD
ENDBRANCH  20  22
ENDBRANCH   1  20
BRANCH   1  24
ATOM     24  C   UNL     1       5.009   4.566  16.226  0.00  0.00    +0.000 C 
BRANCH  24  25
ATOM     25  C   UNL     1       3.896   5.147  17.113  0.00  0.00    +0.000 C 
BRANCH  25  26
ATOM     26  C   UNL     1       3.082   4.058  17.769  0.00  0.00    +0.000 A 
ATOM     27  C   UNL     1       1.697   4.206  17.936  0.00  0.00    +0.000 A 
ATOM     28  C   UNL     1       0.945   3.203  18.548  0.00  0.00    +0.000 A 
ATOM     29  C   UNL     1       1.567   2.044  19.004  0.00  0.00    +0.000 A 
ATOM     30  C   UNL     1       2.945   1.886  18.847  0.00  0.00    +0.000 A 
ATOM     31  C   UNL     1       3.698   2.888  18.236  0.00  0.00    +0.000 A 
ENDBRANCH  25  26
ENDBRANCH  24  25
ENDBRANCH   1  24
TORSDOF 12
ENDMDL
MODEL 2
REMARK VINA RESULT:      -8.7      0.372      1.301
REMARK  Name = 
REMARK  12 active torsions:
REMARK  status: ('A' for Active; 'I' for Inactive)
REMARK    1  A    between atoms: N_1  and  C_2
REMARK    2  A    between atoms: C_2  and  C_3
REMARK    3  A    between atoms: C_2  and  C_11
REMARK    4  A    between atoms: C_2  and  C_14
REMARK    5  A    between atoms: C_3  and  C_4
REMARK    6  A    between atoms: C_4  and  C_5
REMARK    7  A    between atoms: C_11  and  O_13
REMARK    8  A    between atoms: C_15  and  C_16
REMARK    9  A    between atoms: C_16  and  C_17
REMARK   10  A    between atoms: C_17  and  C_18
REMARK   11  A    between atoms: C_24  and  C_25
REMARK   12  A    between atoms: C_25  and  O_27
REMARK                            x       y       z     vdW  Elec       q    Type
REMARK                         _______ _______ _______ _____ _____    ______ ____
ROOT
ATOM      1  C   UNL     1       5.902   5.626  15.864  0.00  0.00    +0.000 C 
ENDROOT
BRANCH   1   2
ATOM      2  N   UNL     1       5.166   6.849  15.453  0.00  0.00    +0.000 NA
ATOM      3  H   UNL     1       5.735   7.659  15.725  0.00  0.00    +0.000 HD
ATOM      4  H   UNL     1       4.355   6.939  16.071  0.00  0.00    +0.000 HD
ENDBRANCH   1   2
BRANCH   1   5
ATOM      5  C   UNL     1       6.979   5.978  16.881  0.00  0.00    +0.000 C 
ATOM      6  C   UNL     1       6.972   7.277  17.668  0.00  0.00    +0.000 C 
ATOM      7  C   UNL     1       6.725   5.956  18.386  0.00  0.00    +0.000 C 
BRANCH   7   8
ATOM      8  C   UNL     1       7.737   5.279  19.243  0.00  0.00    +0.000 C 
ATOM      9  O   UNL     1       7.848   5.509  20.437  0.00  0.00    +0.000 OA
BRANCH   8  10
ATOM     10  O   UNL     1       8.515   4.396  18.580  0.00  0.00    +0.000 OA
ATOM     11  H   UNL     1       8.066   3.967  17.829  0.00  0.00    +0.000 HD
ENDBRANCH   8  10
ENDBRANCH   7   8
BRANCH   6  12
ATOM     12  C   UNL     1       8.228   8.074  17.910  0.00  0.00    +0.000 C 
BRANCH  12  13
ATOM     13  C   UNL     1       8.010   9.588  17.808  0.00  0.00    +0.000 C 
BRANCH  13  14
ATOM     14  C   UNL     1       9.115  10.375  18.479  0.00  0.00    +0.000 A 
ATOM     15  C   UNL     1       9.206  10.435  19.878  0.00  0.00    +0.000 A 
ATOM     16  C   UNL     1      10.205  11.190  20.496  0.00  0.00    +0.000 A 
ATOM     17  C   UNL     1      11.137  11.878  19.724  0.00  0.00    +0.000 A 
ATOM     18  C   UNL     1      11.077  11.801  18.333  0.00  0.00    +0.000 A 
ATOM     19  C   UNL     1      10.074  11.052  17.714  0.00  0.00    +0.000 A 
ENDBRANCH  13  14
ENDBRANCH  12  13
ENDBRANCH   6  12
ENDBRANCH   1   5
BRANCH   1  20
ATOM     20  C   UNL     1       6.548   4.995  14.585  0.00  0.00    +0.000 C 
ATOM     21  O   UNL     1       5.973   4.179  13.874  0.00  0.00    +0.000 OA
BRANCH  20  22
ATOM     22  O   UNL     1       7.792   5.437  14.294  0.00  0.00    +0.000 OA
ATOM     23  H   UNL     1       8.447   4.739  14.107  0.00  0.00    +0.000 HD
ENDBRANCH  20  22
ENDBRANCH   1  20
BRANCH   1  24
ATOM     24  C   UNL     1       4.889   4.609  16.450  0.00  0.00    +0.000 C 
BRANCH  24  25
ATOM     25  C   UNL     1       3.749   5.236  17.267  0.00  0.00    +0.000 C 
BRANCH  25  26
ATOM     26  C   UNL     1       2.963   4.190  18.018  0.00  0.00    +0.000 A 
ATOM     27  C   UNL     1       3.262   2.828  17.868  0.00  0.00    +0.000 A 
ATOM     28  C   UNL     1       2.531   1.860  18.559  0.00  0.00    +0.000 A 
ATOM     29  C   UNL     1       1.491   2.240  19.402  0.00  0.00    +0.000 A 
ATOM     30  C   UNL     1       1.180   3.592  19.556  0.00  0.00    +0.000 A 
ATOM     31  C   UNL     1       1.909   4.560  18.868  0.00  0.00    +0.000 A 
ENDBRANCH  25  26
ENDBRANCH  24  25
ENDBRANCH   1  24
TORSDOF 12
ENDMDL
MODEL 3
REMARK VINA RESULT:      -8.5      0.982      1.309
REMARK  Name = 
REMARK  12 active torsions:
REMARK  status: ('A' for Active; 'I' for Inactive)
REMARK    1  A    between atoms: N_1  and  C_2
REMARK    2  A    between atoms: C_2  and  C_3
REMARK    3  A    between atoms: C_2  and  C_11
REMARK    4  A    between atoms: C_2  and  C_14
REMARK    5  A    between atoms: C_3  and  C_4
REMARK    6  A    between atoms: C_4  and  C_5
REMARK    7  A    between atoms: C_11  and  O_13
REMARK    8  A    between atoms: C_15  and  C_16
REMARK    9  A    between atoms: C_16  and  C_17
REMARK   10  A    between atoms: C_17  and  C_18
REMARK   11  A    between atoms: C_24  and  C_25
REMARK   12  A    between atoms: C_25  and  O_27
REMARK                            x       y       z     vdW  Elec       q    Type
REMARK                         _______ _______ _______ _____ _____    ______ ____
ROOT
ATOM      1  C   UNL     1       5.483   5.792  16.147  0.00  0.00    +0.000 C 
ENDROOT
BRANCH   1   2
ATOM      2  N   UNL     1       5.292   6.884  15.158  0.00  0.00    +0.000 NA
ATOM      3  H   UNL     1       4.286   7.076  15.099  0.00  0.00    +0.000 HD
ATOM      4  H   UNL     1       5.492   6.496  14.232  0.00  0.00    +0.000 HD
ENDBRANCH   1   2
BRANCH   1   5
ATOM      5  C   UNL     1       6.696   6.081  17.021  0.00  0.00    +0.000 C 
ATOM      6  C   UNL     1       6.837   7.356  17.834  0.00  0.00    +0.000 C 
ATOM      7  C   UNL     1       6.641   6.023  18.546  0.00  0.00    +0.000 C 
BRANCH   7   8
ATOM      8  C   UNL     1       7.733   5.290  19.244  0.00  0.00    +0.000 C 
ATOM      9  O   UNL     1       8.011   5.486  20.417  0.00  0.00    +0.000 OA
BRANCH   8  10
ATOM     10  O   UNL     1       8.381   4.399  18.465  0.00  0.00    +0.000 OA
ATOM     11  H   UNL     1       8.566   4.728  17.566  0.00  0.00    +0.000 HD
ENDBRANCH   8  10
ENDBRANCH   7   8
BRANCH   6  12
ATOM     12  C   UNL     1       8.141   8.106  17.927  0.00  0.00    +0.000 C 
BRANCH  12  13
ATOM     13  C   UNL     1       7.974   9.624  17.791  0.00  0.00    +0.000 C 
BRANCH  13  14
ATOM     14  C   UNL     1       9.100  10.389  18.452  0.00  0.00    +0.000 A 
ATOM     15  C   UNL     1      10.078  11.035  17.681  0.00  0.00    +0.000 A 
ATOM     16  C   UNL     1      11.137  11.710  18.292  0.00  0.00    +0.000 A 
ATOM     17  C   UNL     1      11.219  11.765  19.680  0.00  0.00    +0.000 A 
ATOM     18  C   UNL     1      10.238  11.154  20.458  0.00  0.00    +0.000 A 
ATOM     19  C   UNL     1       9.182  10.472  19.848  0.00  0.00    +0.000 A 
ENDBRANCH  13  14
ENDBRANCH  12  13
ENDBRANCH   6  12
ENDBRANCH   1   5
BRANCH   1  20
ATOM     20  C   UNL     1       5.687   4.455  15.360  0.00  0.00    +0.000 C 
ATOM     21  O   UNL     1       5.229   4.257  14.240  0.00  0.00    +0.000 OA
BRANCH  20  22
ATOM     22  O   UNL     1       6.437   3.526  15.993  0.00  0.00    +0.000 OA
ATOM     23  H   UNL     1       7.223   3.872  16.457  0.00  0.00    +0.000 HD
ENDBRANCH  20  22
ENDBRANCH   1  20
BRANCH   1  24
ATOM     24  C   UNL     1       4.195   5.663  17.001  0.00  0.00    +0.000 C 
BRANCH  24  25
ATOM     25  C   UNL     1       3.623   4.239  17.090  0.00  0.00    +0.000 C 
BRANCH  25  26
ATOM     26  C   UNL     1       2.687   4.088  18.263  0.00  0.00    +0.000 A 
ATOM     27  C   UNL     1       1.820   2.988  18.347  0.00  0.00    +0.000 A 
ATOM     28  C   UNL     1       0.948   2.852  19.429  0.00  0.00    +0.000 A 
ATOM     29  C   UNL     1       0.929   3.813  20.436  0.00  0.00    +0.000 A 
ATOM     30  C   UNL     1       1.784   4.914  20.362  0.00  0.00    +0.000 A 
ATOM     31  C   UNL     1       2.655   5.052  19.282  0.00  0.00    +0.000 A 
ENDBRANCH  25  26
ENDBRANCH  24  25
ENDBRANCH   1  24
TORSDOF 12
ENDMDL
MODEL 4
REMARK VINA RESULT:      -8.4      0.912      1.461
REMARK  Name = 
REMARK  12 active torsions:
REMARK  status: ('A' for Active; 'I' for Inactive)
REMARK    1  A    between atoms: N_1  and  C_2
REMARK    2  A    between atoms: C_2  and  C_3
REMARK    3  A    between atoms: C_2  and  C_11
REMARK    4  A    between atoms: C_2  and  C_14
REMARK    5  A    between atoms: C_3  and  C_4
REMARK    6  A    between atoms: C_4  and  C_5
REMARK    7  A    between atoms: C_11  and  O_13
REMARK    8  A    between atoms: C_15  and  C_16
REMARK    9  A    between atoms: C_16  and  C_17
REMARK   10  A    between atoms: C_17  and  C_18
REMARK   11  A    between atoms: C_24  and  C_25
REMARK   12  A    between atoms: C_25  and  O_27
REMARK                            x       y       z     vdW  Elec       q    Type
REMARK                         _______ _______ _______ _____ _____    ______ ____
ROOT
ATOM      1  C   UNL     1       6.158   5.420  15.855  0.00  0.00    +0.000 C 
ENDROOT
BRANCH   1   2
ATOM      2  N   UNL     1       5.231   6.534  15.532  0.00  0.00    +0.000 NA
ATOM      3  H   UNL     1       5.065   7.061  16.396  0.00  0.00    +0.000 HD
ATOM      4  H   UNL     1       4.310   6.123  15.351  0.00  0.00    +0.000 HD
ENDBRANCH   1   2
BRANCH   1   5
ATOM      5  C   UNL     1       7.155   5.859  16.919  0.00  0.00    +0.000 C 
ATOM      6  C   UNL     1       7.061   7.198  17.629  0.00  0.00    +0.000 C 
ATOM      7  C   UNL     1       6.801   5.913  18.404  0.00  0.00    +0.000 C 
BRANCH   7   8
ATOM      8  C   UNL     1       7.769   5.313  19.362  0.00  0.00    +0.000 C 
ATOM      9  O   UNL     1       7.761   5.574  20.555  0.00  0.00    +0.000 OA
BRANCH   8  10
ATOM     10  O   UNL     1       8.651   4.465  18.793  0.00  0.00    +0.000 OA
ATOM     11  H   UNL     1       9.407   4.912  18.370  0.00  0.00    +0.000 HD
ENDBRANCH   8  10
ENDBRANCH   7   8
BRANCH   6  12
ATOM     12  C   UNL     1       8.278   8.043  17.908  0.00  0.00    +0.000 C 
BRANCH  12  13
ATOM     13  C   UNL     1       7.992   9.549  17.849  0.00  0.00    +0.000 C 
BRANCH  13  14
ATOM     14  C   UNL     1       9.086  10.368  18.499  0.00  0.00    +0.000 A 
ATOM     15  C   UNL     1      10.030  11.052  17.718  0.00  0.00    +0.000 A 
ATOM     16  C   UNL     1      11.061  11.778  18.318  0.00  0.00    +0.000 A 
ATOM     17  C   UNL     1      11.148  11.847  19.705  0.00  0.00    +0.000 A 
ATOM     18  C   UNL     1      10.198  11.199  20.493  0.00  0.00    +0.000 A 
ATOM     19  C   UNL     1       9.171  10.466  19.894  0.00  0.00    +0.000 A 
ENDBRANCH  13  14
ENDBRANCH  12  13
ENDBRANCH   6  12
ENDBRANCH   1   5
BRANCH   1  20
ATOM     20  C   UNL     1       6.908   5.015  14.543  0.00  0.00    +0.000 C 
ATOM     21  O   UNL     1       7.972   5.516  14.194  0.00  0.00    +0.000 OA
BRANCH  20  22
ATOM     22  O   UNL     1       6.313   4.041  13.820  0.00  0.00    +0.000 OA
ATOM     23  H   UNL     1       5.592   4.340  13.235  0.00  0.00    +0.000 HD
ENDBRANCH  20  22
ENDBRANCH   1  20
BRANCH   1  24
ATOM     24  C   UNL     1       5.325   4.203  16.335  0.00  0.00    +0.000 C 
BRANCH  24  25
ATOM     25  C   UNL     1       3.816   4.465  16.459  0.00  0.00    +0.000 C 
BRANCH  25  26
ATOM     26  C   UNL     1       3.371   4.481  17.901  0.00  0.00    +0.000 A 
ATOM     27  C   UNL     1       3.660   3.400  18.748  0.00  0.00    +0.000 A 
ATOM     28  C   UNL     1       3.242   3.411  20.080  0.00  0.00    +0.000 A 
ATOM     29  C   UNL     1       2.529   4.497  20.579  0.00  0.00    +0.000 A 
ATOM     30  C   UNL     1       2.232   5.576  19.746  0.00  0.00    +0.000 A 
ATOM     31  C   UNL     1       2.648   5.567  18.415  0.00  0.00    +0.000 A 
ENDBRANCH  25  26
ENDBRANCH  24  25
ENDBRANCH   1  24
TORSDOF 12
ENDMDL
MODEL 5
REMARK VINA RESULT:      -8.4      3.531      6.333
REMARK  Name = 
REMARK  12 active torsions:
REMARK  status: ('A' for Active; 'I' for Inactive)
REMARK    1  A    between atoms: N_1  and  C_2
REMARK    2  A    between atoms: C_2  and  C_3
REMARK    3  A    between atoms: C_2  and  C_11
REMARK    4  A    between atoms: C_2  and  C_14
REMARK    5  A    between atoms: C_3  and  C_4
REMARK    6  A    between atoms: C_4  and  C_5
REMARK    7  A    between atoms: C_11  and  O_13
REMARK    8  A    between atoms: C_15  and  C_16
REMARK    9  A    between atoms: C_16  and  C_17
REMARK   10  A    between atoms: C_17  and  C_18
REMARK   11  A    between atoms: C_24  and  C_25
REMARK   12  A    between atoms: C_25  and  O_27
REMARK                            x       y       z     vdW  Elec       q    Type
REMARK                         _______ _______ _______ _____ _____    ______ ____
ROOT
ATOM      1  C   UNL     1       6.185   5.578  17.802  0.00  0.00    +0.000 C 
ENDROOT
BRANCH   1   2
ATOM      2  N   UNL     1       5.789   6.823  17.096  0.00  0.00    +0.000 NA
ATOM      3  H   UNL     1       6.451   6.967  16.326  0.00  0.00    +0.000 HD
ATOM      4  H   UNL     1       6.006   7.609  17.716  0.00  0.00    +0.000 HD
ENDBRANCH   1   2
BRANCH   1   5
ATOM      5  C   UNL     1       4.975   4.951  18.481  0.00  0.00    +0.000 C 
ATOM      6  C   UNL     1       3.607   4.886  17.823  0.00  0.00    +0.000 C 
ATOM      7  C   UNL     1       4.399   3.604  18.051  0.00  0.00    +0.000 C 
BRANCH   7   8
ATOM      8  C   UNL     1       4.086   2.618  19.121  0.00  0.00    +0.000 C 
ATOM      9  O   UNL     1       4.792   2.472  20.107  0.00  0.00    +0.000 OA
BRANCH   8  10
ATOM     10  O   UNL     1       2.961   1.906  18.900  0.00  0.00    +0.000 OA
ATOM     11  H   UNL     1       2.941   1.051  19.367  0.00  0.00    +0.000 HD
ENDBRANCH   8  10
ENDBRANCH   7   8
BRANCH   6  12
ATOM     12  C   UNL     1       2.338   5.164  18.586  0.00  0.00    +0.000 C 
BRANCH  12  13
ATOM     13  C   UNL     1       2.541   6.127  19.763  0.00  0.00    +0.000 C 
BRANCH  13  14
ATOM     14  C   UNL     1       2.057   7.526  19.452  0.00  0.00    +0.000 A 
ATOM     15  C   UNL     1       2.238   8.081  18.175  0.00  0.00    +0.000 A 
ATOM     16  C   UNL     1       1.824   9.385  17.899  0.00  0.00    +0.000 A 
ATOM     17  C   UNL     1       1.205  10.144  18.888  0.00  0.00    +0.000 A 
ATOM     18  C   UNL     1       0.990   9.594  20.151  0.00  0.00    +0.000 A 
ATOM     19  C   UNL     1       1.411   8.292  20.431  0.00  0.00    +0.000 A 
ENDBRANCH  13  14
ENDBRANCH  12  13
ENDBRANCH   6  12
ENDBRANCH   1   5
BRANCH   1  20
ATOM     20  C   UNL     1       7.272   5.948  18.866  0.00  0.00    +0.000 C 
ATOM     21  O   UNL     1       8.127   6.809  18.683  0.00  0.00    +0.000 OA
BRANCH  20  22
ATOM     22  O   UNL     1       7.191   5.267  20.030  0.00  0.00    +0.000 OA
ATOM     23  H   UNL     1       7.671   5.667  20.779  0.00  0.00    +0.000 HD
ENDBRANCH  20  22
ENDBRANCH   1  20
BRANCH   1  24
ATOM     24  C   UNL     1       6.820   4.604  16.776  0.00  0.00    +0.000 C 
BRANCH  24  25
ATOM     25  C   UNL     1       7.366   5.275  15.506  0.00  0.00    +0.000 C 
BRANCH  25  26
ATOM     26  C   UNL     1       6.800   4.646  14.257  0.00  0.00    +0.000 A 
ATOM     27  C   UNL     1       7.535   4.648  13.062  0.00  0.00    +0.000 A 
ATOM     28  C   UNL     1       7.009   4.072  11.905  0.00  0.00    +0.000 A 
ATOM     29  C   UNL     1       5.743   3.493  11.926  0.00  0.00    +0.000 A 
ATOM     30  C   UNL     1       5.000   3.489  13.107  0.00  0.00    +0.000 A 
ATOM     31  C   UNL     1       5.524   4.064  14.265  0.00  0.00    +0.000 A 
ENDBRANCH  25  26
ENDBRANCH  24  25
ENDBRANCH   1  24
TORSDOF 12
ENDMDL
MODEL 6
REMARK VINA RESULT:      -8.3      3.798      6.348
REMARK  Name = 
REMARK  12 active torsions:
REMARK  status: ('A' for Active; 'I' for Inactive)
REMARK    1  A    between atoms: N_1  and  C_2
REMARK    2  A    between atoms: C_2  and  C_3
REMARK    3  A    between atoms: C_2  and  C_11
REMARK    4  A    between atoms: C_2  and  C_14
REMARK    5  A    between atoms: C_3  and  C_4
REMARK    6  A    between atoms: C_4  and  C_5
REMARK    7  A    between atoms: C_11  and  O_13
REMARK    8  A    between atoms: C_15  and  C_16
REMARK    9  A    between atoms: C_16  and  C_17
REMARK   10  A    between atoms: C_17  and  C_18
REMARK   11  A    between atoms: C_24  and  C_25
REMARK   12  A    between atoms: C_25  and  O_27
REMARK                            x       y       z     vdW  Elec       q    Type
REMARK                         _______ _______ _______ _____ _____    ______ ____
ROOT
ATOM      1  C   UNL     1       5.617   5.344  16.273  0.00  0.00    +0.000 C 
ENDROOT
BRANCH   1   2
ATOM      2  N   UNL     1       5.176   6.673  15.778  0.00  0.00    +0.000 NA
ATOM      3  H   UNL     1       4.455   7.020  16.420  0.00  0.00    +0.000 HD
ATOM      4  H   UNL     1       4.641   6.517  14.918  0.00  0.00    +0.000 HD
ENDBRANCH   1   2
BRANCH   1   5
ATOM      5  C   UNL     1       4.741   4.901  17.438  0.00  0.00    +0.000 C 
ATOM      6  C   UNL     1       3.239   4.718  17.312  0.00  0.00    +0.000 C 
ATOM      7  C   UNL     1       4.134   3.503  17.524  0.00  0.00    +0.000 C 
BRANCH   7   8
ATOM      8  C   UNL     1       4.255   2.780  18.819  0.00  0.00    +0.000 C 
ATOM      9  O   UNL     1       3.378   2.048  19.248  0.00  0.00    +0.000 OA
BRANCH   8  10
ATOM     10  O   UNL     1       5.415   3.012  19.470  0.00  0.00    +0.000 OA
ATOM     11  H   UNL     1       6.154   2.455  19.162  0.00  0.00    +0.000 HD
ENDBRANCH   8  10
ENDBRANCH   7   8
BRANCH   6  12
ATOM     12  C   UNL     1       2.284   5.178  18.384  0.00  0.00    +0.000 C 
BRANCH  12  13
ATOM     13  C   UNL     1       2.897   6.215  19.333  0.00  0.00    +0.000 C 
BRANCH  13  14
ATOM     14  C   UNL     1       2.250   7.576  19.195  0.00  0.00    +0.000 A 
ATOM     15  C   UNL     1       1.568   8.159  20.273  0.00  0.00    +0.000 A 
ATOM     16  C   UNL     1       0.941   9.399  20.134  0.00  0.00    +0.000 A 
ATOM     17  C   UNL     1       1.005  10.080  18.921  0.00  0.00    +0.000 A 
ATOM     18  C   UNL     1       1.706   9.526  17.851  0.00  0.00    +0.000 A 
ATOM     19  C   UNL     1       2.328   8.283  17.987  0.00  0.00    +0.000 A 
ENDBRANCH  13  14
ENDBRANCH  12  13
ENDBRANCH   6  12
ENDBRANCH   1   5
BRANCH   1  20
ATOM     20  C   UNL     1       7.108   5.466  16.731  0.00  0.00    +0.000 C 
ATOM     21  O   UNL     1       7.764   4.517  17.148  0.00  0.00    +0.000 OA
BRANCH  20  22
ATOM     22  O   UNL     1       7.647   6.699  16.607  0.00  0.00    +0.000 OA
ATOM     23  H   UNL     1       8.455   6.853  17.130  0.00  0.00    +0.000 HD
ENDBRANCH  20  22
ENDBRANCH   1  20
BRANCH   1  24
ATOM     24  C   UNL     1       5.548   4.328  15.103  0.00  0.00    +0.000 C 
BRANCH  24  25
ATOM     25  C   UNL     1       6.411   4.692  13.885  0.00  0.00    +0.000 C 
BRANCH  25  26
ATOM     26  C   UNL     1       6.284   3.665  12.787  0.00  0.00    +0.000 A 
ATOM     27  C   UNL     1       5.020   3.225  12.365  0.00  0.00    +0.000 A 
ATOM     28  C   UNL     1       4.903   2.271  11.353  0.00  0.00    +0.000 A 
ATOM     29  C   UNL     1       6.043   1.742  10.756  0.00  0.00    +0.000 A 
ATOM     30  C   UNL     1       7.306   2.168  11.169  0.00  0.00    +0.000 A 
ATOM     31  C   UNL     1       7.426   3.122  12.180  0.00  0.00    +0.000 A 
ENDBRANCH  25  26
ENDBRANCH  24  25
ENDBRANCH   1  24
TORSDOF 12
ENDMDL
MODEL 7
REMARK VINA RESULT:      -8.3      3.546      7.227
REMARK  Name = 
REMARK  12 active torsions:
REMARK  status: ('A' for Active; 'I' for Inactive)
REMARK    1  A    between atoms: N_1  and  C_2
REMARK    2  A    between atoms: C_2  and  C_3
REMARK    3  A    between atoms: C_2  and  C_11
REMARK    4  A    between atoms: C_2  and  C_14
REMARK    5  A    between atoms: C_3  and  C_4
REMARK    6  A    between atoms: C_4  and  C_5
REMARK    7  A    between atoms: C_11  and  O_13
REMARK    8  A    between atoms: C_15  and  C_16
REMARK    9  A    between atoms: C_16  and  C_17
REMARK   10  A    between atoms: C_17  and  C_18
REMARK   11  A    between atoms: C_24  and  C_25
REMARK   12  A    between atoms: C_25  and  O_27
REMARK                            x       y       z     vdW  Elec       q    Type
REMARK                         _______ _______ _______ _____ _____    ______ ____
ROOT
ATOM      1  C   UNL     1       6.399   5.797  17.612  0.00  0.00    +0.000 C 
ENDROOT
BRANCH   1   2
ATOM      2  N   UNL     1       6.398   7.174  17.055  0.00  0.00    +0.000 NA
ATOM      3  H   UNL     1       5.421   7.472  16.965  0.00  0.00    +0.000 HD
ATOM      4  H   UNL     1       6.694   7.108  16.076  0.00  0.00    +0.000 HD
ENDBRANCH   1   2
BRANCH   1   5
ATOM      5  C   UNL     1       4.973   5.347  17.901  0.00  0.00    +0.000 C 
ATOM      6  C   UNL     1       3.757   6.055  17.329  0.00  0.00    +0.000 C 
ATOM      7  C   UNL     1       4.105   4.649  16.857  0.00  0.00    +0.000 C 
BRANCH   7   8
ATOM      8  C   UNL     1       3.368   3.428  17.282  0.00  0.00    +0.000 C 
ATOM      9  O   UNL     1       2.201   3.227  16.987  0.00  0.00    +0.000 OA
BRANCH   8  10
ATOM     10  O   UNL     1       4.106   2.572  18.021  0.00  0.00    +0.000 OA
ATOM     11  H   UNL     1       4.197   2.839  18.954  0.00  0.00    +0.000 HD
ENDBRANCH   8  10
ENDBRANCH   7   8
BRANCH   6  12
ATOM     12  C   UNL     1       2.523   6.318  18.153  0.00  0.00    +0.000 C 
BRANCH  12  13
ATOM     13  C   UNL     1       2.770   6.204  19.662  0.00  0.00    +0.000 C 
BRANCH  13  14
ATOM     14  C   UNL     1       2.295   4.882  20.224  0.00  0.00    +0.000 A 
ATOM     15  C   UNL     1       1.012   4.396  19.931  0.00  0.00    +0.000 A 
ATOM     16  C   UNL     1       0.561   3.194  20.479  0.00  0.00    +0.000 A 
ATOM     17  C   UNL     1       1.395   2.452  21.310  0.00  0.00    +0.000 A 
ATOM     18  C   UNL     1       2.684   2.906  21.584  0.00  0.00    +0.000 A 
ATOM     19  C   UNL     1       3.133   4.113  21.043  0.00  0.00    +0.000 A 
ENDBRANCH  13  14
ENDBRANCH  12  13
ENDBRANCH   6  12
ENDBRANCH   1   5
BRANCH   1  20
ATOM     20  C   UNL     1       7.243   5.806  18.929  0.00  0.00    +0.000 C 
ATOM     21  O   UNL     1       8.311   6.399  19.040  0.00  0.00    +0.000 OA
BRANCH  20  22
ATOM     22  O   UNL     1       6.697   5.131  19.965  0.00  0.00    +0.000 OA
ATOM     23  H   UNL     1       7.289   4.990  20.727  0.00  0.00    +0.000 HD
ENDBRANCH  20  22
ENDBRANCH   1  20
BRANCH   1  24
ATOM     24  C   UNL     1       7.090   4.850  16.597  0.00  0.00    +0.000 C 
BRANCH  24  25
ATOM     25  C   UNL     1       7.519   5.520  15.282  0.00  0.00    +0.000 C 
BRANCH  25  26
ATOM     26  C   UNL     1       6.976   4.785  14.081  0.00  0.00    +0.000 A 
ATOM     27  C   UNL     1       5.774   4.067  14.168  0.00  0.00    +0.000 A 
ATOM     28  C   UNL     1       5.275   3.381  13.059  0.00  0.00    +0.000 A 
ATOM     29  C   UNL     1       5.972   3.401  11.854  0.00  0.00    +0.000 A 
ATOM     30  C   UNL     1       7.171   4.109  11.756  0.00  0.00    +0.000 A 
ATOM     31  C   UNL     1       7.671   4.794  12.863  0.00  0.00    +0.000 A 
ENDBRANCH  25  26
ENDBRANCH  24  25
ENDBRANCH   1  24
TORSDOF 12
ENDMDL
MODEL 8
REMARK VINA RESULT:      -8.2      3.809      6.369
REMARK  Name = 
REMARK  12 active torsions:
REMARK  status: ('A' for Active; 'I' for Inactive)
REMARK    1  A    between atoms: N_1  and  C_2
REMARK    2  A    between atoms: C_2  and  C_3
REMARK    3  A    between atoms: C_2  and  C_11
REMARK    4  A    between atoms: C_2  and  C_14
REMARK    5  A    between atoms: C_3  and  C_4
REMARK    6  A    between atoms: C_4  and  C_5
REMARK    7  A    between atoms: C_11  and  O_13
REMARK    8  A    between atoms: C_15  and  C_16
REMARK    9  A    between atoms: C_16  and  C_17
REMARK   10  A    between atoms: C_17  and  C_18
REMARK   11  A    between atoms: C_24  and  C_25
REMARK   12  A    between atoms: C_25  and  O_27
REMARK                            x       y       z     vdW  Elec       q    Type
REMARK                         _______ _______ _______ _____ _____    ______ ____
ROOT
ATOM      1  C   UNL     1       5.639   5.327  16.143  0.00  0.00    +0.000 C 
ENDROOT
BRANCH   1   2
ATOM      2  N   UNL     1       5.183   6.628  15.590  0.00  0.00    +0.000 NA
ATOM      3  H   UNL     1       5.948   7.008  15.021  0.00  0.00    +0.000 HD
ATOM      4  H   UNL     1       5.143   7.294  16.368  0.00  0.00    +0.000 HD
ENDBRANCH   1   2
BRANCH   1   5
ATOM      5  C   UNL     1       4.754   4.915  17.312  0.00  0.00    +0.000 C 
ATOM      6  C   UNL     1       3.261   4.676  17.168  0.00  0.00    +0.000 C 
ATOM      7  C   UNL     1       4.190   3.504  17.458  0.00  0.00    +0.000 C 
BRANCH   7   8
ATOM      8  C   UNL     1       4.308   2.852  18.791  0.00  0.00    +0.000 C 
ATOM      9  O   UNL     1       3.435   2.133  19.251  0.00  0.00    +0.000 OA
BRANCH   8  10
ATOM     10  O   UNL     1       5.460   3.130  19.437  0.00  0.00    +0.000 OA
ATOM     11  H   UNL     1       5.359   3.787  20.150  0.00  0.00    +0.000 HD
ENDBRANCH   8  10
ENDBRANCH   7   8
BRANCH   6  12
ATOM     12  C   UNL     1       2.270   5.158  18.196  0.00  0.00    +0.000 C 
BRANCH  12  13
ATOM     13  C   UNL     1       2.877   6.143  19.203  0.00  0.00    +0.000 C 
BRANCH  13  14
ATOM     14  C   UNL     1       2.234   7.511  19.129  0.00  0.00    +0.000 A 
ATOM     15  C   UNL     1       2.251   8.248  17.936  0.00  0.00    +0.000 A 
ATOM     16  C   UNL     1       1.689   9.525  17.878  0.00  0.00    +0.000 A 
ATOM     17  C   UNL     1       1.085  10.072  19.007  0.00  0.00    +0.000 A 
ATOM     18  C   UNL     1       1.033   9.337  20.190  0.00  0.00    +0.000 A 
ATOM     19  C   UNL     1       1.601   8.063  20.251  0.00  0.00    +0.000 A 
ENDBRANCH  13  14
ENDBRANCH  12  13
ENDBRANCH   6  12
ENDBRANCH   1   5
BRANCH   1  20
ATOM     20  C   UNL     1       7.121   5.493  16.616  0.00  0.00    +0.000 C 
ATOM     21  O   UNL     1       7.678   6.581  16.715  0.00  0.00    +0.000 OA
BRANCH  20  22
ATOM     22  O   UNL     1       7.751   4.342  16.942  0.00  0.00    +0.000 OA
ATOM     23  H   UNL     1       8.626   4.452  17.360  0.00  0.00    +0.000 HD
ENDBRANCH  20  22
ENDBRANCH   1  20
BRANCH   1  24
ATOM     24  C   UNL     1       5.604   4.266  15.013  0.00  0.00    +0.000 C 
BRANCH  24  25
ATOM     25  C   UNL     1       6.237   4.717  13.688  0.00  0.00    +0.000 C 
BRANCH  25  26
ATOM     26  C   UNL     1       6.225   3.612  12.661  0.00  0.00    +0.000 A 
ATOM     27  C   UNL     1       7.426   3.126  12.123  0.00  0.00    +0.000 A 
ATOM     28  C   UNL     1       7.415   2.108  11.167  0.00  0.00    +0.000 A 
ATOM     29  C   UNL     1       6.207   1.569  10.736  0.00  0.00    +0.000 A 
ATOM     30  C   UNL     1       5.005   2.047  11.260  0.00  0.00    +0.000 A 
ATOM     31  C   UNL     1       5.014   3.064  12.215  0.00  0.00    +0.000 A 
ENDBRANCH  25  26
ENDBRANCH  24  25
ENDBRANCH   1  24
TORSDOF 12
ENDMDL
MODEL 9
REMARK VINA RESULT:      -8.2      3.570      6.422
REMARK  Name = 
REMARK  12 active torsions:
REMARK  status: ('A' for Active; 'I' for Inactive)
REMARK    1  A    between atoms: N_1  and  C_2
REMARK    2  A    between atoms: C_2  and  C_3
REMARK    3  A    between atoms: C_2  and  C_11
REMARK    4  A    between atoms: C_2  and  C_14
REMARK    5  A    between atoms: C_3  and  C_4
REMARK    6  A    between atoms: C_4  and  C_5
REMARK    7  A    between atoms: C_11  and  O_13
REMARK    8  A    between atoms: C_15  and  C_16
REMARK    9  A    between atoms: C_16  and  C_17
REMARK   10  A    between atoms: C_17  and  C_18
REMARK   11  A    between atoms: C_24  and  C_25
REMARK   12  A    between atoms: C_25  and  O_27
REMARK                            x       y       z     vdW  Elec       q    Type
REMARK                         _______ _______ _______ _____ _____    ______ ____
ROOT
ATOM      1  C   UNL     1       5.779   5.449  17.854  0.00  0.00    +0.000 C 
ENDROOT
BRANCH   1   2
ATOM      2  N   UNL     1       5.285   6.651  17.135  0.00  0.00    +0.000 NA
ATOM      3  H   UNL     1       4.661   7.159  17.772  0.00  0.00    +0.000 HD
ATOM      4  H   UNL     1       4.636   6.329  16.411  0.00  0.00    +0.000 HD
ENDBRANCH   1   2
BRANCH   1   5
ATOM      5  C   UNL     1       4.697   4.910  18.780  0.00  0.00    +0.000 C 
ATOM      6  C   UNL     1       3.253   4.734  18.342  0.00  0.00    +0.000 C 
ATOM      7  C   UNL     1       4.111   3.508  18.629  0.00  0.00    +0.000 C 
BRANCH   7   8
ATOM      8  C   UNL     1       3.984   2.681  19.860  0.00  0.00    +0.000 C 
ATOM      9  O   UNL     1       2.950   2.615  20.505  0.00  0.00    +0.000 OA
BRANCH   8  10
ATOM     10  O   UNL     1       5.112   2.018  20.194  0.00  0.00    +0.000 OA
ATOM     11  H   UNL     1       5.775   1.990  19.480  0.00  0.00    +0.000 HD
ENDBRANCH   8  10
ENDBRANCH   7   8
BRANCH   6  12
ATOM     12  C   UNL     1       2.095   5.103  19.233  0.00  0.00    +0.000 C 
BRANCH  12  13
ATOM     13  C   UNL     1       2.425   6.238  20.211  0.00  0.00    +0.000 C 
BRANCH  13  14
ATOM     14  C   UNL     1       1.982   7.589  19.694  0.00  0.00    +0.000 A 
ATOM     15  C   UNL     1       2.297   7.997  18.389  0.00  0.00    +0.000 A 
ATOM     16  C   UNL     1       1.919   9.258  17.925  0.00  0.00    +0.000 A 
ATOM     17  C   UNL     1       1.204  10.119  18.752  0.00  0.00    +0.000 A 
ATOM     18  C   UNL     1       0.857   9.715  20.040  0.00  0.00    +0.000 A 
ATOM     19  C   UNL     1       1.241   8.456  20.508  0.00  0.00    +0.000 A 
ENDBRANCH  13  14
ENDBRANCH  12  13
ENDBRANCH   6  12
ENDBRANCH   1   5
BRANCH   1  20
ATOM     20  C   UNL     1       7.043   5.861  18.679  0.00  0.00    +0.000 C 
ATOM     21  O   UNL     1       7.842   6.713  18.304  0.00  0.00    +0.000 OA
BRANCH  20  22
ATOM     22  O   UNL     1       7.186   5.229  19.865  0.00  0.00    +0.000 OA
ATOM     23  H   UNL     1       7.397   4.279  19.805  0.00  0.00    +0.000 HD
ENDBRANCH  20  22
ENDBRANCH   1  20
BRANCH   1  24
ATOM     24  C   UNL     1       6.204   4.384  16.810  0.00  0.00    +0.000 C 
BRANCH  24  25
ATOM     25  C   UNL     1       5.268   4.262  15.598  0.00  0.00    +0.000 C 
BRANCH  25  26
ATOM     26  C   UNL     1       6.032   4.300  14.298  0.00  0.00    +0.000 A 
ATOM     27  C   UNL     1       7.166   5.115  14.161  0.00  0.00    +0.000 A 
ATOM     28  C   UNL     1       7.870   5.155  12.957  0.00  0.00    +0.000 A 
ATOM     29  C   UNL     1       7.448   4.388  11.875  0.00  0.00    +0.000 A 
ATOM     30  C   UNL     1       6.319   3.577  11.996  0.00  0.00    +0.000 A 
ATOM     31  C   UNL     1       5.614   3.535  13.199  0.00  0.00    +0.000 A 
ENDBRANCH  25  26
ENDBRANCH  24  25
ENDBRANCH   1  24
TORSDOF 12
ENDMDL
