MODEL 1
REMARK VINA RESULT:      -7.8      0.000      0.000
REMARK  Name = 
REMARK  10 active torsions:
REMARK  status: ('A' for Active; 'I' for Inactive)
REMARK    1  A    between atoms: C_1  and  C_2
REMARK    2  A    between atoms: C_2  and  C_3
REMARK    3  A    between atoms: C_9  and  C_11
REMARK    4  A    between atoms: C_11  and  O_12
REMARK    5  A    between atoms: O_12  and  C_13
REMARK    6  A    between atoms: C_16  and  N_17
REMARK    7  A    between atoms: N_17  and  C_18
REMARK    8  A    between atoms: N_17  and  S_19
REMARK    9  A    between atoms: S_19  and  C_22
REMARK   10  A    between atoms: C_25  and  C_26
REMARK                            x       y       z     vdW  Elec       q    Type
REMARK                         _______ _______ _______ _____ _____    ______ ____
ROOT
ATOM      1  C   UNL     1       2.117   7.489  19.046  0.00  0.00    +0.000 A 
ATOM      2  C   UNL     1       2.061   6.850  20.287  0.00  0.00    +0.000 A 
ATOM      3  C   UNL     1       2.063   5.456  20.381  0.00  0.00    +0.000 A 
ATOM      4  C   UNL     1       2.097   4.684  19.222  0.00  0.00    +0.000 A 
ATOM      5  C   UNL     1       2.109   5.318  17.973  0.00  0.00    +0.000 A 
ATOM      6  C   UNL     1       2.120   6.718  17.884  0.00  0.00    +0.000 A 
ENDROOT
BRANCH   4   7
ATOM      7  N   UNL     1       2.156   3.249  19.263  0.00  0.00    +0.000 N 
ATOM      8  C   UNL     1       1.042   2.512  18.646  0.00  0.00    +0.000 C 
BRANCH   7   9
ATOM      9  S   UNL     1       3.684   2.496  19.222  0.00  0.00    +0.000 S 
ATOM     10  O   UNL     1       4.101   2.175  20.568  0.00  0.00    +0.000 OA
ATOM     11  O   UNL     1       3.631   1.458  18.202  0.00  0.00    +0.000 OA
BRANCH   9  12
ATOM     12  C   UNL     1       4.800   3.752  18.601  0.00  0.00    +0.000 A 
ATOM     13  C   UNL     1       4.940   3.923  17.221  0.00  0.00    +0.000 A 
ATOM     14  C   UNL     1       5.773   4.932  16.732  0.00  0.00    +0.000 A 
ATOM     15  C   UNL     1       6.449   5.790  17.611  0.00  0.00    +0.000 A 
ATOM     16  C   UNL     1       7.340   6.879  17.085  0.00  0.00    +0.000 C 
ATOM     17  C   UNL     1       6.265   5.636  18.991  0.00  0.00    +0.000 A 
ATOM     18  C   UNL     1       5.437   4.626  19.487  0.00  0.00    +0.000 A 
ENDBRANCH   9  12
ENDBRANCH   7   9
ENDBRANCH   4   7
BRANCH   1  19
ATOM     19  O   UNL     1       2.144   8.855  19.102  0.00  0.00    +0.000 OA
BRANCH  19  20
ATOM     20  C   UNL     1       0.944   9.545  18.744  0.00  0.00    +0.000 C 
BRANCH  20  27
ATOM     21  C   UNL     1      -0.127  12.268  21.401  0.00  0.00    +0.000 C 
ATOM     22  C   UNL     1      -1.187  13.211  20.791  0.00  0.00    +0.000 C 
ATOM     23  C   UNL     1      -0.565  14.162  19.766  0.00  0.00    +0.000 C 
ATOM     24  C   UNL     1       0.226  13.398  18.708  0.00  0.00    +0.000 C 
ATOM     25  C   UNL     1       1.243  12.471  19.369  0.00  0.00    +0.000 C 
ATOM     26  N   UNL     1       0.569  11.548  20.289  0.00  0.00    +0.000 N 
ATOM     27  C   UNL     1       0.359  10.191  20.017  0.00  0.00    +0.000 C 
ATOM     28  O   UNL     1      -0.272   9.457  20.785  0.00  0.00    +0.000 OA
BRANCH  21  30
ATOM     29  C   UNL     1      -2.119  11.847  22.976  0.00  0.00    +0.000 C 
ATOM     30  C   UNL     1      -0.715  11.424  22.554  0.00  0.00    +0.000 C 
ENDBRANCH  21  30
ENDBRANCH  20  27
ENDBRANCH  19  20
ENDBRANCH   1  19
TORSDOF 7
ENDMDL
MODEL 2
REMARK VINA RESULT:      -7.8      4.932      7.568
REMARK  Name = 
REMARK  10 active torsions:
REMARK  status: ('A' for Active; 'I' for Inactive)
REMARK    1  A    between atoms: C_1  and  C_2
REMARK    2  A    between atoms: C_2  and  C_3
REMARK    3  A    between atoms: C_9  and  C_11
REMARK    4  A    between atoms: C_11  and  O_12
REMARK    5  A    between atoms: O_12  and  C_13
REMARK    6  A    between atoms: C_16  and  N_17
REMARK    7  A    between atoms: N_17  and  C_18
REMARK    8  A    between atoms: N_17  and  S_19
REMARK    9  A    between atoms: S_19  and  C_22
REMARK   10  A    between atoms: C_25  and  C_26
REMARK                            x       y       z     vdW  Elec       q    Type
REMARK                         _______ _______ _______ _____ _____    ______ ____
ROOT
ATOM      1  C   UNL     1       8.237   7.672  18.566  0.00  0.00    +0.000 A 
ATOM      2  C   UNL     1       7.445   7.996  17.461  0.00  0.00    +0.000 A 
ATOM      3  C   UNL     1       6.571   7.061  16.901  0.00  0.00    +0.000 A 
ATOM      4  C   UNL     1       6.501   5.775  17.432  0.00  0.00    +0.000 A 
ATOM      5  C   UNL     1       7.323   5.430  18.512  0.00  0.00    +0.000 A 
ATOM      6  C   UNL     1       8.190   6.377  19.080  0.00  0.00    +0.000 A 
ENDROOT
BRANCH   4   7
ATOM      7  N   UNL     1       5.581   4.792  16.929  0.00  0.00    +0.000 N 
ATOM      8  C   UNL     1       6.055   3.922  15.841  0.00  0.00    +0.000 C 
BRANCH   7   9
ATOM      9  S   UNL     1       4.444   4.118  18.004  0.00  0.00    +0.000 S 
ATOM     10  O   UNL     1       3.567   3.226  17.280  0.00  0.00    +0.000 OA
ATOM     11  O   UNL     1       5.173   3.643  19.171  0.00  0.00    +0.000 OA
BRANCH   9  12
ATOM     12  C   UNL     1       3.456   5.504  18.559  0.00  0.00    +0.000 A 
ATOM     13  C   UNL     1       2.936   5.500  19.856  0.00  0.00    +0.000 A 
ATOM     14  C   UNL     1       2.205   6.600  20.312  0.00  0.00    +0.000 A 
ATOM     15  C   UNL     1       2.009   7.717  19.489  0.00  0.00    +0.000 A 
ATOM     16  C   UNL     1       1.227   8.903  19.979  0.00  0.00    +0.000 C 
ATOM     17  C   UNL     1       2.573   7.728  18.206  0.00  0.00    +0.000 A 
ATOM     18  C   UNL     1       3.302   6.630  17.744  0.00  0.00    +0.000 A 
ENDBRANCH   9  12
ENDBRANCH   7   9
ENDBRANCH   4   7
BRANCH   1  19
ATOM     19  O   UNL     1       9.018   8.692  19.033  0.00  0.00    +0.000 OA
BRANCH  19  20
ATOM     20  C   UNL     1       8.890   9.959  18.384  0.00  0.00    +0.000 C 
BRANCH  20  27
ATOM     21  C   UNL     1      10.886  13.037  19.859  0.00  0.00    +0.000 C 
ATOM     22  C   UNL     1      10.554  14.313  19.055  0.00  0.00    +0.000 C 
ATOM     23  C   UNL     1      11.210  14.290  17.673  0.00  0.00    +0.000 C 
ATOM     24  C   UNL     1      10.867  13.010  16.917  0.00  0.00    +0.000 C 
ATOM     25  C   UNL     1      11.199  11.785  17.766  0.00  0.00    +0.000 C 
ATOM     26  N   UNL     1      10.487  11.844  19.047  0.00  0.00    +0.000 N 
ATOM     27  C   UNL     1       9.376  11.053  19.359  0.00  0.00    +0.000 C 
ATOM     28  O   UNL     1       8.759  11.177  20.423  0.00  0.00    +0.000 OA
BRANCH  21  30
ATOM     29  C   UNL     1       9.812  14.501  21.683  0.00  0.00    +0.000 C 
ATOM     30  C   UNL     1      10.369  13.130  21.311  0.00  0.00    +0.000 C 
ENDBRANCH  21  30
ENDBRANCH  20  27
ENDBRANCH  19  20
ENDBRANCH   1  19
TORSDOF 7
ENDMDL
MODEL 3
REMARK VINA RESULT:      -7.8      1.267      2.113
REMARK  Name = 
REMARK  10 active torsions:
REMARK  status: ('A' for Active; 'I' for Inactive)
REMARK    1  A    between atoms: C_1  and  C_2
REMARK    2  A    between atoms: C_2  and  C_3
REMARK    3  A    between atoms: C_9  and  C_11
REMARK    4  A    between atoms: C_11  and  O_12
REMARK    5  A    between atoms: O_12  and  C_13
REMARK    6  A    between atoms: C_16  and  N_17
REMARK    7  A    between atoms: N_17  and  C_18
REMARK    8  A    between atoms: N_17  and  S_19
REMARK    9  A    between atoms: S_19  and  C_22
REMARK   10  A    between atoms: C_25  and  C_26
REMARK                            x       y       z     vdW  Elec       q    Type
REMARK                         _______ _______ _______ _____ _____    ______ ____
ROOT
ATOM      1  C   UNL     1       2.036   7.311  19.759  0.00  0.00    +0.000 A 
ATOM      2  C   UNL     1       1.926   6.451  20.854  0.00  0.00    +0.000 A 
ATOM      3  C   UNL     1       1.973   5.064  20.689  0.00  0.00    +0.000 A 
ATOM      4  C   UNL     1       2.107   4.523  19.413  0.00  0.00    +0.000 A 
ATOM      5  C   UNL     1       2.174   5.379  18.306  0.00  0.00    +0.000 A 
ATOM      6  C   UNL     1       2.140   6.771  18.478  0.00  0.00    +0.000 A 
ENDROOT
BRANCH   4   7
ATOM      7  N   UNL     1       2.215   3.108  19.192  0.00  0.00    +0.000 N 
ATOM      8  C   UNL     1       1.115   2.454  18.466  0.00  0.00    +0.000 C 
BRANCH   7   9
ATOM      9  S   UNL     1       3.767   2.431  18.994  0.00  0.00    +0.000 S 
ATOM     10  O   UNL     1       4.262   1.977  20.273  0.00  0.00    +0.000 OA
ATOM     11  O   UNL     1       3.702   1.514  17.864  0.00  0.00    +0.000 OA
BRANCH   9  12
ATOM     12  C   UNL     1       4.802   3.796  18.473  0.00  0.00    +0.000 A 
ATOM     13  C   UNL     1       5.463   4.562  19.438  0.00  0.00    +0.000 A 
ATOM     14  C   UNL     1       6.309   5.598  19.036  0.00  0.00    +0.000 A 
ATOM     15  C   UNL     1       6.520   5.862  17.676  0.00  0.00    +0.000 A 
ATOM     16  C   UNL     1       7.434   6.973  17.242  0.00  0.00    +0.000 C 
ATOM     17  C   UNL     1       5.886   5.059  16.718  0.00  0.00    +0.000 A 
ATOM     18  C   UNL     1       5.035   4.024  17.113  0.00  0.00    +0.000 A 
ENDBRANCH   9  12
ENDBRANCH   7   9
ENDBRANCH   4   7
BRANCH   1  19
ATOM     19  O   UNL     1       2.011   8.643  20.068  0.00  0.00    +0.000 OA
BRANCH  19  20
ATOM     20  C   UNL     1       0.869   9.123  20.782  0.00  0.00    +0.000 C 
BRANCH  20  27
ATOM     21  C   UNL     1      -0.085  12.467  18.903  0.00  0.00    +0.000 C 
ATOM     22  C   UNL     1      -1.617  12.562  18.741  0.00  0.00    +0.000 C 
ATOM     23  C   UNL     1      -2.130  11.583  17.683  0.00  0.00    +0.000 C 
ATOM     24  C   UNL     1      -1.653  10.162  17.965  0.00  0.00    +0.000 C 
ATOM     25  C   UNL     1      -0.135  10.133  18.132  0.00  0.00    +0.000 C 
ATOM     26  N   UNL     1       0.277  11.047  19.204  0.00  0.00    +0.000 N 
ATOM     27  C   UNL     1       0.700  10.624  20.469  0.00  0.00    +0.000 C 
ATOM     28  O   UNL     1       0.975  11.424  21.370  0.00  0.00    +0.000 OA
BRANCH  21  30
ATOM     29  C   UNL     1       1.732  14.237  19.341  0.00  0.00    +0.000 C 
ATOM     30  C   UNL     1       0.456  13.567  19.843  0.00  0.00    +0.000 C 
ENDBRANCH  21  30
ENDBRANCH  20  27
ENDBRANCH  19  20
ENDBRANCH   1  19
TORSDOF 7
ENDMDL
MODEL 4
REMARK VINA RESULT:      -7.7      2.780      8.589
REMARK  Name = 
REMARK  10 active torsions:
REMARK  status: ('A' for Active; 'I' for Inactive)
REMARK    1  A    between atoms: C_1  and  C_2
REMARK    2  A    between atoms: C_2  and  C_3
REMARK    3  A    between atoms: C_9  and  C_11
REMARK    4  A    between atoms: C_11  and  O_12
REMARK    5  A    between atoms: O_12  and  C_13
REMARK    6  A    between atoms: C_16  and  N_17
REMARK    7  A    between atoms: N_17  and  C_18
REMARK    8  A    between atoms: N_17  and  S_19
REMARK    9  A    between atoms: S_19  and  C_22
REMARK   10  A    between atoms: C_25  and  C_26
REMARK                            x       y       z     vdW  Elec       q    Type
REMARK                         _______ _______ _______ _____ _____    ______ ____
ROOT
ATOM      1  C   UNL     1       2.745   5.316  19.014  0.00  0.00    +0.000 A 
ATOM      2  C   UNL     1       2.203   5.541  20.282  0.00  0.00    +0.000 A 
ATOM      3  C   UNL     1       1.662   6.783  20.626  0.00  0.00    +0.000 A 
ATOM      4  C   UNL     1       1.681   7.825  19.702  0.00  0.00    +0.000 A 
ATOM      5  C   UNL     1       2.261   7.620  18.444  0.00  0.00    +0.000 A 
ATOM      6  C   UNL     1       2.792   6.367  18.099  0.00  0.00    +0.000 A 
ENDROOT
BRANCH   4   7
ATOM      7  N   UNL     1       1.090   9.104  19.983  0.00  0.00    +0.000 N 
ATOM      8  C   UNL     1       1.159   9.586  21.372  0.00  0.00    +0.000 C 
BRANCH   7   9
ATOM      9  S   UNL     1       1.103  10.293  18.762  0.00  0.00    +0.000 S 
ATOM     10  O   UNL     1       1.641  11.524  19.294  0.00  0.00    +0.000 OA
ATOM     11  O   UNL     1       1.685   9.690  17.572  0.00  0.00    +0.000 OA
BRANCH   9  12
ATOM     12  C   UNL     1      -0.624  10.583  18.384  0.00  0.00    +0.000 A 
ATOM     13  C   UNL     1      -1.267   9.768  17.448  0.00  0.00    +0.000 A 
ATOM     14  C   UNL     1      -2.625   9.959  17.183  0.00  0.00    +0.000 A 
ATOM     15  C   UNL     1      -3.354  10.943  17.865  0.00  0.00    +0.000 A 
ATOM     16  C   UNL     1      -4.817  11.145  17.586  0.00  0.00    +0.000 C 
ATOM     17  C   UNL     1      -2.709  11.723  18.834  0.00  0.00    +0.000 A 
ATOM     18  C   UNL     1      -1.349  11.540  19.100  0.00  0.00    +0.000 A 
ENDBRANCH   9  12
ENDBRANCH   7   9
ENDBRANCH   4   7
BRANCH   1  19
ATOM     19  O   UNL     1       3.206   4.047  18.802  0.00  0.00    +0.000 OA
BRANCH  19  20
ATOM     20  C   UNL     1       4.430   3.684  19.446  0.00  0.00    +0.000 C 
BRANCH  20  27
ATOM     21  C   UNL     1       7.005   5.629  17.164  0.00  0.00    +0.000 C 
ATOM     22  C   UNL     1       6.249   6.432  16.083  0.00  0.00    +0.000 C 
ATOM     23  C   UNL     1       5.677   5.512  15.002  0.00  0.00    +0.000 C 
ATOM     24  C   UNL     1       4.830   4.399  15.612  0.00  0.00    +0.000 C 
ATOM     25  C   UNL     1       5.622   3.654  16.685  0.00  0.00    +0.000 C 
ATOM     26  N   UNL     1       6.084   4.588  17.717  0.00  0.00    +0.000 N 
ATOM     27  C   UNL     1       5.525   4.674  18.997  0.00  0.00    +0.000 C 
ATOM     28  O   UNL     1       5.894   5.519  19.820  0.00  0.00    +0.000 OA
BRANCH  21  30
ATOM     29  C   UNL     1       7.844   8.007  17.685  0.00  0.00    +0.000 C 
ATOM     30  C   UNL     1       7.727   6.562  18.162  0.00  0.00    +0.000 C 
ENDBRANCH  21  30
ENDBRANCH  20  27
ENDBRANCH  19  20
ENDBRANCH   1  19
TORSDOF 7
ENDMDL
MODEL 5
REMARK VINA RESULT:      -7.7      1.190      1.834
REMARK  Name = 
REMARK  10 active torsions:
REMARK  status: ('A' for Active; 'I' for Inactive)
REMARK    1  A    between atoms: C_1  and  C_2
REMARK    2  A    between atoms: C_2  and  C_3
REMARK    3  A    between atoms: C_9  and  C_11
REMARK    4  A    between atoms: C_11  and  O_12
REMARK    5  A    between atoms: O_12  and  C_13
REMARK    6  A    between atoms: C_16  and  N_17
REMARK    7  A    between atoms: N_17  and  C_18
REMARK    8  A    between atoms: N_17  and  S_19
REMARK    9  A    between atoms: S_19  and  C_22
REMARK   10  A    between atoms: C_25  and  C_26
REMARK                            x       y       z     vdW  Elec       q    Type
REMARK                         _______ _______ _______ _____ _____    ______ ____
ROOT
ATOM      1  C   UNL     1       1.911   7.544  19.481  0.00  0.00    +0.000 A 
ATOM      2  C   UNL     1       2.097   6.949  18.230  0.00  0.00    +0.000 A 
ATOM      3  C   UNL     1       2.221   5.563  18.102  0.00  0.00    +0.000 A 
ATOM      4  C   UNL     1       2.184   4.757  19.237  0.00  0.00    +0.000 A 
ATOM      5  C   UNL     1       2.042   5.350  20.498  0.00  0.00    +0.000 A 
ATOM      6  C   UNL     1       1.904   6.741  20.621  0.00  0.00    +0.000 A 
ENDROOT
BRANCH   4   7
ATOM      7  N   UNL     1       2.253   3.324  19.157  0.00  0.00    +0.000 N 
ATOM      8  C   UNL     1       1.100   2.627  18.564  0.00  0.00    +0.000 C 
BRANCH   7   9
ATOM      9  S   UNL     1       3.777   2.593  18.944  0.00  0.00    +0.000 S 
ATOM     10  O   UNL     1       4.263   2.110  20.217  0.00  0.00    +0.000 OA
ATOM     11  O   UNL     1       3.673   1.690  17.807  0.00  0.00    +0.000 OA
BRANCH   9  12
ATOM     12  C   UNL     1       4.859   3.925  18.430  0.00  0.00    +0.000 A 
ATOM     13  C   UNL     1       5.535   4.672  19.398  0.00  0.00    +0.000 A 
ATOM     14  C   UNL     1       6.416   5.680  19.002  0.00  0.00    +0.000 A 
ATOM     15  C   UNL     1       6.647   5.934  17.643  0.00  0.00    +0.000 A 
ATOM     16  C   UNL     1       7.599   7.015  17.216  0.00  0.00    +0.000 C 
ATOM     17  C   UNL     1       5.997   5.149  16.681  0.00  0.00    +0.000 A 
ATOM     18  C   UNL     1       5.111   4.141  17.072  0.00  0.00    +0.000 A 
ENDBRANCH   9  12
ENDBRANCH   7   9
ENDBRANCH   4   7
BRANCH   1  19
ATOM     19  O   UNL     1       1.768   8.903  19.457  0.00  0.00    +0.000 OA
BRANCH  19  20
ATOM     20  C   UNL     1       1.335   9.490  18.227  0.00  0.00    +0.000 C 
BRANCH  20  27
ATOM     21  C   UNL     1      -0.764  12.635  19.377  0.00  0.00    +0.000 C 
ATOM     22  C   UNL     1      -0.432  13.847  18.480  0.00  0.00    +0.000 C 
ATOM     23  C   UNL     1       0.958  14.408  18.790  0.00  0.00    +0.000 C 
ATOM     24  C   UNL     1       2.023  13.317  18.728  0.00  0.00    +0.000 C 
ATOM     25  C   UNL     1       1.632  12.140  19.618  0.00  0.00    +0.000 C 
ATOM     26  N   UNL     1       0.320  11.615  19.223  0.00  0.00    +0.000 N 
ATOM     27  C   UNL     1       0.137  10.414  18.528  0.00  0.00    +0.000 C 
ATOM     28  O   UNL     1      -0.978  10.036  18.152  0.00  0.00    +0.000 OA
BRANCH  21  30
ATOM     29  C   UNL     1      -3.170  12.635  20.294  0.00  0.00    +0.000 C 
ATOM     30  C   UNL     1      -2.226  12.173  19.188  0.00  0.00    +0.000 C 
ENDBRANCH  21  30
ENDBRANCH  20  27
ENDBRANCH  19  20
ENDBRANCH   1  19
TORSDOF 7
ENDMDL
MODEL 6
REMARK VINA RESULT:      -7.7      0.907      2.180
REMARK  Name = 
REMARK  10 active torsions:
REMARK  status: ('A' for Active; 'I' for Inactive)
REMARK    1  A    between atoms: C_1  and  C_2
REMARK    2  A    between atoms: C_2  and  C_3
REMARK    3  A    between atoms: C_9  and  C_11
REMARK    4  A    between atoms: C_11  and  O_12
REMARK    5  A    between atoms: O_12  and  C_13
REMARK    6  A    between atoms: C_16  and  N_17
REMARK    7  A    between atoms: N_17  and  C_18
REMARK    8  A    between atoms: N_17  and  S_19
REMARK    9  A    between atoms: S_19  and  C_22
REMARK   10  A    between atoms: C_25  and  C_26
REMARK                            x       y       z     vdW  Elec       q    Type
REMARK                         _______ _______ _______ _____ _____    ______ ____
ROOT
ATOM      1  C   UNL     1       2.113   7.553  19.162  0.00  0.00    +0.000 A 
ATOM      2  C   UNL     1       2.005   6.864  20.373  0.00  0.00    +0.000 A 
ATOM      3  C   UNL     1       2.022   5.467  20.412  0.00  0.00    +0.000 A 
ATOM      4  C   UNL     1       2.123   4.743  19.227  0.00  0.00    +0.000 A 
ATOM      5  C   UNL     1       2.188   5.426  18.006  0.00  0.00    +0.000 A 
ATOM      6  C   UNL     1       2.184   6.829  17.972  0.00  0.00    +0.000 A 
ENDROOT
BRANCH   4   7
ATOM      7  N   UNL     1       2.200   3.308  19.214  0.00  0.00    +0.000 N 
ATOM      8  C   UNL     1       1.043   2.577  18.673  0.00  0.00    +0.000 C 
BRANCH   7   9
ATOM      9  S   UNL     1       3.725   2.576  19.012  0.00  0.00    +0.000 S 
ATOM     10  O   UNL     1       4.210   2.109  20.291  0.00  0.00    +0.000 OA
ATOM     11  O   UNL     1       3.624   1.659  17.886  0.00  0.00    +0.000 OA
BRANCH   9  12
ATOM     12  C   UNL     1       4.806   3.902  18.483  0.00  0.00    +0.000 A 
ATOM     13  C   UNL     1       5.483   4.660  19.443  0.00  0.00    +0.000 A 
ATOM     14  C   UNL     1       6.364   5.664  19.035  0.00  0.00    +0.000 A 
ATOM     15  C   UNL     1       6.593   5.904  17.673  0.00  0.00    +0.000 A 
ATOM     16  C   UNL     1       7.544   6.980  17.233  0.00  0.00    +0.000 C 
ATOM     17  C   UNL     1       5.942   5.108  16.720  0.00  0.00    +0.000 A 
ATOM     18  C   UNL     1       5.057   4.105  17.122  0.00  0.00    +0.000 A 
ENDBRANCH   9  12
ENDBRANCH   7   9
ENDBRANCH   4   7
BRANCH   1  19
ATOM     19  O   UNL     1       2.119   8.915  19.273  0.00  0.00    +0.000 OA
BRANCH  19  20
ATOM     20  C   UNL     1       1.663   9.662  18.143  0.00  0.00    +0.000 C 
BRANCH  20  27
ATOM     21  C   UNL     1       0.019  12.741  19.997  0.00  0.00    +0.000 C 
ATOM     22  C   UNL     1       0.230  12.612  21.521  0.00  0.00    +0.000 C 
ATOM     23  C   UNL     1      -0.659  11.519  22.118  0.00  0.00    +0.000 C 
ATOM     24  C   UNL     1      -0.479  10.195  21.382  0.00  0.00    +0.000 C 
ATOM     25  C   UNL     1      -0.682  10.388  19.881  0.00  0.00    +0.000 C 
ATOM     26  N   UNL     1       0.245  11.402  19.368  0.00  0.00    +0.000 N 
ATOM     27  C   UNL     1       1.378  11.108  18.601  0.00  0.00    +0.000 C 
ATOM     28  O   UNL     1       2.174  11.982  18.242  0.00  0.00    +0.000 OA
BRANCH  21  30
ATOM     29  C   UNL     1      -0.116  15.007  18.781  0.00  0.00    +0.000 C 
ATOM     30  C   UNL     1       0.784  13.952  19.419  0.00  0.00    +0.000 C 
ENDBRANCH  21  30
ENDBRANCH  20  27
ENDBRANCH  19  20
ENDBRANCH   1  19
TORSDOF 7
ENDMDL
MODEL 7
REMARK VINA RESULT:      -7.7      0.333      1.289
REMARK  Name = 
REMARK  10 active torsions:
REMARK  status: ('A' for Active; 'I' for Inactive)
REMARK    1  A    between atoms: C_1  and  C_2
REMARK    2  A    between atoms: C_2  and  C_3
REMARK    3  A    between atoms: C_9  and  C_11
REMARK    4  A    between atoms: C_11  and  O_12
REMARK    5  A    between atoms: O_12  and  C_13
REMARK    6  A    between atoms: C_16  and  N_17
REMARK    7  A    between atoms: N_17  and  C_18
REMARK    8  A    between atoms: N_17  and  S_19
REMARK    9  A    between atoms: S_19  and  C_22
REMARK   10  A    between atoms: C_25  and  C_26
REMARK                            x       y       z     vdW  Elec       q    Type
REMARK                         _______ _______ _______ _____ _____    ______ ____
ROOT
ATOM      1  C   UNL     1       2.046   7.784  19.205  0.00  0.00    +0.000 A 
ATOM      2  C   UNL     1       2.225   7.079  18.012  0.00  0.00    +0.000 A 
ATOM      3  C   UNL     1       2.295   5.684  18.002  0.00  0.00    +0.000 A 
ATOM      4  C   UNL     1       2.209   4.978  19.200  0.00  0.00    +0.000 A 
ATOM      5  C   UNL     1       2.074   5.680  20.404  0.00  0.00    +0.000 A 
ATOM      6  C   UNL     1       1.991   7.081  20.408  0.00  0.00    +0.000 A 
ENDROOT
BRANCH   4   7
ATOM      7  N   UNL     1       2.220   3.542  19.241  0.00  0.00    +0.000 N 
ATOM      8  C   UNL     1       1.016   2.845  18.763  0.00  0.00    +0.000 C 
BRANCH   7   9
ATOM      9  S   UNL     1       3.705   2.733  19.023  0.00  0.00    +0.000 S 
ATOM     10  O   UNL     1       4.178   2.242  20.297  0.00  0.00    +0.000 OA
ATOM     11  O   UNL     1       3.545   1.823  17.899  0.00  0.00    +0.000 OA
BRANCH   9  12
ATOM     12  C   UNL     1       4.846   4.003  18.483  0.00  0.00    +0.000 A 
ATOM     13  C   UNL     1       5.547   4.746  19.437  0.00  0.00    +0.000 A 
ATOM     14  C   UNL     1       6.474   5.705  19.021  0.00  0.00    +0.000 A 
ATOM     15  C   UNL     1       6.725   5.912  17.658  0.00  0.00    +0.000 A 
ATOM     16  C   UNL     1       7.725   6.940  17.210  0.00  0.00    +0.000 C 
ATOM     17  C   UNL     1       6.047   5.130  16.712  0.00  0.00    +0.000 A 
ATOM     18  C   UNL     1       5.116   4.173  17.121  0.00  0.00    +0.000 A 
ENDBRANCH   9  12
ENDBRANCH   7   9
ENDBRANCH   4   7
BRANCH   1  19
ATOM     19  O   UNL     1       1.960   9.141  19.065  0.00  0.00    +0.000 OA
BRANCH  19  20
ATOM     20  C   UNL     1       0.671   9.683  18.767  0.00  0.00    +0.000 C 
BRANCH  20  27
ATOM     21  C   UNL     1      -0.438  12.321  21.494  0.00  0.00    +0.000 C 
ATOM     22  C   UNL     1      -1.537  13.242  20.920  0.00  0.00    +0.000 C 
ATOM     23  C   UNL     1      -0.963  14.231  19.904  0.00  0.00    +0.000 C 
ATOM     24  C   UNL     1      -0.168  13.512  18.817  0.00  0.00    +0.000 C 
ATOM     25  C   UNL     1       0.889  12.606  19.444  0.00  0.00    +0.000 C 
ATOM     26  N   UNL     1       0.260  11.644  20.356  0.00  0.00    +0.000 N 
ATOM     27  C   UNL     1       0.089  10.287  20.062  0.00  0.00    +0.000 C 
ATOM     28  O   UNL     1      -0.505   9.519  20.827  0.00  0.00    +0.000 OA
BRANCH  21  30
ATOM     29  C   UNL     1      -2.316  11.908  23.205  0.00  0.00    +0.000 C 
ATOM     30  C   UNL     1      -0.978  11.439  22.640  0.00  0.00    +0.000 C 
ENDBRANCH  21  30
ENDBRANCH  20  27
ENDBRANCH  19  20
ENDBRANCH   1  19
TORSDOF 7
ENDMDL
MODEL 8
REMARK VINA RESULT:      -7.7      1.213      1.987
REMARK  Name = 
REMARK  10 active torsions:
REMARK  status: ('A' for Active; 'I' for Inactive)
REMARK    1  A    between atoms: C_1  and  C_2
REMARK    2  A    between atoms: C_2  and  C_3
REMARK    3  A    between atoms: C_9  and  C_11
REMARK    4  A    between atoms: C_11  and  O_12
REMARK    5  A    between atoms: O_12  and  C_13
REMARK    6  A    between atoms: C_16  and  N_17
REMARK    7  A    between atoms: N_17  and  C_18
REMARK    8  A    between atoms: N_17  and  S_19
REMARK    9  A    between atoms: S_19  and  C_22
REMARK   10  A    between atoms: C_25  and  C_26
REMARK                            x       y       z     vdW  Elec       q    Type
REMARK                         _______ _______ _______ _____ _____    ______ ____
ROOT
ATOM      1  C   UNL     1       1.959   7.458  19.540  0.00  0.00    +0.000 A 
ATOM      2  C   UNL     1       2.149   6.871  18.286  0.00  0.00    +0.000 A 
ATOM      3  C   UNL     1       2.259   5.485  18.148  0.00  0.00    +0.000 A 
ATOM      4  C   UNL     1       2.203   4.671  19.277  0.00  0.00    +0.000 A 
ATOM      5  C   UNL     1       2.057   5.256  20.541  0.00  0.00    +0.000 A 
ATOM      6  C   UNL     1       1.933   6.647  20.674  0.00  0.00    +0.000 A 
ENDROOT
BRANCH   4   7
ATOM      7  N   UNL     1       2.257   3.238  19.187  0.00  0.00    +0.000 N 
ATOM      8  C   UNL     1       1.147   2.565  18.493  0.00  0.00    +0.000 C 
BRANCH   7   9
ATOM      9  S   UNL     1       3.782   2.485  19.092  0.00  0.00    +0.000 S 
ATOM     10  O   UNL     1       4.212   2.096  20.416  0.00  0.00    +0.000 OA
ATOM     11  O   UNL     1       3.717   1.499  18.023  0.00  0.00    +0.000 OA
BRANCH   9  12
ATOM     12  C   UNL     1       4.895   3.768  18.524  0.00  0.00    +0.000 A 
ATOM     13  C   UNL     1       5.030   4.001  17.152  0.00  0.00    +0.000 A 
ATOM     14  C   UNL     1       5.860   5.032  16.705  0.00  0.00    +0.000 A 
ATOM     15  C   UNL     1       6.538   5.850  17.619  0.00  0.00    +0.000 A 
ATOM     16  C   UNL     1       7.427   6.962  17.139  0.00  0.00    +0.000 C 
ATOM     17  C   UNL     1       6.360   5.635  18.992  0.00  0.00    +0.000 A 
ATOM     18  C   UNL     1       5.535   4.603  19.445  0.00  0.00    +0.000 A 
ENDBRANCH   9  12
ENDBRANCH   7   9
ENDBRANCH   4   7
BRANCH   1  19
ATOM     19  O   UNL     1       1.832   8.819  19.525  0.00  0.00    +0.000 OA
BRANCH  19  20
ATOM     20  C   UNL     1       0.833   9.389  20.374  0.00  0.00    +0.000 C 
BRANCH  20  27
ATOM     21  C   UNL     1      -1.633  12.271  19.261  0.00  0.00    +0.000 C 
ATOM     22  C   UNL     1      -0.908  13.634  19.315  0.00  0.00    +0.000 C 
ATOM     23  C   UNL     1      -0.695  14.097  20.757  0.00  0.00    +0.000 C 
ATOM     24  C   UNL     1       0.003  13.023  21.587  0.00  0.00    +0.000 C 
ATOM     25  C   UNL     1      -0.747  11.697  21.481  0.00  0.00    +0.000 C 
ATOM     26  N   UNL     1      -0.858  11.285  20.077  0.00  0.00    +0.000 N 
ATOM     27  C   UNL     1      -0.105  10.253  19.505  0.00  0.00    +0.000 C 
ATOM     28  O   UNL     1      -0.175   9.978  18.303  0.00  0.00    +0.000 OA
BRANCH  21  30
ATOM     29  C   UNL     1      -3.429  11.367  17.653  0.00  0.00    +0.000 C 
ATOM     30  C   UNL     1      -2.001  11.881  17.812  0.00  0.00    +0.000 C 
ENDBRANCH  21  30
ENDBRANCH  20  27
ENDBRANCH  19  20
ENDBRANCH   1  19
TORSDOF 7
ENDMDL
MODEL 9
REMARK VINA RESULT:      -7.7      1.504      2.129
REMARK  Name = 
REMARK  10 active torsions:
REMARK  status: ('A' for Active; 'I' for Inactive)
REMARK    1  A    between atoms: C_1  and  C_2
REMARK    2  A    between atoms: C_2  and  C_3
REMARK    3  A    between atoms: C_9  and  C_11
REMARK    4  A    between atoms: C_11  and  O_12
REMARK    5  A    between atoms: O_12  and  C_13
REMARK    6  A    between atoms: C_16  and  N_17
REMARK    7  A    between atoms: N_17  and  C_18
REMARK    8  A    between atoms: N_17  and  S_19
REMARK    9  A    between atoms: S_19  and  C_22
REMARK   10  A    between atoms: C_25  and  C_26
REMARK                            x       y       z     vdW  Elec       q    Type
REMARK                         _______ _______ _______ _____ _____    ______ ____
ROOT
ATOM      1  C   UNL     1       1.868   7.470  19.517  0.00  0.00    +0.000 A 
ATOM      2  C   UNL     1       2.066   6.859  18.275  0.00  0.00    +0.000 A 
ATOM      3  C   UNL     1       2.186   5.471  18.165  0.00  0.00    +0.000 A 
ATOM      4  C   UNL     1       2.133   4.679  19.310  0.00  0.00    +0.000 A 
ATOM      5  C   UNL     1       1.979   5.288  20.562  0.00  0.00    +0.000 A 
ATOM      6  C   UNL     1       1.845   6.681  20.666  0.00  0.00    +0.000 A 
ENDROOT
BRANCH   4   7
ATOM      7  N   UNL     1       2.197   3.245  19.248  0.00  0.00    +0.000 N 
ATOM      8  C   UNL     1       1.105   2.552  18.548  0.00  0.00    +0.000 C 
BRANCH   7   9
ATOM      9  S   UNL     1       3.729   2.500  19.195  0.00  0.00    +0.000 S 
ATOM     10  O   UNL     1       4.156   2.179  20.537  0.00  0.00    +0.000 OA
ATOM     11  O   UNL     1       3.676   1.464  18.173  0.00  0.00    +0.000 OA
BRANCH   9  12
ATOM     12  C   UNL     1       4.834   3.764  18.570  0.00  0.00    +0.000 A 
ATOM     13  C   UNL     1       4.952   3.950  17.190  0.00  0.00    +0.000 A 
ATOM     14  C   UNL     1       5.776   4.965  16.698  0.00  0.00    +0.000 A 
ATOM     15  C   UNL     1       6.465   5.814  17.575  0.00  0.00    +0.000 A 
ATOM     16  C   UNL     1       7.348   6.909  17.047  0.00  0.00    +0.000 C 
ATOM     17  C   UNL     1       6.304   5.645  18.957  0.00  0.00    +0.000 A 
ATOM     18  C   UNL     1       5.485   4.629  19.455  0.00  0.00    +0.000 A 
ENDBRANCH   9  12
ENDBRANCH   7   9
ENDBRANCH   4   7
BRANCH   1  19
ATOM     19  O   UNL     1       1.732   8.829  19.474  0.00  0.00    +0.000 OA
BRANCH  19  20
ATOM     20  C   UNL     1       1.033   9.378  18.354  0.00  0.00    +0.000 C 
BRANCH  20  27
ATOM     21  C   UNL     1      -1.455  12.436  18.648  0.00  0.00    +0.000 C 
ATOM     22  C   UNL     1      -2.779  11.977  19.297  0.00  0.00    +0.000 C 
ATOM     23  C   UNL     1      -3.612  11.131  18.332  0.00  0.00    +0.000 C 
ATOM     24  C   UNL     1      -2.798   9.971  17.767  0.00  0.00    +0.000 C 
ATOM     25  C   UNL     1      -1.495  10.482  17.156  0.00  0.00    +0.000 C 
ATOM     26  N   UNL     1      -0.722  11.228  18.154  0.00  0.00    +0.000 N 
ATOM     27  C   UNL     1       0.429  10.734  18.778  0.00  0.00    +0.000 C 
ATOM     28  O   UNL     1       1.018  11.362  19.664  0.00  0.00    +0.000 OA
BRANCH  21  30
ATOM     29  C   UNL     1      -1.502  13.923  20.748  0.00  0.00    +0.000 C 
ATOM     30  C   UNL     1      -0.692  13.426  19.554  0.00  0.00    +0.000 C 
ENDBRANCH  21  30
ENDBRANCH  20  27
ENDBRANCH  19  20
ENDBRANCH   1  19
TORSDOF 7
ENDMDL
