MODEL 1
REMARK VINA RESULT:      -8.6      0.000      0.000
REMARK  Name = 
REMARK  6 active torsions:
REMARK  status: ('A' for Active; 'I' for Inactive)
REMARK    1  A    between atoms: C_1  and  C_2
REMARK    2  A    between atoms: C_11  and  N_12
REMARK    3  A    between atoms: C_14  and  C_15
REMARK    4  A    between atoms: C_14  and  C_16
REMARK    5  A    between atoms: C_20  and  N_21
REMARK    6  A    between atoms: C_29  and  C_30
REMARK                            x       y       z     vdW  Elec       q    Type
REMARK                         _______ _______ _______ _____ _____    ______ ____
ROOT
ATOM      1  N   UNL     1       3.460   5.005  17.316  0.00  0.00    +0.000 N 
ATOM      2  C   UNL     1       2.893   3.593  17.565  0.00  0.00    +0.000 C 
ATOM      3  C   UNL     1       1.593   3.759  18.323  0.00  0.00    +0.000 C 
ATOM      4  C   UNL     1       0.533   4.152  17.255  0.00  0.00    +0.000 C 
ATOM      5  C   UNL     1       1.077   2.558  19.106  0.00  0.00    +0.000 C 
ATOM      6  C   UNL     1       2.103   4.855  19.194  0.00  0.00    +0.000 A 
ATOM      7  C   UNL     1       2.222   5.049  20.534  0.00  0.00    +0.000 A 
ATOM      8  C   UNL     1       2.226   6.367  20.945  0.00  0.00    +0.000 A 
ATOM      9  C   UNL     1       1.859   7.340  20.013  0.00  0.00    +0.000 A 
ATOM     10  C   UNL     1       2.386   7.068  18.711  0.00  0.00    +0.000 A 
ATOM     11  C   UNL     1       2.829   5.740  18.434  0.00  0.00    +0.000 A 
ENDROOT
BRANCH   1  22
ATOM     12  C   UNL     1       8.305   5.533  18.682  0.00  0.00    +0.000 C 
ATOM     13  C   UNL     1       7.221   5.194  17.708  0.00  0.00    +0.000 A 
ATOM     14  N   UNL     1       7.692   5.025  16.462  0.00  0.00    +0.000 NA
ATOM     15  C   UNL     1       6.882   4.644  15.495  0.00  0.00    +0.000 A 
ATOM     16  C   UNL     1       7.538   4.547  14.282  0.00  0.00    +0.000 A 
ATOM     17  C   UNL     1       6.892   4.199  13.116  0.00  0.00    +0.000 A 
ATOM     18  C   UNL     1       5.539   3.921  13.197  0.00  0.00    +0.000 A 
ATOM     19 CL   UNL     1       4.683   3.531  11.750  0.00  0.00    +0.000 Cl
ATOM     20  C   UNL     1       4.854   3.979  14.436  0.00  0.00    +0.000 A 
ATOM     21  C   UNL     1       5.487   4.402  15.668  0.00  0.00    +0.000 A 
ATOM     22  C   UNL     1       4.927   4.669  17.018  0.00  0.00    +0.000 A 
ATOM     23  C   UNL     1       5.856   5.041  18.034  0.00  0.00    +0.000 A 
ATOM     24  C   UNL     1       5.479   5.303  19.471  0.00  0.00    +0.000 C 
ENDBRANCH   1  22
BRANCH   9  25
ATOM     25  N   UNL     1       1.001   8.347  20.532  0.00  0.00    +0.000 N 
ATOM     26  C   UNL     1       1.056   8.850  21.940  0.00  0.00    +0.000 C 
ATOM     27  C   UNL     1      -0.138   9.836  22.210  0.00  0.00    +0.000 C 
ATOM     28  O   UNL     1      -0.134  10.964  21.312  0.00  0.00    +0.000 OA
ATOM     29  C   UNL     1      -0.257  10.502  19.970  0.00  0.00    +0.000 C 
ATOM     30  C   UNL     1       0.904   9.560  19.617  0.00  0.00    +0.000 C 
ENDBRANCH   9  25
TORSDOF 2
ENDMDL
MODEL 2
REMARK VINA RESULT:      -7.9      9.387     12.249
REMARK  Name = 
REMARK  6 active torsions:
REMARK  status: ('A' for Active; 'I' for Inactive)
REMARK    1  A    between atoms: C_1  and  C_2
REMARK    2  A    between atoms: C_11  and  N_12
REMARK    3  A    between atoms: C_14  and  C_15
REMARK    4  A    between atoms: C_14  and  C_16
REMARK    5  A    between atoms: C_20  and  N_21
REMARK    6  A    between atoms: C_29  and  C_30
REMARK                            x       y       z     vdW  Elec       q    Type
REMARK                         _______ _______ _______ _____ _____    ______ ____
ROOT
ATOM      1  N   UNL     1      -3.341  13.793  21.695  0.00  0.00    +0.000 N 
ATOM      2  C   UNL     1      -2.770  12.495  22.299  0.00  0.00    +0.000 C 
ATOM      3  C   UNL     1      -1.262  12.584  22.211  0.00  0.00    +0.000 C 
ATOM      4  C   UNL     1      -0.827  13.496  23.393  0.00  0.00    +0.000 C 
ATOM      5  C   UNL     1      -0.474  11.282  22.282  0.00  0.00    +0.000 C 
ATOM      6  C   UNL     1      -1.259  13.201  20.856  0.00  0.00    +0.000 A 
ATOM      7  C   UNL     1      -0.719  12.883  19.649  0.00  0.00    +0.000 A 
ATOM      8  C   UNL     1      -0.484  13.948  18.804  0.00  0.00    +0.000 A 
ATOM      9  C   UNL     1      -0.574  15.235  19.339  0.00  0.00    +0.000 A 
ATOM     10  C   UNL     1      -1.666  15.365  20.253  0.00  0.00    +0.000 A 
ATOM     11  C   UNL     1      -2.230  14.171  20.794  0.00  0.00    +0.000 A 
ENDROOT
BRANCH   1  22
ATOM     12  C   UNL     1      -7.916  12.708  23.572  0.00  0.00    +0.000 C 
ATOM     13  C   UNL     1      -6.868  12.677  22.503  0.00  0.00    +0.000 A 
ATOM     14  N   UNL     1      -7.188  11.843  21.501  0.00  0.00    +0.000 NA
ATOM     15  C   UNL     1      -6.413  11.756  20.439  0.00  0.00    +0.000 A 
ATOM     16  C   UNL     1      -6.889  10.832  19.528  0.00  0.00    +0.000 A 
ATOM     17  C   UNL     1      -6.228  10.540  18.355  0.00  0.00    +0.000 A 
ATOM     18  C   UNL     1      -5.057  11.230  18.097  0.00  0.00    +0.000 A 
ATOM     19 CL   UNL     1      -4.173  10.857  16.662  0.00  0.00    +0.000 Cl
ATOM     20  C   UNL     1      -4.569  12.207  18.999  0.00  0.00    +0.000 A 
ATOM     21  C   UNL     1      -5.203  12.493  20.269  0.00  0.00    +0.000 A 
ATOM     22  C   UNL     1      -4.783  13.355  21.404  0.00  0.00    +0.000 A 
ATOM     23  C   UNL     1      -5.681  13.440  22.510  0.00  0.00    +0.000 A 
ATOM     24  C   UNL     1      -5.446  14.301  23.726  0.00  0.00    +0.000 C 
ENDBRANCH   1  22
BRANCH   9  25
ATOM     25  N   UNL     1       0.459  16.113  18.916  0.00  0.00    +0.000 N 
ATOM     26  C   UNL     1       1.808  15.660  18.456  0.00  0.00    +0.000 C 
ATOM     27  C   UNL     1       2.747  16.899  18.223  0.00  0.00    +0.000 C 
ATOM     28  O   UNL     1       2.211  17.820  17.252  0.00  0.00    +0.000 OA
ATOM     29  C   UNL     1       0.957  18.315  17.712  0.00  0.00    +0.000 C 
ATOM     30  C   UNL     1      -0.033  17.160  17.924  0.00  0.00    +0.000 C 
ENDBRANCH   9  25
TORSDOF 2
ENDMDL
MODEL 3
REMARK VINA RESULT:      -7.9      0.752      1.183
REMARK  Name = 
REMARK  6 active torsions:
REMARK  status: ('A' for Active; 'I' for Inactive)
REMARK    1  A    between atoms: C_1  and  C_2
REMARK    2  A    between atoms: C_11  and  N_12
REMARK    3  A    between atoms: C_14  and  C_15
REMARK    4  A    between atoms: C_14  and  C_16
REMARK    5  A    between atoms: C_20  and  N_21
REMARK    6  A    between atoms: C_29  and  C_30
REMARK                            x       y       z     vdW  Elec       q    Type
REMARK                         _______ _______ _______ _____ _____    ______ ____
ROOT
ATOM      1  N   UNL     1       3.448   5.162  17.178  0.00  0.00    +0.000 N 
ATOM      2  C   UNL     1       2.907   3.871  17.826  0.00  0.00    +0.000 C 
ATOM      3  C   UNL     1       1.625   4.232  18.544  0.00  0.00    +0.000 C 
ATOM      4  C   UNL     1       0.533   4.305  17.439  0.00  0.00    +0.000 C 
ATOM      5  C   UNL     1       1.146   3.293  19.644  0.00  0.00    +0.000 C 
ATOM      6  C   UNL     1       2.140   5.530  19.061  0.00  0.00    +0.000 A 
ATOM      7  C   UNL     1       2.290   6.090  20.291  0.00  0.00    +0.000 A 
ATOM      8  C   UNL     1       2.285   7.470  20.319  0.00  0.00    +0.000 A 
ATOM      9  C   UNL     1       1.881   8.144  19.164  0.00  0.00    +0.000 A 
ATOM     10  C   UNL     1       2.379   7.524  17.975  0.00  0.00    +0.000 A 
ATOM     11  C   UNL     1       2.834   6.174  18.066  0.00  0.00    +0.000 A 
ENDROOT
BRANCH   1  22
ATOM     12  C   UNL     1       8.254   5.548  18.719  0.00  0.00    +0.000 C 
ATOM     13  C   UNL     1       7.196   5.225  17.712  0.00  0.00    +0.000 A 
ATOM     14  N   UNL     1       7.707   5.010  16.488  0.00  0.00    +0.000 NA
ATOM     15  C   UNL     1       6.921   4.636  15.499  0.00  0.00    +0.000 A 
ATOM     16  C   UNL     1       7.619   4.487  14.316  0.00  0.00    +0.000 A 
ATOM     17  C   UNL     1       7.004   4.136  13.133  0.00  0.00    +0.000 A 
ATOM     18  C   UNL     1       5.640   3.908  13.168  0.00  0.00    +0.000 A 
ATOM     19 CL   UNL     1       4.825   3.515  11.698  0.00  0.00    +0.000 Cl
ATOM     20  C   UNL     1       4.911   4.019  14.378  0.00  0.00    +0.000 A 
ATOM     21  C   UNL     1       5.512   4.448  15.624  0.00  0.00    +0.000 A 
ATOM     22  C   UNL     1       4.912   4.766  16.945  0.00  0.00    +0.000 A 
ATOM     23  C   UNL     1       5.815   5.129  17.988  0.00  0.00    +0.000 A 
ATOM     24  C   UNL     1       5.394   5.438  19.403  0.00  0.00    +0.000 C 
ENDBRANCH   1  22
BRANCH   9  25
ATOM     25  N   UNL     1       1.022   9.249  19.407  0.00  0.00    +0.000 N 
ATOM     26  C   UNL     1       0.053   9.793  18.407  0.00  0.00    +0.000 C 
ATOM     27  C   UNL     1      -0.609  11.110  18.953  0.00  0.00    +0.000 C 
ATOM     28  O   UNL     1      -1.299  10.901  20.202  0.00  0.00    +0.000 OA
ATOM     29  C   UNL     1      -0.372  10.450  21.185  0.00  0.00    +0.000 C 
ATOM     30  C   UNL     1       0.290   9.137  20.738  0.00  0.00    +0.000 C 
ENDBRANCH   9  25
TORSDOF 2
ENDMDL
MODEL 4
REMARK VINA RESULT:      -7.9      4.207      9.527
REMARK  Name = 
REMARK  6 active torsions:
REMARK  status: ('A' for Active; 'I' for Inactive)
REMARK    1  A    between atoms: C_1  and  C_2
REMARK    2  A    between atoms: C_11  and  N_12
REMARK    3  A    between atoms: C_14  and  C_15
REMARK    4  A    between atoms: C_14  and  C_16
REMARK    5  A    between atoms: C_20  and  N_21
REMARK    6  A    between atoms: C_29  and  C_30
REMARK                            x       y       z     vdW  Elec       q    Type
REMARK                         _______ _______ _______ _____ _____    ______ ____
ROOT
ATOM      1  N   UNL     1      -0.323  10.969  20.706  0.00  0.00    +0.000 N 
ATOM      2  C   UNL     1      -1.152  11.614  19.577  0.00  0.00    +0.000 C 
ATOM      3  C   UNL     1      -1.211  10.619  18.438  0.00  0.00    +0.000 C 
ATOM      4  C   UNL     1      -2.301   9.586  18.843  0.00  0.00    +0.000 C 
ATOM      5  C   UNL     1      -1.537  11.156  17.051  0.00  0.00    +0.000 C 
ATOM      6  C   UNL     1       0.207  10.187  18.585  0.00  0.00    +0.000 A 
ATOM      7  C   UNL     1       1.296  10.154  17.772  0.00  0.00    +0.000 A 
ATOM      8  C   UNL     1       2.246   9.205  18.092  0.00  0.00    +0.000 A 
ATOM      9  C   UNL     1       1.900   8.226  19.026  0.00  0.00    +0.000 A 
ATOM     10  C   UNL     1       1.131   8.759  20.107  0.00  0.00    +0.000 A 
ATOM     11  C   UNL     1       0.499  10.024  19.917  0.00  0.00    +0.000 A 
ENDROOT
BRANCH   1  22
ATOM     12  C   UNL     1      -1.737  14.377  24.171  0.00  0.00    +0.000 C 
ATOM     13  C   UNL     1      -0.865  13.886  23.059  0.00  0.00    +0.000 A 
ATOM     14  N   UNL     1      -0.053  14.846  22.587  0.00  0.00    +0.000 NA
ATOM     15  C   UNL     1       0.837  14.561  21.658  0.00  0.00    +0.000 A 
ATOM     16  C   UNL     1       1.563  15.676  21.283  0.00  0.00    +0.000 A 
ATOM     17  C   UNL     1       2.529  15.635  20.300  0.00  0.00    +0.000 A 
ATOM     18  C   UNL     1       2.774  14.412  19.701  0.00  0.00    +0.000 A 
ATOM     19 CL   UNL     1       3.941  14.329  18.432  0.00  0.00    +0.000 Cl
ATOM     20  C   UNL     1       2.068  13.249  20.096  0.00  0.00    +0.000 A 
ATOM     21  C   UNL     1       1.004  13.269  21.078  0.00  0.00    +0.000 A 
ATOM     22  C   UNL     1       0.057  12.213  21.520  0.00  0.00    +0.000 A 
ATOM     23  C   UNL     1      -0.859  12.567  22.555  0.00  0.00    +0.000 A 
ATOM     24  C   UNL     1      -1.859  11.615  23.163  0.00  0.00    +0.000 C 
ENDBRANCH   1  22
BRANCH   9  25
ATOM     25  N   UNL     1       2.325   6.916  18.678  0.00  0.00    +0.000 N 
ATOM     26  C   UNL     1       3.551   6.618  17.874  0.00  0.00    +0.000 C 
ATOM     27  C   UNL     1       3.623   5.084  17.542  0.00  0.00    +0.000 C 
ATOM     28  O   UNL     1       3.634   4.264  18.728  0.00  0.00    +0.000 OA
ATOM     29  C   UNL     1       2.437   4.486  19.468  0.00  0.00    +0.000 C 
ATOM     30  C   UNL     1       2.317   5.964  19.866  0.00  0.00    +0.000 C 
ENDBRANCH   9  25
TORSDOF 2
ENDMDL
MODEL 5
REMARK VINA RESULT:      -7.7      6.493     10.225
REMARK  Name = 
REMARK  6 active torsions:
REMARK  status: ('A' for Active; 'I' for Inactive)
REMARK    1  A    between atoms: C_1  and  C_2
REMARK    2  A    between atoms: C_11  and  N_12
REMARK    3  A    between atoms: C_14  and  C_15
REMARK    4  A    between atoms: C_14  and  C_16
REMARK    5  A    between atoms: C_20  and  N_21
REMARK    6  A    between atoms: C_29  and  C_30
REMARK                            x       y       z     vdW  Elec       q    Type
REMARK                         _______ _______ _______ _____ _____    ______ ____
ROOT
ATOM      1  N   UNL     1      -0.893  11.833  20.527  0.00  0.00    +0.000 N 
ATOM      2  C   UNL     1      -0.794  10.541  19.691  0.00  0.00    +0.000 C 
ATOM      3  C   UNL     1       0.676  10.208  19.552  0.00  0.00    +0.000 C 
ATOM      4  C   UNL     1       1.082   9.540  20.896  0.00  0.00    +0.000 C 
ATOM      5  C   UNL     1       1.084   9.290  18.407  0.00  0.00    +0.000 C 
ATOM      6  C   UNL     1       1.100  11.621  19.354  0.00  0.00    +0.000 A 
ATOM      7  C   UNL     1       1.771  12.303  18.387  0.00  0.00    +0.000 A 
ATOM      8  C   UNL     1       2.426  13.442  18.810  0.00  0.00    +0.000 A 
ATOM      9  C   UNL     1       2.555  13.645  20.186  0.00  0.00    +0.000 A 
ATOM     10  C   UNL     1       1.372  13.278  20.901  0.00  0.00    +0.000 A 
ATOM     11  C   UNL     1       0.433  12.427  20.244  0.00  0.00    +0.000 A 
ENDROOT
BRANCH   1  22
ATOM     12  C   UNL     1      -5.487  13.158  22.187  0.00  0.00    +0.000 C 
ATOM     13  C   UNL     1      -4.526  12.711  21.131  0.00  0.00    +0.000 A 
ATOM     14  N   UNL     1      -5.149  12.331  20.004  0.00  0.00    +0.000 NA
ATOM     15  C   UNL     1      -4.447  11.984  18.945  0.00  0.00    +0.000 A 
ATOM     16  C   UNL     1      -5.258  11.602  17.892  0.00  0.00    +0.000 A 
ATOM     17  C   UNL     1      -4.751  11.162  16.689  0.00  0.00    +0.000 A 
ATOM     18  C   UNL     1      -3.375  11.134  16.551  0.00  0.00    +0.000 A 
ATOM     19 CL   UNL     1      -2.700  10.543  15.076  0.00  0.00    +0.000 Cl
ATOM     20  C   UNL     1      -2.525  11.555  17.603  0.00  0.00    +0.000 A 
ATOM     21  C   UNL     1      -3.021  11.962  18.901  0.00  0.00    +0.000 A 
ATOM     22  C   UNL     1      -2.311  12.292  20.164  0.00  0.00    +0.000 A 
ATOM     23  C   UNL     1      -3.121  12.698  21.266  0.00  0.00    +0.000 A 
ATOM     24  C   UNL     1      -2.575  13.117  22.609  0.00  0.00    +0.000 C 
ENDBRANCH   1  22
BRANCH   9  25
ATOM     25  N   UNL     1       3.838  14.107  20.586  0.00  0.00    +0.000 N 
ATOM     26  C   UNL     1       4.675  15.053  19.785  0.00  0.00    +0.000 C 
ATOM     27  C   UNL     1       6.092  15.216  20.446  0.00  0.00    +0.000 C 
ATOM     28  O   UNL     1       6.014  15.699  21.802  0.00  0.00    +0.000 OA
ATOM     29  C   UNL     1       5.278  14.771  22.593  0.00  0.00    +0.000 C 
ATOM     30  C   UNL     1       3.860  14.589  22.031  0.00  0.00    +0.000 C 
ENDBRANCH   9  25
TORSDOF 2
ENDMDL
MODEL 6
REMARK VINA RESULT:      -7.5      5.170     11.060
REMARK  Name = 
REMARK  6 active torsions:
REMARK  status: ('A' for Active; 'I' for Inactive)
REMARK    1  A    between atoms: C_1  and  C_2
REMARK    2  A    between atoms: C_11  and  N_12
REMARK    3  A    between atoms: C_14  and  C_15
REMARK    4  A    between atoms: C_14  and  C_16
REMARK    5  A    between atoms: C_20  and  N_21
REMARK    6  A    between atoms: C_29  and  C_30
REMARK                            x       y       z     vdW  Elec       q    Type
REMARK                         _______ _______ _______ _____ _____    ______ ____
ROOT
ATOM      1  N   UNL     1      -1.413  11.828  18.993  0.00  0.00    +0.000 N 
ATOM      2  C   UNL     1      -0.850  13.075  19.706  0.00  0.00    +0.000 C 
ATOM      3  C   UNL     1       0.639  12.860  19.874  0.00  0.00    +0.000 C 
ATOM      4  C   UNL     1       1.268  13.190  18.491  0.00  0.00    +0.000 C 
ATOM      5  C   UNL     1       1.351  13.680  20.943  0.00  0.00    +0.000 C 
ATOM      6  C   UNL     1       0.513  11.419  20.224  0.00  0.00    +0.000 A 
ATOM      7  C   UNL     1       0.881  10.643  21.279  0.00  0.00    +0.000 A 
ATOM      8  C   UNL     1       1.074   9.307  20.994  0.00  0.00    +0.000 A 
ATOM      9  C   UNL     1       1.126   8.928  19.650  0.00  0.00    +0.000 A 
ATOM     10  C   UNL     1       0.163   9.625  18.855  0.00  0.00    +0.000 A 
ATOM     11  C   UNL     1      -0.400  10.824  19.387  0.00  0.00    +0.000 A 
ENDROOT
BRANCH   1  22
ATOM     12  C   UNL     1      -6.158  12.203  17.270  0.00  0.00    +0.000 C 
ATOM     13  C   UNL     1      -5.106  12.332  18.327  0.00  0.00    +0.000 A 
ATOM     14  N   UNL     1      -5.549  12.996  19.407  0.00  0.00    +0.000 NA
ATOM     15  C   UNL     1      -4.775  13.129  20.464  0.00  0.00    +0.000 A 
ATOM     16  C   UNL     1      -5.390  13.860  21.464  0.00  0.00    +0.000 A 
ATOM     17  C   UNL     1      -4.764  14.162  22.653  0.00  0.00    +0.000 A 
ATOM     18  C   UNL     1      -3.478  13.683  22.834  0.00  0.00    +0.000 A 
ATOM     19 CL   UNL     1      -2.641  14.082  24.290  0.00  0.00    +0.000 Cl
ATOM     20  C   UNL     1      -2.842  12.902  21.838  0.00  0.00    +0.000 A 
ATOM     21  C   UNL     1      -3.445  12.619  20.553  0.00  0.00    +0.000 A 
ATOM     22  C   UNL     1      -2.903  11.959  19.337  0.00  0.00    +0.000 A 
ATOM     23  C   UNL     1      -3.798  11.809  18.237  0.00  0.00    +0.000 A 
ATOM     24  C   UNL     1      -3.440  11.123  16.942  0.00  0.00    +0.000 C 
ENDBRANCH   1  22
BRANCH   9  25
ATOM     25  N   UNL     1       2.150   7.990  19.351  0.00  0.00    +0.000 N 
ATOM     26  C   UNL     1       2.162   6.577  19.841  0.00  0.00    +0.000 C 
ATOM     27  C   UNL     1       3.518   5.881  19.456  0.00  0.00    +0.000 C 
ATOM     28  O   UNL     1       3.752   5.882  18.033  0.00  0.00    +0.000 OA
ATOM     29  C   UNL     1       3.814   7.225  17.565  0.00  0.00    +0.000 C 
ATOM     30  C   UNL     1       2.501   7.963  17.869  0.00  0.00    +0.000 C 
ENDBRANCH   9  25
TORSDOF 2
ENDMDL
MODEL 7
REMARK VINA RESULT:      -7.4      4.545     10.031
REMARK  Name = 
REMARK  6 active torsions:
REMARK  status: ('A' for Active; 'I' for Inactive)
REMARK    1  A    between atoms: C_1  and  C_2
REMARK    2  A    between atoms: C_11  and  N_12
REMARK    3  A    between atoms: C_14  and  C_15
REMARK    4  A    between atoms: C_14  and  C_16
REMARK    5  A    between atoms: C_20  and  N_21
REMARK    6  A    between atoms: C_29  and  C_30
REMARK                            x       y       z     vdW  Elec       q    Type
REMARK                         _______ _______ _______ _____ _____    ______ ____
ROOT
ATOM      1  N   UNL     1      -1.566  11.622  20.043  0.00  0.00    +0.000 N 
ATOM      2  C   UNL     1      -2.224  11.744  18.654  0.00  0.00    +0.000 C 
ATOM      3  C   UNL     1      -1.943  10.456  17.910  0.00  0.00    +0.000 C 
ATOM      4  C   UNL     1      -2.965   9.422  18.461  0.00  0.00    +0.000 C 
ATOM      5  C   UNL     1      -2.048  10.485  16.390  0.00  0.00    +0.000 C 
ATOM      6  C   UNL     1      -0.543  10.339  18.401  0.00  0.00    +0.000 A 
ATOM      7  C   UNL     1       0.683  10.250  17.818  0.00  0.00    +0.000 A 
ATOM      8  C   UNL     1       1.653   9.620  18.570  0.00  0.00    +0.000 A 
ATOM      9  C   UNL     1       1.245   8.924  19.710  0.00  0.00    +0.000 A 
ATOM     10  C   UNL     1       0.221   9.618  20.428  0.00  0.00    +0.000 A 
ATOM     11  C   UNL     1      -0.502  10.639  19.741  0.00  0.00    +0.000 A 
ENDROOT
BRANCH   1  22
ATOM     12  C   UNL     1      -4.083  15.697  21.682  0.00  0.00    +0.000 C 
ATOM     13  C   UNL     1      -2.908  15.015  21.053  0.00  0.00    +0.000 A 
ATOM     14  N   UNL     1      -2.052  15.888  20.496  0.00  0.00    +0.000 NA
ATOM     15  C   UNL     1      -0.923  15.461  19.968  0.00  0.00    +0.000 A 
ATOM     16  C   UNL     1      -0.185  16.496  19.425  0.00  0.00    +0.000 A 
ATOM     17  C   UNL     1       1.017  16.292  18.784  0.00  0.00    +0.000 A 
ATOM     18  C   UNL     1       1.489  14.993  18.717  0.00  0.00    +0.000 A 
ATOM     19 CL   UNL     1       2.967  14.689  17.879  0.00  0.00    +0.000 Cl
ATOM     20  C   UNL     1       0.767  13.921  19.299  0.00  0.00    +0.000 A 
ATOM     21  C   UNL     1      -0.528  14.091  19.923  0.00  0.00    +0.000 A 
ATOM     22  C   UNL     1      -1.500  13.099  20.452  0.00  0.00    +0.000 A 
ATOM     23  C   UNL     1      -2.688  13.621  21.046  0.00  0.00    +0.000 A 
ATOM     24  C   UNL     1      -3.762  12.771  21.677  0.00  0.00    +0.000 C 
ENDBRANCH   1  22
BRANCH   9  25
ATOM     25  N   UNL     1       1.878   7.664  19.879  0.00  0.00    +0.000 N 
ATOM     26  C   UNL     1       1.261   6.506  20.597  0.00  0.00    +0.000 C 
ATOM     27  C   UNL     1       2.302   5.336  20.734  0.00  0.00    +0.000 C 
ATOM     28  O   UNL     1       2.792   4.883  19.455  0.00  0.00    +0.000 OA
ATOM     29  C   UNL     1       3.445   5.960  18.791  0.00  0.00    +0.000 C 
ATOM     30  C   UNL     1       2.474   7.132  18.582  0.00  0.00    +0.000 C 
ENDBRANCH   9  25
TORSDOF 2
ENDMDL
MODEL 8
REMARK VINA RESULT:      -7.2      9.249     11.149
REMARK  Name = 
REMARK  6 active torsions:
REMARK  status: ('A' for Active; 'I' for Inactive)
REMARK    1  A    between atoms: C_1  and  C_2
REMARK    2  A    between atoms: C_11  and  N_12
REMARK    3  A    between atoms: C_14  and  C_15
REMARK    4  A    between atoms: C_14  and  C_16
REMARK    5  A    between atoms: C_20  and  N_21
REMARK    6  A    between atoms: C_29  and  C_30
REMARK                            x       y       z     vdW  Elec       q    Type
REMARK                         _______ _______ _______ _____ _____    ______ ____
ROOT
ATOM      1  N   UNL     1       9.278  15.160  21.594  0.00  0.00    +0.000 N 
ATOM      2  C   UNL     1       8.008  15.373  20.746  0.00  0.00    +0.000 C 
ATOM      3  C   UNL     1       6.819  15.193  21.665  0.00  0.00    +0.000 C 
ATOM      4  C   UNL     1       6.692  16.530  22.450  0.00  0.00    +0.000 C 
ATOM      5  C   UNL     1       5.475  14.874  21.023  0.00  0.00    +0.000 C 
ATOM      6  C   UNL     1       7.410  14.041  22.399  0.00  0.00    +0.000 A 
ATOM      7  C   UNL     1       7.039  12.755  22.640  0.00  0.00    +0.000 A 
ATOM      8  C   UNL     1       7.567  12.189  23.783  0.00  0.00    +0.000 A 
ATOM      9  C   UNL     1       8.202  13.035  24.695  0.00  0.00    +0.000 A 
ATOM     10  C   UNL     1       8.992  14.034  24.045  0.00  0.00    +0.000 A 
ATOM     11  C   UNL     1       8.732  14.299  22.667  0.00  0.00    +0.000 A 
ENDROOT
BRANCH   1  22
ATOM     12  C   UNL     1      12.332  17.082  18.044  0.00  0.00    +0.000 C 
ATOM     13  C   UNL     1      11.572  15.968  18.692  0.00  0.00    +0.000 A 
ATOM     14  N   UNL     1      11.543  14.861  17.931  0.00  0.00    +0.000 NA
ATOM     15  C   UNL     1      10.983  13.760  18.386  0.00  0.00    +0.000 A 
ATOM     16  C   UNL     1      11.027  12.738  17.457  0.00  0.00    +0.000 A 
ATOM     17  C   UNL     1      10.473  11.498  17.691  0.00  0.00    +0.000 A 
ATOM     18  C   UNL     1       9.875  11.292  18.922  0.00  0.00    +0.000 A 
ATOM     19 CL   UNL     1       9.125   9.769  19.236  0.00  0.00    +0.000 Cl
ATOM     20  C   UNL     1       9.850  12.314  19.904  0.00  0.00    +0.000 A 
ATOM     21  C   UNL     1      10.366  13.646  19.668  0.00  0.00    +0.000 A 
ATOM     22  C   UNL     1      10.307  14.881  20.491  0.00  0.00    +0.000 A 
ATOM     23  C   UNL     1      10.963  16.033  19.964  0.00  0.00    +0.000 A 
ATOM     24  C   UNL     1      11.050  17.359  20.679  0.00  0.00    +0.000 C 
ENDBRANCH   1  22
BRANCH   9  25
ATOM     25  N   UNL     1       7.883  12.767  26.053  0.00  0.00    +0.000 N 
ATOM     26  C   UNL     1       7.680  13.825  27.091  0.00  0.00    +0.000 C 
ATOM     27  C   UNL     1       7.506  13.168  28.508  0.00  0.00    +0.000 C 
ATOM     28  O   UNL     1       6.395  12.250  28.557  0.00  0.00    +0.000 OA
ATOM     29  C   UNL     1       6.611  11.198  27.622  0.00  0.00    +0.000 C 
ATOM     30  C   UNL     1       6.750  11.760  26.200  0.00  0.00    +0.000 C 
ENDBRANCH   9  25
TORSDOF 2
ENDMDL
MODEL 9
REMARK VINA RESULT:      -7.2      8.101     11.757
REMARK  Name = 
REMARK  6 active torsions:
REMARK  status: ('A' for Active; 'I' for Inactive)
REMARK    1  A    between atoms: C_1  and  C_2
REMARK    2  A    between atoms: C_11  and  N_12
REMARK    3  A    between atoms: C_14  and  C_15
REMARK    4  A    between atoms: C_14  and  C_16
REMARK    5  A    between atoms: C_20  and  N_21
REMARK    6  A    between atoms: C_29  and  C_30
REMARK                            x       y       z     vdW  Elec       q    Type
REMARK                         _______ _______ _______ _____ _____    ______ ____
ROOT
ATOM      1  N   UNL     1      -2.433  12.998  21.449  0.00  0.00    +0.000 N 
ATOM      2  C   UNL     1      -2.116  11.552  21.019  0.00  0.00    +0.000 C 
ATOM      3  C   UNL     1      -0.666  11.520  20.587  0.00  0.00    +0.000 C 
ATOM      4  C   UNL     1       0.161  11.462  21.903  0.00  0.00    +0.000 C 
ATOM      5  C   UNL     1      -0.227  10.375  19.682  0.00  0.00    +0.000 C 
ATOM      6  C   UNL     1      -0.721  12.834  19.889  0.00  0.00    +0.000 A 
ATOM      7  C   UNL     1      -0.472  13.269  18.625  0.00  0.00    +0.000 A 
ATOM      8  C   UNL     1      -0.114  14.597  18.515  0.00  0.00    +0.000 A 
ATOM      9  C   UNL     1       0.204  15.286  19.688  0.00  0.00    +0.000 A 
ATOM     10  C   UNL     1      -0.665  14.940  20.770  0.00  0.00    +0.000 A 
ATOM     11  C   UNL     1      -1.418  13.731  20.662  0.00  0.00    +0.000 A 
ENDROOT
BRANCH   1  22
ATOM     12  C   UNL     1      -6.818  12.819  23.971  0.00  0.00    +0.000 C 
ATOM     13  C   UNL     1      -5.980  12.690  22.739  0.00  0.00    +0.000 A 
ATOM     14  N   UNL     1      -6.652  12.124  21.723  0.00  0.00    +0.000 NA
ATOM     15  C   UNL     1      -6.087  12.008  20.539  0.00  0.00    +0.000 A 
ATOM     16  C   UNL     1      -6.919  11.382  19.630  0.00  0.00    +0.000 A 
ATOM     17  C   UNL     1      -6.534  11.115  18.334  0.00  0.00    +0.000 A 
ATOM     18  C   UNL     1      -5.268  11.522  17.951  0.00  0.00    +0.000 A 
ATOM     19 CL   UNL     1      -4.730  11.162  16.350  0.00  0.00    +0.000 Cl
ATOM     20  C   UNL     1      -4.412  12.197  18.855  0.00  0.00    +0.000 A 
ATOM     21  C   UNL     1      -4.759  12.436  20.240  0.00  0.00    +0.000 A 
ATOM     22  C   UNL     1      -3.965  12.984  21.371  0.00  0.00    +0.000 A 
ATOM     23  C   UNL     1      -4.641  13.122  22.619  0.00  0.00    +0.000 A 
ATOM     24  C   UNL     1      -4.013  13.702  23.862  0.00  0.00    +0.000 C 
ENDBRANCH   1  22
BRANCH   9  25
ATOM     25  N   UNL     1       1.345  16.125  19.577  0.00  0.00    +0.000 N 
ATOM     26  C   UNL     1       2.194  16.543  20.735  0.00  0.00    +0.000 C 
ATOM     27  C   UNL     1       3.264  17.596  20.271  0.00  0.00    +0.000 C 
ATOM     28  O   UNL     1       4.119  17.089  19.227  0.00  0.00    +0.000 OA
ATOM     29  C   UNL     1       3.329  16.754  18.090  0.00  0.00    +0.000 C 
ATOM     30  C   UNL     1       2.281  15.692  18.457  0.00  0.00    +0.000 C 
ENDBRANCH   9  25
TORSDOF 2
ENDMDL
