MODEL 1
REMARK VINA RESULT:      -6.9      0.000      0.000
REMARK  Name = 
REMARK  1 active torsions:
REMARK  status: ('A' for Active; 'I' for Inactive)
REMARK    1  A    between atoms: C_8  and  N_9
REMARK                            x       y       z     vdW  Elec       q    Type
REMARK                         _______ _______ _______ _____ _____    ______ ____
ROOT
ATOM      1  F   UNL     1       4.650   2.006  20.833  0.00  0.00    +0.000 F 
ATOM      2  C   UNL     1       3.478   2.601  20.550  0.00  0.00    +0.000 A 
ATOM      3  C   UNL     1       2.491   2.560  21.532  0.00  0.00    +0.000 A 
ATOM      4  C   UNL     1       1.256   3.150  21.295  0.00  0.00    +0.000 A 
ATOM      5  C   UNL     1       1.020   3.774  20.070  0.00  0.00    +0.000 A 
ATOM      6  C   UNL     1       2.028   3.829  19.096  0.00  0.00    +0.000 A 
ATOM      7 CL   UNL     1       1.645   4.613  17.599  0.00  0.00    +0.000 Cl
ATOM      8  C   UNL     1       3.294   3.261  19.323  0.00  0.00    +0.000 A 
ENDROOT
BRANCH   8   9
ATOM      9  N   UNL     1       4.291   3.293  18.320  0.00  0.00    +0.000 NA
ATOM     10  C   UNL     1       5.261   4.134  18.374  0.00  0.00    +0.000 C 
ATOM     11  N   UNL     1       6.261   4.168  17.439  0.00  0.00    +0.000 N 
ATOM     12  C   UNL     1       7.202   5.245  17.649  0.00  0.00    +0.000 C 
ATOM     13  C   UNL     1       6.940   5.582  19.122  0.00  0.00    +0.000 C 
ATOM     14  N   UNL     1       5.570   5.117  19.288  0.00  0.00    +0.000 N 
ATOM     15  H   UNL     1       6.067   3.783  16.525  0.00  0.00    +0.000 HD
ATOM     16  H   UNL     1       5.255   4.954  20.234  0.00  0.00    +0.000 HD
ENDBRANCH   8   9
TORSDOF 1
ENDMDL
MODEL 2
REMARK VINA RESULT:      -6.5      2.044      2.293
REMARK  Name = 
REMARK  1 active torsions:
REMARK  status: ('A' for Active; 'I' for Inactive)
REMARK    1  A    between atoms: C_8  and  N_9
REMARK                            x       y       z     vdW  Elec       q    Type
REMARK                         _______ _______ _______ _____ _____    ______ ____
ROOT
ATOM      1  F   UNL     1       3.348   5.753  20.388  0.00  0.00    +0.000 F 
ATOM      2  C   UNL     1       2.796   4.584  20.019  0.00  0.00    +0.000 A 
ATOM      3  C   UNL     1       1.416   4.457  20.167  0.00  0.00    +0.000 A 
ATOM      4  C   UNL     1       0.790   3.270  19.811  0.00  0.00    +0.000 A 
ATOM      5  C   UNL     1       1.555   2.215  19.312  0.00  0.00    +0.000 A 
ATOM      6  C   UNL     1       2.941   2.361  19.147  0.00  0.00    +0.000 A 
ATOM      7 CL   UNL     1       3.815   0.997  18.533  0.00  0.00    +0.000 Cl
ATOM      8  C   UNL     1       3.593   3.562  19.476  0.00  0.00    +0.000 A 
ENDROOT
BRANCH   8   9
ATOM      9  N   UNL     1       4.995   3.684  19.338  0.00  0.00    +0.000 NA
ATOM     10  C   UNL     1       5.519   4.120  18.248  0.00  0.00    +0.000 C 
ATOM     11  N   UNL     1       6.870   4.283  18.092  0.00  0.00    +0.000 N 
ATOM     12  C   UNL     1       7.245   4.705  16.761  0.00  0.00    +0.000 C 
ATOM     13  C   UNL     1       5.912   5.260  16.243  0.00  0.00    +0.000 C 
ATOM     14  N   UNL     1       4.954   4.529  17.060  0.00  0.00    +0.000 N 
ATOM     15  H   UNL     1       7.483   3.743  18.686  0.00  0.00    +0.000 HD
ATOM     16  H   UNL     1       4.023   4.915  17.126  0.00  0.00    +0.000 HD
ENDBRANCH   8   9
TORSDOF 1
ENDMDL
MODEL 3
REMARK VINA RESULT:      -6.5      2.027      2.406
REMARK  Name = 
REMARK  1 active torsions:
REMARK  status: ('A' for Active; 'I' for Inactive)
REMARK    1  A    between atoms: C_8  and  N_9
REMARK                            x       y       z     vdW  Elec       q    Type
REMARK                         _______ _______ _______ _____ _____    ______ ____
ROOT
ATOM      1  F   UNL     1       1.475   4.446  17.718  0.00  0.00    +0.000 F 
ATOM      2  C   UNL     1       1.845   3.869  18.874  0.00  0.00    +0.000 A 
ATOM      3  C   UNL     1       0.969   3.985  19.951  0.00  0.00    +0.000 A 
ATOM      4  C   UNL     1       1.300   3.417  21.174  0.00  0.00    +0.000 A 
ATOM      5  C   UNL     1       2.511   2.738  21.308  0.00  0.00    +0.000 A 
ATOM      6  C   UNL     1       3.377   2.609  20.211  0.00  0.00    +0.000 A 
ATOM      7 CL   UNL     1       4.865   1.760  20.470  0.00  0.00    +0.000 Cl
ATOM      8  C   UNL     1       3.051   3.153  18.957  0.00  0.00    +0.000 A 
ENDROOT
BRANCH   8   9
ATOM      9  N   UNL     1       3.947   3.045  17.868  0.00  0.00    +0.000 NA
ATOM     10  C   UNL     1       4.924   3.870  17.727  0.00  0.00    +0.000 C 
ATOM     11  N   UNL     1       5.829   3.772  16.705  0.00  0.00    +0.000 N 
ATOM     12  C   UNL     1       6.793   4.850  16.691  0.00  0.00    +0.000 C 
ATOM     13  C   UNL     1       6.675   5.368  18.130  0.00  0.00    +0.000 C 
ATOM     14  N   UNL     1       5.324   4.951  18.480  0.00  0.00    +0.000 N 
ATOM     15  H   UNL     1       5.547   3.283  15.867  0.00  0.00    +0.000 HD
ATOM     16  H   UNL     1       5.101   4.910  19.464  0.00  0.00    +0.000 HD
ENDBRANCH   8   9
TORSDOF 1
ENDMDL
MODEL 4
REMARK VINA RESULT:      -6.4      1.415      1.792
REMARK  Name = 
REMARK  1 active torsions:
REMARK  status: ('A' for Active; 'I' for Inactive)
REMARK    1  A    between atoms: C_8  and  N_9
REMARK                            x       y       z     vdW  Elec       q    Type
REMARK                         _______ _______ _______ _____ _____    ______ ____
ROOT
ATOM      1  F   UNL     1       4.041   2.194  20.563  0.00  0.00    +0.000 F 
ATOM      2  C   UNL     1       3.174   2.829  19.755  0.00  0.00    +0.000 A 
ATOM      3  C   UNL     1       2.038   2.124  19.363  0.00  0.00    +0.000 A 
ATOM      4  C   UNL     1       1.110   2.725  18.522  0.00  0.00    +0.000 A 
ATOM      5  C   UNL     1       1.332   4.029  18.077  0.00  0.00    +0.000 A 
ATOM      6  C   UNL     1       2.469   4.737  18.496  0.00  0.00    +0.000 A 
ATOM      7 CL   UNL     1       2.671   6.346  17.886  0.00  0.00    +0.000 Cl
ATOM      8  C   UNL     1       3.408   4.159  19.367  0.00  0.00    +0.000 A 
ENDROOT
BRANCH   8   9
ATOM      9  N   UNL     1       4.568   4.870  19.755  0.00  0.00    +0.000 NA
ATOM     10  C   UNL     1       5.654   4.794  19.072  0.00  0.00    +0.000 C 
ATOM     11  N   UNL     1       6.782   5.496  19.399  0.00  0.00    +0.000 N 
ATOM     12  C   UNL     1       7.910   5.196  18.545  0.00  0.00    +0.000 C 
ATOM     13  C   UNL     1       7.203   4.581  17.331  0.00  0.00    +0.000 C 
ATOM     14  N   UNL     1       5.969   4.090  17.930  0.00  0.00    +0.000 N 
ATOM     15  H   UNL     1       6.890   5.800  20.356  0.00  0.00    +0.000 HD
ATOM     16  H   UNL     1       5.200   3.903  17.302  0.00  0.00    +0.000 HD
ENDBRANCH   8   9
TORSDOF 1
ENDMDL
MODEL 5
REMARK VINA RESULT:      -6.4      1.747      2.009
REMARK  Name = 
REMARK  1 active torsions:
REMARK  status: ('A' for Active; 'I' for Inactive)
REMARK    1  A    between atoms: C_8  and  N_9
REMARK                            x       y       z     vdW  Elec       q    Type
REMARK                         _______ _______ _______ _____ _____    ______ ____
ROOT
ATOM      1  F   UNL     1       3.839   1.027  18.361  0.00  0.00    +0.000 F 
ATOM      2  C   UNL     1       3.016   2.006  18.775  0.00  0.00    +0.000 A 
ATOM      3  C   UNL     1       1.650   1.732  18.769  0.00  0.00    +0.000 A 
ATOM      4  C   UNL     1       0.749   2.707  19.178  0.00  0.00    +0.000 A 
ATOM      5  C   UNL     1       1.227   3.953  19.585  0.00  0.00    +0.000 A 
ATOM      6  C   UNL     1       2.606   4.211  19.607  0.00  0.00    +0.000 A 
ATOM      7 CL   UNL     1       3.111   5.788  20.115  0.00  0.00    +0.000 Cl
ATOM      8  C   UNL     1       3.538   3.231  19.223  0.00  0.00    +0.000 A 
ENDROOT
BRANCH   8   9
ATOM      9  N   UNL     1       4.924   3.515  19.217  0.00  0.00    +0.000 NA
ATOM     10  C   UNL     1       5.506   3.958  18.160  0.00  0.00    +0.000 C 
ATOM     11  N   UNL     1       6.838   4.276  18.130  0.00  0.00    +0.000 N 
ATOM     12  C   UNL     1       7.300   4.675  16.820  0.00  0.00    +0.000 C 
ATOM     13  C   UNL     1       5.975   5.040  16.139  0.00  0.00    +0.000 C 
ATOM     14  N   UNL     1       5.026   4.239  16.900  0.00  0.00    +0.000 N 
ATOM     15  H   UNL     1       7.443   3.843  18.813  0.00  0.00    +0.000 HD
ATOM     16  H   UNL     1       4.055   4.512  16.849  0.00  0.00    +0.000 HD
ENDBRANCH   8   9
TORSDOF 1
ENDMDL
MODEL 6
REMARK VINA RESULT:      -6.3      2.344      2.848
REMARK  Name = 
REMARK  1 active torsions:
REMARK  status: ('A' for Active; 'I' for Inactive)
REMARK    1  A    between atoms: C_8  and  N_9
REMARK                            x       y       z     vdW  Elec       q    Type
REMARK                         _______ _______ _______ _____ _____    ______ ____
ROOT
ATOM      1  F   UNL     1       2.343   5.859  17.966  0.00  0.00    +0.000 F 
ATOM      2  C   UNL     1       2.313   4.595  18.423  0.00  0.00    +0.000 A 
ATOM      3  C   UNL     1       1.213   3.816  18.068  0.00  0.00    +0.000 A 
ATOM      4  C   UNL     1       1.122   2.505  18.517  0.00  0.00    +0.000 A 
ATOM      5  C   UNL     1       2.135   1.986  19.323  0.00  0.00    +0.000 A 
ATOM      6  C   UNL     1       3.249   2.771  19.657  0.00  0.00    +0.000 A 
ATOM      7 CL   UNL     1       4.453   2.050  20.672  0.00  0.00    +0.000 Cl
ATOM      8  C   UNL     1       3.375   4.092  19.193  0.00  0.00    +0.000 A 
ENDROOT
BRANCH   8   9
ATOM      9  N   UNL     1       4.486   4.885  19.564  0.00  0.00    +0.000 NA
ATOM     10  C   UNL     1       5.589   4.832  18.907  0.00  0.00    +0.000 C 
ATOM     11  N   UNL     1       6.671   5.611  19.219  0.00  0.00    +0.000 N 
ATOM     12  C   UNL     1       7.831   5.329  18.403  0.00  0.00    +0.000 C 
ATOM     13  C   UNL     1       7.185   4.615  17.210  0.00  0.00    +0.000 C 
ATOM     14  N   UNL     1       5.966   4.090  17.810  0.00  0.00    +0.000 N 
ATOM     15  H   UNL     1       6.741   5.969  20.161  0.00  0.00    +0.000 HD
ATOM     16  H   UNL     1       5.223   3.829  17.178  0.00  0.00    +0.000 HD
ENDBRANCH   8   9
TORSDOF 1
ENDMDL
MODEL 7
REMARK VINA RESULT:      -6.2      1.844      2.004
REMARK  Name = 
REMARK  1 active torsions:
REMARK  status: ('A' for Active; 'I' for Inactive)
REMARK    1  A    between atoms: C_8  and  N_9
REMARK                            x       y       z     vdW  Elec       q    Type
REMARK                         _______ _______ _______ _____ _____    ______ ____
ROOT
ATOM      1  F   UNL     1       2.715   2.157  17.446  0.00  0.00    +0.000 F 
ATOM      2  C   UNL     1       2.309   2.926  18.471  0.00  0.00    +0.000 A 
ATOM      3  C   UNL     1       1.611   2.296  19.500  0.00  0.00    +0.000 A 
ATOM      4  C   UNL     1       1.158   3.039  20.582  0.00  0.00    +0.000 A 
ATOM      5  C   UNL     1       1.407   4.411  20.623  0.00  0.00    +0.000 A 
ATOM      6  C   UNL     1       2.130   5.031  19.592  0.00  0.00    +0.000 A 
ATOM      7 CL   UNL     1       2.383   6.741  19.718  0.00  0.00    +0.000 Cl
ATOM      8  C   UNL     1       2.620   4.295  18.500  0.00  0.00    +0.000 A 
ENDROOT
BRANCH   8   9
ATOM      9  N   UNL     1       3.318   4.938  17.451  0.00  0.00    +0.000 NA
ATOM     10  C   UNL     1       4.599   5.043  17.471  0.00  0.00    +0.000 C 
ATOM     11  N   UNL     1       5.308   5.628  16.456  0.00  0.00    +0.000 N 
ATOM     12  C   UNL     1       6.726   5.713  16.725  0.00  0.00    +0.000 C 
ATOM     13  C   UNL     1       6.879   4.660  17.829  0.00  0.00    +0.000 C 
ATOM     14  N   UNL     1       5.536   4.630  18.392  0.00  0.00    +0.000 N 
ATOM     15  H   UNL     1       4.825   6.286  15.860  0.00  0.00    +0.000 HD
ATOM     16  H   UNL     1       5.289   3.816  18.937  0.00  0.00    +0.000 HD
ENDBRANCH   8   9
TORSDOF 1
ENDMDL
MODEL 8
REMARK VINA RESULT:      -6.2      1.379      1.515
REMARK  Name = 
REMARK  1 active torsions:
REMARK  status: ('A' for Active; 'I' for Inactive)
REMARK    1  A    between atoms: C_8  and  N_9
REMARK                            x       y       z     vdW  Elec       q    Type
REMARK                         _______ _______ _______ _____ _____    ______ ____
ROOT
ATOM      1  F   UNL     1       3.501   1.474  18.784  0.00  0.00    +0.000 F 
ATOM      2  C   UNL     1       2.938   2.611  19.227  0.00  0.00    +0.000 A 
ATOM      3  C   UNL     1       2.276   2.556  20.453  0.00  0.00    +0.000 A 
ATOM      4  C   UNL     1       1.668   3.698  20.959  0.00  0.00    +0.000 A 
ATOM      5  C   UNL     1       1.724   4.885  20.230  0.00  0.00    +0.000 A 
ATOM      6  C   UNL     1       2.412   4.934  19.008  0.00  0.00    +0.000 A 
ATOM      7 CL   UNL     1       2.422   6.447  18.163  0.00  0.00    +0.000 Cl
ATOM      8  C   UNL     1       3.057   3.799  18.487  0.00  0.00    +0.000 A 
ENDROOT
BRANCH   8   9
ATOM      9  N   UNL     1       3.718   3.853  17.238  0.00  0.00    +0.000 NA
ATOM     10  C   UNL     1       4.955   4.191  17.155  0.00  0.00    +0.000 C 
ATOM     11  N   UNL     1       5.634   4.220  15.966  0.00  0.00    +0.000 N 
ATOM     12  C   UNL     1       6.989   4.708  16.093  0.00  0.00    +0.000 C 
ATOM     13  C   UNL     1       7.230   4.517  17.595  0.00  0.00    +0.000 C 
ATOM     14  N   UNL     1       5.870   4.557  18.117  0.00  0.00    +0.000 N 
ATOM     15  H   UNL     1       5.096   4.319  15.116  0.00  0.00    +0.000 HD
ATOM     16  H   UNL     1       5.723   4.167  19.036  0.00  0.00    +0.000 HD
ENDBRANCH   8   9
TORSDOF 1
ENDMDL
MODEL 9
REMARK VINA RESULT:      -6.2      2.175      2.528
REMARK  Name = 
REMARK  1 active torsions:
REMARK  status: ('A' for Active; 'I' for Inactive)
REMARK    1  A    between atoms: C_8  and  N_9
REMARK                            x       y       z     vdW  Elec       q    Type
REMARK                         _______ _______ _______ _____ _____    ______ ____
ROOT
ATOM      1  F   UNL     1       2.289   6.028  18.039  0.00  0.00    +0.000 F 
ATOM      2  C   UNL     1       2.286   4.880  18.738  0.00  0.00    +0.000 A 
ATOM      3  C   UNL     1       1.588   4.874  19.945  0.00  0.00    +0.000 A 
ATOM      4  C   UNL     1       1.555   3.719  20.716  0.00  0.00    +0.000 A 
ATOM      5  C   UNL     1       2.226   2.580  20.272  0.00  0.00    +0.000 A 
ATOM      6  C   UNL     1       2.908   2.591  19.046  0.00  0.00    +0.000 A 
ATOM      7 CL   UNL     1       3.724   1.136  18.578  0.00  0.00    +0.000 Cl
ATOM      8  C   UNL     1       2.934   3.740  18.236  0.00  0.00    +0.000 A 
ENDROOT
BRANCH   8   9
ATOM      9  N   UNL     1       3.652   3.749  17.018  0.00  0.00    +0.000 NA
ATOM     10  C   UNL     1       4.880   4.127  16.974  0.00  0.00    +0.000 C 
ATOM     11  N   UNL     1       5.615   4.115  15.819  0.00  0.00    +0.000 N 
ATOM     12  C   UNL     1       6.945   4.659  15.982  0.00  0.00    +0.000 C 
ATOM     13  C   UNL     1       7.118   4.559  17.502  0.00  0.00    +0.000 C 
ATOM     14  N   UNL     1       5.734   4.579  17.955  0.00  0.00    +0.000 N 
ATOM     15  H   UNL     1       5.117   4.147  14.940  0.00  0.00    +0.000 HD
ATOM     16  H   UNL     1       5.555   4.234  18.888  0.00  0.00    +0.000 HD
ENDBRANCH   8   9
TORSDOF 1
ENDMDL
