MODEL 1
REMARK VINA RESULT:      -6.6      0.000      0.000
REMARK  Name = 
REMARK  8 active torsions:
REMARK  status: ('A' for Active; 'I' for Inactive)
REMARK    1  A    between atoms: C_1  and  C_2
REMARK    2  A    between atoms: C_6  and  C_7
REMARK    3  A    between atoms: C_8  and  N_9
REMARK    4  A    between atoms: C_10  and  C_12
REMARK    5  A    between atoms: C_12  and  C_13
REMARK    6  A    between atoms: C_12  and  N_14
REMARK    7  A    between atoms: N_14  and  C_15
REMARK    8  A    between atoms: N_14  and  C_16
REMARK                            x       y       z     vdW  Elec       q    Type
REMARK                         _______ _______ _______ _____ _____    ______ ____
ROOT
ATOM      1  N   UNL     1       4.124   4.418  18.129  0.00  0.00    +0.000 N 
ATOM      2  C   UNL     1       5.405   4.738  18.571  0.00  0.00    +0.000 C 
ATOM      3  O   UNL     1       5.801   4.662  19.734  0.00  0.00    +0.000 OA
ATOM      4  H   UNL     1       3.892   4.953  17.297  0.00  0.00    +0.000 HD
ENDROOT
BRANCH   1  12
ATOM      5  C   UNL     1       2.516   6.500  19.634  0.00  0.00    +0.000 C 
ATOM      6  C   UNL     1       2.284   5.010  19.688  0.00  0.00    +0.000 A 
ATOM      7  C   UNL     1       1.273   4.569  20.566  0.00  0.00    +0.000 A 
ATOM      8  C   UNL     1       1.020   3.214  20.740  0.00  0.00    +0.000 A 
ATOM      9  C   UNL     1       1.769   2.278  20.040  0.00  0.00    +0.000 A 
ATOM     10  C   UNL     1       2.783   2.685  19.159  0.00  0.00    +0.000 A 
ATOM     11  C   UNL     1       3.513   1.617  18.390  0.00  0.00    +0.000 C 
ATOM     12  C   UNL     1       3.043   4.066  18.974  0.00  0.00    +0.000 A 
ENDBRANCH   1  12
BRANCH   2  13
ATOM     13  C   UNL     1       6.324   5.275  17.426  0.00  0.00    +0.000 C 
ATOM     14  C   UNL     1       7.676   4.561  17.571  0.00  0.00    +0.000 C 
BRANCH  13  15
ATOM     15  N   UNL     1       5.681   5.047  16.092  0.00  0.00    +0.000 NA
ATOM     16  C   UNL     1       5.298   6.333  15.473  0.00  0.00    +0.000 C 
ATOM     17  C   UNL     1       6.586   4.370  15.141  0.00  0.00    +0.000 C 
ENDBRANCH  13  15
ENDBRANCH   2  13
TORSDOF 3
ENDMDL
MODEL 2
REMARK VINA RESULT:      -6.6      0.237      2.194
REMARK  Name = 
REMARK  8 active torsions:
REMARK  status: ('A' for Active; 'I' for Inactive)
REMARK    1  A    between atoms: C_1  and  C_2
REMARK    2  A    between atoms: C_6  and  C_7
REMARK    3  A    between atoms: C_8  and  N_9
REMARK    4  A    between atoms: C_10  and  C_12
REMARK    5  A    between atoms: C_12  and  C_13
REMARK    6  A    between atoms: C_12  and  N_14
REMARK    7  A    between atoms: N_14  and  C_15
REMARK    8  A    between atoms: N_14  and  C_16
REMARK                            x       y       z     vdW  Elec       q    Type
REMARK                         _______ _______ _______ _____ _____    ______ ____
ROOT
ATOM      1  N   UNL     1       4.037   4.460  18.097  0.00  0.00    +0.000 N 
ATOM      2  C   UNL     1       5.397   4.481  18.396  0.00  0.00    +0.000 C 
ATOM      3  O   UNL     1       5.914   4.020  19.414  0.00  0.00    +0.000 OA
ATOM      4  H   UNL     1       3.795   5.239  17.492  0.00  0.00    +0.000 HD
ENDROOT
BRANCH   1  12
ATOM      5  C   UNL     1       3.379   1.518  18.411  0.00  0.00    +0.000 C 
ATOM      6  C   UNL     1       2.695   2.650  19.139  0.00  0.00    +0.000 A 
ATOM      7  C   UNL     1       1.622   2.289  19.980  0.00  0.00    +0.000 A 
ATOM      8  C   UNL     1       0.882   3.258  20.648  0.00  0.00    +0.000 A 
ATOM      9  C   UNL     1       1.202   4.600  20.489  0.00  0.00    +0.000 A 
ATOM     10  C   UNL     1       2.264   4.990  19.659  0.00  0.00    +0.000 A 
ATOM     11  C   UNL     1       2.589   6.458  19.582  0.00  0.00    +0.000 C 
ATOM     12  C   UNL     1       3.025   4.007  18.978  0.00  0.00    +0.000 A 
ENDBRANCH   1  12
BRANCH   2  13
ATOM     13  C   UNL     1       6.245   5.216  17.308  0.00  0.00    +0.000 C 
ATOM     14  C   UNL     1       7.655   4.612  17.361  0.00  0.00    +0.000 C 
BRANCH  13  15
ATOM     15  N   UNL     1       5.598   5.078  15.963  0.00  0.00    +0.000 NA
ATOM     16  C   UNL     1       5.246   6.405  15.417  0.00  0.00    +0.000 C 
ATOM     17  C   UNL     1       6.489   4.435  14.976  0.00  0.00    +0.000 C 
ENDBRANCH  13  15
ENDBRANCH   2  13
TORSDOF 3
ENDMDL
MODEL 3
REMARK VINA RESULT:      -6.5      0.778      1.210
REMARK  Name = 
REMARK  8 active torsions:
REMARK  status: ('A' for Active; 'I' for Inactive)
REMARK    1  A    between atoms: C_1  and  C_2
REMARK    2  A    between atoms: C_6  and  C_7
REMARK    3  A    between atoms: C_8  and  N_9
REMARK    4  A    between atoms: C_10  and  C_12
REMARK    5  A    between atoms: C_12  and  C_13
REMARK    6  A    between atoms: C_12  and  N_14
REMARK    7  A    between atoms: N_14  and  C_15
REMARK    8  A    between atoms: N_14  and  C_16
REMARK                            x       y       z     vdW  Elec       q    Type
REMARK                         _______ _______ _______ _____ _____    ______ ____
ROOT
ATOM      1  N   UNL     1       4.027   4.309  18.045  0.00  0.00    +0.000 N 
ATOM      2  C   UNL     1       5.374   4.335  18.397  0.00  0.00    +0.000 C 
ATOM      3  O   UNL     1       5.837   3.979  19.481  0.00  0.00    +0.000 OA
ATOM      4  H   UNL     1       3.829   5.022  17.348  0.00  0.00    +0.000 HD
ENDROOT
BRANCH   1  12
ATOM      5  C   UNL     1       2.518   6.419  19.612  0.00  0.00    +0.000 C 
ATOM      6  C   UNL     1       2.255   4.934  19.668  0.00  0.00    +0.000 A 
ATOM      7  C   UNL     1       1.266   4.511  20.580  0.00  0.00    +0.000 A 
ATOM      8  C   UNL     1       0.990   3.161  20.758  0.00  0.00    +0.000 A 
ATOM      9  C   UNL     1       1.694   2.212  20.029  0.00  0.00    +0.000 A 
ATOM     10  C   UNL     1       2.685   2.602  19.114  0.00  0.00    +0.000 A 
ATOM     11  C   UNL     1       3.365   1.520  18.318  0.00  0.00    +0.000 C 
ATOM     12  C   UNL     1       2.969   3.977  18.925  0.00  0.00    +0.000 A 
ENDBRANCH   1  12
BRANCH   2  13
ATOM     13  C   UNL     1       6.283   4.928  17.272  0.00  0.00    +0.000 C 
ATOM     14  C   UNL     1       6.039   4.084  16.013  0.00  0.00    +0.000 C 
BRANCH  13  15
ATOM     15  N   UNL     1       5.981   6.382  17.071  0.00  0.00    +0.000 NA
ATOM     16  C   UNL     1       7.216   7.187  17.158  0.00  0.00    +0.000 C 
ATOM     17  C   UNL     1       5.388   6.653  15.745  0.00  0.00    +0.000 C 
ENDBRANCH  13  15
ENDBRANCH   2  13
TORSDOF 3
ENDMDL
MODEL 4
REMARK VINA RESULT:      -6.4      0.834      1.298
REMARK  Name = 
REMARK  8 active torsions:
REMARK  status: ('A' for Active; 'I' for Inactive)
REMARK    1  A    between atoms: C_1  and  C_2
REMARK    2  A    between atoms: C_6  and  C_7
REMARK    3  A    between atoms: C_8  and  N_9
REMARK    4  A    between atoms: C_10  and  C_12
REMARK    5  A    between atoms: C_12  and  C_13
REMARK    6  A    between atoms: C_12  and  N_14
REMARK    7  A    between atoms: N_14  and  C_15
REMARK    8  A    between atoms: N_14  and  C_16
REMARK                            x       y       z     vdW  Elec       q    Type
REMARK                         _______ _______ _______ _____ _____    ______ ____
ROOT
ATOM      1  N   UNL     1       4.302   4.115  17.658  0.00  0.00    +0.000 N 
ATOM      2  C   UNL     1       5.630   4.398  17.966  0.00  0.00    +0.000 C 
ATOM      3  O   UNL     1       6.098   4.490  19.101  0.00  0.00    +0.000 OA
ATOM      4  H   UNL     1       4.053   4.517  16.758  0.00  0.00    +0.000 HD
ENDROOT
BRANCH   1  12
ATOM      5  C   UNL     1       2.946   6.550  18.848  0.00  0.00    +0.000 C 
ATOM      6  C   UNL     1       2.616   5.115  19.182  0.00  0.00    +0.000 A 
ATOM      7  C   UNL     1       1.639   4.917  20.178  0.00  0.00    +0.000 A 
ATOM      8  C   UNL     1       1.306   3.638  20.608  0.00  0.00    +0.000 A 
ATOM      9  C   UNL     1       1.941   2.537  20.048  0.00  0.00    +0.000 A 
ATOM     10  C   UNL     1       2.918   2.702  19.054  0.00  0.00    +0.000 A 
ATOM     11  C   UNL     1       3.520   1.460  18.453  0.00  0.00    +0.000 C 
ATOM     12  C   UNL     1       3.259   4.004  18.609  0.00  0.00    +0.000 A 
ENDBRANCH   1  12
BRANCH   2  13
ATOM     13  C   UNL     1       6.505   4.653  16.696  0.00  0.00    +0.000 C 
ATOM     14  C   UNL     1       5.910   3.798  15.568  0.00  0.00    +0.000 C 
BRANCH  13  15
ATOM     15  N   UNL     1       6.536   6.115  16.369  0.00  0.00    +0.000 NA
ATOM     16  C   UNL     1       5.180   6.605  16.048  0.00  0.00    +0.000 C 
ATOM     17  C   UNL     1       7.027   6.932  17.498  0.00  0.00    +0.000 C 
ENDBRANCH  13  15
ENDBRANCH   2  13
TORSDOF 3
ENDMDL
MODEL 5
REMARK VINA RESULT:      -6.4      0.918      2.068
REMARK  Name = 
REMARK  8 active torsions:
REMARK  status: ('A' for Active; 'I' for Inactive)
REMARK    1  A    between atoms: C_1  and  C_2
REMARK    2  A    between atoms: C_6  and  C_7
REMARK    3  A    between atoms: C_8  and  N_9
REMARK    4  A    between atoms: C_10  and  C_12
REMARK    5  A    between atoms: C_12  and  C_13
REMARK    6  A    between atoms: C_12  and  N_14
REMARK    7  A    between atoms: N_14  and  C_15
REMARK    8  A    between atoms: N_14  and  C_16
REMARK                            x       y       z     vdW  Elec       q    Type
REMARK                         _______ _______ _______ _____ _____    ______ ____
ROOT
ATOM      1  N   UNL     1       4.435   4.162  18.381  0.00  0.00    +0.000 N 
ATOM      2  C   UNL     1       5.550   4.952  18.647  0.00  0.00    +0.000 C 
ATOM      3  O   UNL     1       5.852   5.418  19.746  0.00  0.00    +0.000 OA
ATOM      4  H   UNL     1       4.147   4.270  17.413  0.00  0.00    +0.000 HD
ENDROOT
BRANCH   1  12
ATOM      5  C   UNL     1       4.684   1.902  20.385  0.00  0.00    +0.000 C 
ATOM      6  C   UNL     1       3.498   2.825  20.252  0.00  0.00    +0.000 A 
ATOM      7  C   UNL     1       2.402   2.555  21.096  0.00  0.00    +0.000 A 
ATOM      8  C   UNL     1       1.233   3.303  21.011  0.00  0.00    +0.000 A 
ATOM      9  C   UNL     1       1.142   4.334  20.085  0.00  0.00    +0.000 A 
ATOM     10  C   UNL     1       2.216   4.627  19.231  0.00  0.00    +0.000 A 
ATOM     11  C   UNL     1       2.066   5.796  18.294  0.00  0.00    +0.000 C 
ATOM     12  C   UNL     1       3.412   3.870  19.315  0.00  0.00    +0.000 A 
ENDBRANCH   1  12
BRANCH   2  13
ATOM     13  C   UNL     1       6.397   5.254  17.369  0.00  0.00    +0.000 C 
ATOM     14  C   UNL     1       7.710   4.471  17.511  0.00  0.00    +0.000 C 
BRANCH  13  15
ATOM     15  N   UNL     1       5.627   4.890  16.136  0.00  0.00    +0.000 NA
ATOM     16  C   UNL     1       5.272   6.101  15.367  0.00  0.00    +0.000 C 
ATOM     17  C   UNL     1       6.403   4.021  15.227  0.00  0.00    +0.000 C 
ENDBRANCH  13  15
ENDBRANCH   2  13
TORSDOF 3
ENDMDL
MODEL 6
REMARK VINA RESULT:      -6.4      0.808      2.504
REMARK  Name = 
REMARK  8 active torsions:
REMARK  status: ('A' for Active; 'I' for Inactive)
REMARK    1  A    between atoms: C_1  and  C_2
REMARK    2  A    between atoms: C_6  and  C_7
REMARK    3  A    between atoms: C_8  and  N_9
REMARK    4  A    between atoms: C_10  and  C_12
REMARK    5  A    between atoms: C_12  and  C_13
REMARK    6  A    between atoms: C_12  and  N_14
REMARK    7  A    between atoms: N_14  and  C_15
REMARK    8  A    between atoms: N_14  and  C_16
REMARK                            x       y       z     vdW  Elec       q    Type
REMARK                         _______ _______ _______ _____ _____    ______ ____
ROOT
ATOM      1  N   UNL     1       4.062   4.355  18.065  0.00  0.00    +0.000 N 
ATOM      2  C   UNL     1       5.421   4.424  18.363  0.00  0.00    +0.000 C 
ATOM      3  O   UNL     1       5.944   4.044  19.411  0.00  0.00    +0.000 OA
ATOM      4  H   UNL     1       3.805   5.086  17.408  0.00  0.00    +0.000 HD
ENDROOT
BRANCH   1  12
ATOM      5  C   UNL     1       3.376   1.432  18.480  0.00  0.00    +0.000 C 
ATOM      6  C   UNL     1       2.714   2.593  19.181  0.00  0.00    +0.000 A 
ATOM      7  C   UNL     1       1.650   2.272  20.048  0.00  0.00    +0.000 A 
ATOM      8  C   UNL     1       0.930   3.269  20.695  0.00  0.00    +0.000 A 
ATOM      9  C   UNL     1       1.262   4.601  20.489  0.00  0.00    +0.000 A 
ATOM     10  C   UNL     1       2.317   4.953  19.633  0.00  0.00    +0.000 A 
ATOM     11  C   UNL     1       2.657   6.414  19.505  0.00  0.00    +0.000 C 
ATOM     12  C   UNL     1       3.057   3.941  18.973  0.00  0.00    +0.000 A 
ENDBRANCH   1  12
BRANCH   2  13
ATOM     13  C   UNL     1       6.256   5.102  17.229  0.00  0.00    +0.000 C 
ATOM     14  C   UNL     1       6.056   4.254  15.964  0.00  0.00    +0.000 C 
BRANCH  13  15
ATOM     15  N   UNL     1       5.832   6.528  17.052  0.00  0.00    +0.000 NA
ATOM     16  C   UNL     1       6.990   7.436  17.190  0.00  0.00    +0.000 C 
ATOM     17  C   UNL     1       5.252   6.780  15.717  0.00  0.00    +0.000 C 
ENDBRANCH  13  15
ENDBRANCH   2  13
TORSDOF 3
ENDMDL
MODEL 7
REMARK VINA RESULT:      -6.4      1.167      1.812
REMARK  Name = 
REMARK  8 active torsions:
REMARK  status: ('A' for Active; 'I' for Inactive)
REMARK    1  A    between atoms: C_1  and  C_2
REMARK    2  A    between atoms: C_6  and  C_7
REMARK    3  A    between atoms: C_8  and  N_9
REMARK    4  A    between atoms: C_10  and  C_12
REMARK    5  A    between atoms: C_12  and  C_13
REMARK    6  A    between atoms: C_12  and  N_14
REMARK    7  A    between atoms: N_14  and  C_15
REMARK    8  A    between atoms: N_14  and  C_16
REMARK                            x       y       z     vdW  Elec       q    Type
REMARK                         _______ _______ _______ _____ _____    ______ ____
ROOT
ATOM      1  N   UNL     1       3.992   4.613  18.047  0.00  0.00    +0.000 N 
ATOM      2  C   UNL     1       5.315   4.436  18.440  0.00  0.00    +0.000 C 
ATOM      3  O   UNL     1       5.690   3.806  19.429  0.00  0.00    +0.000 OA
ATOM      4  H   UNL     1       3.890   5.478  17.523  0.00  0.00    +0.000 HD
ENDROOT
BRANCH   1  12
ATOM      5  C   UNL     1       2.471   6.503  19.864  0.00  0.00    +0.000 C 
ATOM      6  C   UNL     1       2.143   5.045  19.648  0.00  0.00    +0.000 A 
ATOM      7  C   UNL     1       1.079   4.526  20.414  0.00  0.00    +0.000 A 
ATOM      8  C   UNL     1       0.736   3.181  20.340  0.00  0.00    +0.000 A 
ATOM      9  C   UNL     1       1.448   2.334  19.501  0.00  0.00    +0.000 A 
ATOM     10  C   UNL     1       2.512   2.821  18.726  0.00  0.00    +0.000 A 
ATOM     11  C   UNL     1       3.198   1.857  17.796  0.00  0.00    +0.000 C 
ATOM     12  C   UNL     1       2.865   4.192  18.794  0.00  0.00    +0.000 A 
ENDBRANCH   1  12
BRANCH   2  13
ATOM     13  C   UNL     1       6.329   5.178  17.510  0.00  0.00    +0.000 C 
ATOM     14  C   UNL     1       5.568   5.542  16.227  0.00  0.00    +0.000 C 
BRANCH  13  15
ATOM     15  N   UNL     1       6.901   6.373  18.211  0.00  0.00    +0.000 NA
ATOM     16  C   UNL     1       8.019   5.974  19.091  0.00  0.00    +0.000 C 
ATOM     17  C   UNL     1       7.438   7.373  17.267  0.00  0.00    +0.000 C 
ENDBRANCH  13  15
ENDBRANCH   2  13
TORSDOF 3
ENDMDL
MODEL 8
REMARK VINA RESULT:      -6.4      1.176      2.860
REMARK  Name = 
REMARK  8 active torsions:
REMARK  status: ('A' for Active; 'I' for Inactive)
REMARK    1  A    between atoms: C_1  and  C_2
REMARK    2  A    between atoms: C_6  and  C_7
REMARK    3  A    between atoms: C_8  and  N_9
REMARK    4  A    between atoms: C_10  and  C_12
REMARK    5  A    between atoms: C_12  and  C_13
REMARK    6  A    between atoms: C_12  and  N_14
REMARK    7  A    between atoms: N_14  and  C_15
REMARK    8  A    between atoms: N_14  and  C_16
REMARK                            x       y       z     vdW  Elec       q    Type
REMARK                         _______ _______ _______ _____ _____    ______ ____
ROOT
ATOM      1  N   UNL     1       4.024   4.688  18.102  0.00  0.00    +0.000 N 
ATOM      2  C   UNL     1       5.383   4.584  18.385  0.00  0.00    +0.000 C 
ATOM      3  O   UNL     1       5.877   3.919  19.297  0.00  0.00    +0.000 OA
ATOM      4  H   UNL     1       3.823   5.575  17.651  0.00  0.00    +0.000 HD
ENDROOT
BRANCH   1  12
ATOM      5  C   UNL     1       3.369   1.729  18.055  0.00  0.00    +0.000 C 
ATOM      6  C   UNL     1       2.661   2.768  18.891  0.00  0.00    +0.000 A 
ATOM      7  C   UNL     1       1.568   2.312  19.655  0.00  0.00    +0.000 A 
ATOM      8  C   UNL     1       0.806   3.196  20.411  0.00  0.00    +0.000 A 
ATOM      9  C   UNL     1       1.125   4.547  20.417  0.00  0.00    +0.000 A 
ATOM     10  C   UNL     1       2.208   5.032  19.666  0.00  0.00    +0.000 A 
ATOM     11  C   UNL     1       2.529   6.499  19.769  0.00  0.00    +0.000 C 
ATOM     12  C   UNL     1       2.990   4.135  18.897  0.00  0.00    +0.000 A 
ENDBRANCH   1  12
BRANCH   2  13
ATOM     13  C   UNL     1       6.268   5.460  17.440  0.00  0.00    +0.000 C 
ATOM     14  C   UNL     1       5.355   5.949  16.306  0.00  0.00    +0.000 C 
BRANCH  13  15
ATOM     15  N   UNL     1       6.900   6.580  18.208  0.00  0.00    +0.000 NA
ATOM     16  C   UNL     1       8.027   6.081  19.024  0.00  0.00    +0.000 C 
ATOM     17  C   UNL     1       7.446   7.629  17.324  0.00  0.00    +0.000 C 
ENDBRANCH  13  15
ENDBRANCH   2  13
TORSDOF 3
ENDMDL
MODEL 9
REMARK VINA RESULT:      -6.4      0.851      2.410
REMARK  Name = 
REMARK  8 active torsions:
REMARK  status: ('A' for Active; 'I' for Inactive)
REMARK    1  A    between atoms: C_1  and  C_2
REMARK    2  A    between atoms: C_6  and  C_7
REMARK    3  A    between atoms: C_8  and  N_9
REMARK    4  A    between atoms: C_10  and  C_12
REMARK    5  A    between atoms: C_12  and  C_13
REMARK    6  A    between atoms: C_12  and  N_14
REMARK    7  A    between atoms: N_14  and  C_15
REMARK    8  A    between atoms: N_14  and  C_16
REMARK                            x       y       z     vdW  Elec       q    Type
REMARK                         _______ _______ _______ _____ _____    ______ ____
ROOT
ATOM      1  N   UNL     1       3.959   4.649  17.894  0.00  0.00    +0.000 N 
ATOM      2  C   UNL     1       5.342   4.676  18.049  0.00  0.00    +0.000 C 
ATOM      3  O   UNL     1       5.967   4.194  18.995  0.00  0.00    +0.000 OA
ATOM      4  H   UNL     1       3.649   5.441  17.338  0.00  0.00    +0.000 HD
ENDROOT
BRANCH   1  12
ATOM      5  C   UNL     1       3.411   1.689  18.246  0.00  0.00    +0.000 C 
ATOM      6  C   UNL     1       2.771   2.798  19.045  0.00  0.00    +0.000 A 
ATOM      7  C   UNL     1       1.794   2.404  19.982  0.00  0.00    +0.000 A 
ATOM      8  C   UNL     1       1.096   3.349  20.726  0.00  0.00    +0.000 A 
ATOM      9  C   UNL     1       1.364   4.699  20.548  0.00  0.00    +0.000 A 
ATOM     10  C   UNL     1       2.331   5.122  19.623  0.00  0.00    +0.000 A 
ATOM     11  C   UNL     1       2.608   6.599  19.527  0.00  0.00    +0.000 C 
ATOM     12  C   UNL     1       3.048   4.164  18.864  0.00  0.00    +0.000 A 
ENDBRANCH   1  12
BRANCH   2  13
ATOM     13  C   UNL     1       6.066   5.447  16.897  0.00  0.00    +0.000 C 
ATOM     14  C   UNL     1       7.057   6.411  17.564  0.00  0.00    +0.000 C 
BRANCH  13  15
ATOM     15  N   UNL     1       6.726   4.482  15.960  0.00  0.00    +0.000 NA
ATOM     16  C   UNL     1       5.770   3.445  15.522  0.00  0.00    +0.000 C 
ATOM     17  C   UNL     1       7.228   5.142  14.737  0.00  0.00    +0.000 C 
ENDBRANCH  13  15
ENDBRANCH   2  13
TORSDOF 3
ENDMDL
