MODEL 1
REMARK VINA RESULT:      -7.6      0.000      0.000
REMARK  Name = 
REMARK  11 active torsions:
REMARK  status: ('A' for Active; 'I' for Inactive)
REMARK    1  A    between atoms: C_1  and  O_2
REMARK    2  A    between atoms: O_2  and  C_3
REMARK    3  A    between atoms: C_6  and  C_7
REMARK    4  A    between atoms: C_8  and  O_9
REMARK    5  A    between atoms: N_12  and  C_13
REMARK    6  A    between atoms: C_15  and  O_16
REMARK    7  A    between atoms: O_16  and  C_17
REMARK    8  A    between atoms: C_18  and  O_19
REMARK    9  A    between atoms: O_19  and  C_20
REMARK   10  A    between atoms: C_21  and  O_22
REMARK   11  A    between atoms: O_22  and  C_23
REMARK                            x       y       z     vdW  Elec       q    Type
REMARK                         _______ _______ _______ _____ _____    ______ ____
ROOT
ATOM      1  C   UNL     1       3.594   4.772  19.145  0.00  0.00    +0.000 C 
ATOM      2  C   UNL     1       2.609   3.559  19.294  0.00  0.00    +0.000 C 
ATOM      3  C   UNL     1       3.541   2.873  18.265  0.00  0.00    +0.000 C 
ATOM      4  O   UNL     1       3.601   1.764  17.778  0.00  0.00    +0.000 OA
ATOM      5  N   UNL     1       4.167   4.052  18.007  0.00  0.00    +0.000 N 
ENDROOT
BRANCH   1   9
ATOM      6  C   UNL     1       1.830   8.721  18.710  0.00  0.00    +0.000 A 
ATOM      7  C   UNL     1       2.477   8.195  17.609  0.00  0.00    +0.000 A 
ATOM      8  C   UNL     1       3.062   6.934  17.728  0.00  0.00    +0.000 A 
ATOM      9  C   UNL     1       2.987   6.208  18.930  0.00  0.00    +0.000 A 
ATOM     10  C   UNL     1       2.309   6.861  19.965  0.00  0.00    +0.000 A 
ATOM     11  N   UNL     1       1.744   8.085  19.893  0.00  0.00    +0.000 NA
BRANCH   6  13
ATOM     12  C   UNL     1       0.817  10.516  19.799  0.00  0.00    +0.000 C 
ATOM     13  O   UNL     1       1.259   9.966  18.561  0.00  0.00    +0.000 OA
ENDBRANCH   6  13
ENDBRANCH   1   9
BRANCH   5  14
ATOM     14  C   UNL     1       5.088   4.407  17.022  0.00  0.00    +0.000 A 
ATOM     15  C   UNL     1       5.994   5.428  17.286  0.00  0.00    +0.000 A 
ATOM     16  C   UNL     1       6.993   5.771  16.377  0.00  0.00    +0.000 A 
ATOM     17  C   UNL     1       7.042   5.139  15.121  0.00  0.00    +0.000 A 
ATOM     18  C   UNL     1       6.101   4.129  14.819  0.00  0.00    +0.000 A 
ATOM     19  C   UNL     1       5.150   3.754  15.787  0.00  0.00    +0.000 A 
BRANCH  16  20
ATOM     20  O   UNL     1       7.947   6.720  16.665  0.00  0.00    +0.000 OA
ATOM     21  C   UNL     1       7.565   7.698  17.634  0.00  0.00    +0.000 C 
ENDBRANCH  16  20
BRANCH  17  22
ATOM     22  O   UNL     1       7.989   5.637  14.257  0.00  0.00    +0.000 OA
ATOM     23  C   UNL     1       7.935   5.210  12.904  0.00  0.00    +0.000 C 
ENDBRANCH  17  22
BRANCH  18  24
ATOM     24  O   UNL     1       6.144   3.576  13.565  0.00  0.00    +0.000 OA
ATOM     25  C   UNL     1       4.946   3.495  12.806  0.00  0.00    +0.000 C 
ENDBRANCH  18  24
ENDBRANCH   5  14
BRANCH   2  26
ATOM     26  O   UNL     1       1.236   3.712  18.843  0.00  0.00    +0.000 OA
ATOM     27  H   UNL     1       1.211   3.312  17.952  0.00  0.00    +0.000 HD
ENDBRANCH   2  26
TORSDOF 7
ENDMDL
MODEL 2
REMARK VINA RESULT:      -7.3      1.424      1.637
REMARK  Name = 
REMARK  11 active torsions:
REMARK  status: ('A' for Active; 'I' for Inactive)
REMARK    1  A    between atoms: C_1  and  O_2
REMARK    2  A    between atoms: O_2  and  C_3
REMARK    3  A    between atoms: C_6  and  C_7
REMARK    4  A    between atoms: C_8  and  O_9
REMARK    5  A    between atoms: N_12  and  C_13
REMARK    6  A    between atoms: C_15  and  O_16
REMARK    7  A    between atoms: O_16  and  C_17
REMARK    8  A    between atoms: C_18  and  O_19
REMARK    9  A    between atoms: O_19  and  C_20
REMARK   10  A    between atoms: C_21  and  O_22
REMARK   11  A    between atoms: O_22  and  C_23
REMARK                            x       y       z     vdW  Elec       q    Type
REMARK                         _______ _______ _______ _____ _____    ______ ____
ROOT
ATOM      1  C   UNL     1       2.732   4.816  20.314  0.00  0.00    +0.000 C 
ATOM      2  C   UNL     1       1.625   3.714  20.465  0.00  0.00    +0.000 C 
ATOM      3  C   UNL     1       2.554   2.873  19.554  0.00  0.00    +0.000 C 
ATOM      4  O   UNL     1       2.538   1.732  19.144  0.00  0.00    +0.000 OA
ATOM      5  N   UNL     1       3.308   3.968  19.270  0.00  0.00    +0.000 N 
ENDROOT
BRANCH   1   9
ATOM      6  C   UNL     1       1.400   8.873  19.501  0.00  0.00    +0.000 A 
ATOM      7  C   UNL     1       2.043   8.204  18.478  0.00  0.00    +0.000 A 
ATOM      8  C   UNL     1       2.491   6.905  18.719  0.00  0.00    +0.000 A 
ATOM      9  C   UNL     1       2.285   6.284  19.963  0.00  0.00    +0.000 A 
ATOM     10  C   UNL     1       1.628   7.077  20.910  0.00  0.00    +0.000 A 
ATOM     11  N   UNL     1       1.194   8.341  20.720  0.00  0.00    +0.000 NA
BRANCH   6  13
ATOM     12  C   UNL     1      -0.375  10.375  19.659  0.00  0.00    +0.000 C 
ATOM     13  O   UNL     1       0.966  10.153  19.232  0.00  0.00    +0.000 OA
ENDBRANCH   6  13
ENDBRANCH   1   9
BRANCH   5  14
ATOM     14  C   UNL     1       4.324   4.165  18.335  0.00  0.00    +0.000 A 
ATOM     15  C   UNL     1       5.618   4.396  18.788  0.00  0.00    +0.000 A 
ATOM     16  C   UNL     1       6.691   4.516  17.907  0.00  0.00    +0.000 A 
ATOM     17  C   UNL     1       6.460   4.494  16.519  0.00  0.00    +0.000 A 
ATOM     18  C   UNL     1       5.144   4.303  16.040  0.00  0.00    +0.000 A 
ATOM     19  C   UNL     1       4.093   4.112  16.956  0.00  0.00    +0.000 A 
BRANCH  16  20
ATOM     20  O   UNL     1       7.986   4.658  18.349  0.00  0.00    +0.000 OA
ATOM     21  C   UNL     1       8.187   5.663  19.344  0.00  0.00    +0.000 C 
ENDBRANCH  16  20
BRANCH  17  22
ATOM     22  O   UNL     1       7.568   4.741  15.743  0.00  0.00    +0.000 OA
ATOM     23  C   UNL     1       7.682   6.026  15.148  0.00  0.00    +0.000 C 
ENDBRANCH  17  22
BRANCH  18  24
ATOM     24  O   UNL     1       4.951   4.345  14.683  0.00  0.00    +0.000 OA
ATOM     25  C   UNL     1       5.682   3.450  13.856  0.00  0.00    +0.000 C 
ENDBRANCH  18  24
ENDBRANCH   5  14
BRANCH   2  26
ATOM     26  O   UNL     1       0.308   3.962  19.904  0.00  0.00    +0.000 OA
ATOM     27  H   UNL     1       0.462   4.158  18.960  0.00  0.00    +0.000 HD
ENDBRANCH   2  26
TORSDOF 7
ENDMDL
MODEL 3
REMARK VINA RESULT:      -7.3      0.271      2.526
REMARK  Name = 
REMARK  11 active torsions:
REMARK  status: ('A' for Active; 'I' for Inactive)
REMARK    1  A    between atoms: C_1  and  O_2
REMARK    2  A    between atoms: O_2  and  C_3
REMARK    3  A    between atoms: C_6  and  C_7
REMARK    4  A    between atoms: C_8  and  O_9
REMARK    5  A    between atoms: N_12  and  C_13
REMARK    6  A    between atoms: C_15  and  O_16
REMARK    7  A    between atoms: O_16  and  C_17
REMARK    8  A    between atoms: C_18  and  O_19
REMARK    9  A    between atoms: O_19  and  C_20
REMARK   10  A    between atoms: C_21  and  O_22
REMARK   11  A    between atoms: O_22  and  C_23
REMARK                            x       y       z     vdW  Elec       q    Type
REMARK                         _______ _______ _______ _____ _____    ______ ____
ROOT
ATOM      1  C   UNL     1       3.468   4.786  19.236  0.00  0.00    +0.000 C 
ATOM      2  C   UNL     1       2.453   3.591  19.286  0.00  0.00    +0.000 C 
ATOM      3  C   UNL     1       3.458   2.898  18.331  0.00  0.00    +0.000 C 
ATOM      4  O   UNL     1       3.540   1.794  17.837  0.00  0.00    +0.000 OA
ATOM      5  N   UNL     1       4.124   4.068  18.143  0.00  0.00    +0.000 N 
ENDROOT
BRANCH   1   9
ATOM      6  C   UNL     1       1.828   8.777  18.709  0.00  0.00    +0.000 A 
ATOM      7  C   UNL     1       2.479   8.215  17.628  0.00  0.00    +0.000 A 
ATOM      8  C   UNL     1       3.025   6.940  17.777  0.00  0.00    +0.000 A 
ATOM      9  C   UNL     1       2.908   6.236  18.988  0.00  0.00    +0.000 A 
ATOM     10  C   UNL     1       2.231   6.925  20.000  0.00  0.00    +0.000 A 
ATOM     11  N   UNL     1       1.703   8.163  19.900  0.00  0.00    +0.000 NA
BRANCH   6  13
ATOM     12  C   UNL     1       0.389  10.397  19.568  0.00  0.00    +0.000 C 
ATOM     13  O   UNL     1       1.296  10.036  18.530  0.00  0.00    +0.000 OA
ENDBRANCH   6  13
ENDBRANCH   1   9
BRANCH   5  14
ATOM     14  C   UNL     1       5.132   4.417  17.244  0.00  0.00    +0.000 A 
ATOM     15  C   UNL     1       5.287   3.667  16.084  0.00  0.00    +0.000 A 
ATOM     16  C   UNL     1       6.217   4.015  15.107  0.00  0.00    +0.000 A 
ATOM     17  C   UNL     1       7.090   5.096  15.328  0.00  0.00    +0.000 A 
ATOM     18  C   UNL     1       6.976   5.844  16.522  0.00  0.00    +0.000 A 
ATOM     19  C   UNL     1       5.977   5.511  17.456  0.00  0.00    +0.000 A 
BRANCH  16  20
ATOM     20  O   UNL     1       6.318   3.331  13.918  0.00  0.00    +0.000 OA
ATOM     21  C   UNL     1       5.219   3.500  13.019  0.00  0.00    +0.000 C 
ENDBRANCH  16  20
BRANCH  17  22
ATOM     22  O   UNL     1       8.047   5.278  14.357  0.00  0.00    +0.000 OA
ATOM     23  C   UNL     1       7.615   5.741  13.085  0.00  0.00    +0.000 C 
ENDBRANCH  17  22
BRANCH  18  24
ATOM     24  O   UNL     1       7.881   6.854  16.727  0.00  0.00    +0.000 OA
ATOM     25  C   UNL     1       7.834   7.582  17.946  0.00  0.00    +0.000 C 
ENDBRANCH  18  24
ENDBRANCH   5  14
BRANCH   2  26
ATOM     26  O   UNL     1       1.127   3.774  18.721  0.00  0.00    +0.000 OA
ATOM     27  H   UNL     1       1.156   4.639  18.269  0.00  0.00    +0.000 HD
ENDBRANCH   2  26
TORSDOF 7
ENDMDL
MODEL 4
REMARK VINA RESULT:      -7.3      2.033      6.657
REMARK  Name = 
REMARK  11 active torsions:
REMARK  status: ('A' for Active; 'I' for Inactive)
REMARK    1  A    between atoms: C_1  and  O_2
REMARK    2  A    between atoms: O_2  and  C_3
REMARK    3  A    between atoms: C_6  and  C_7
REMARK    4  A    between atoms: C_8  and  O_9
REMARK    5  A    between atoms: N_12  and  C_13
REMARK    6  A    between atoms: C_15  and  O_16
REMARK    7  A    between atoms: O_16  and  C_17
REMARK    8  A    between atoms: C_18  and  O_19
REMARK    9  A    between atoms: O_19  and  C_20
REMARK   10  A    between atoms: C_21  and  O_22
REMARK   11  A    between atoms: O_22  and  C_23
REMARK                            x       y       z     vdW  Elec       q    Type
REMARK                         _______ _______ _______ _____ _____    ______ ____
ROOT
ATOM      1  C   UNL     1       3.136   3.294  19.061  0.00  0.00    +0.000 C 
ATOM      2  C   UNL     1       3.398   2.334  20.275  0.00  0.00    +0.000 C 
ATOM      3  C   UNL     1       2.601   3.388  21.083  0.00  0.00    +0.000 C 
ATOM      4  O   UNL     1       2.203   3.461  22.226  0.00  0.00    +0.000 OA
ATOM      5  N   UNL     1       2.660   4.266  20.046  0.00  0.00    +0.000 N 
ENDROOT
BRANCH   1   9
ATOM      6  C   UNL     1       6.560   4.395  16.621  0.00  0.00    +0.000 A 
ATOM      7  C   UNL     1       5.427   3.963  15.959  0.00  0.00    +0.000 A 
ATOM      8  C   UNL     1       4.320   3.592  16.721  0.00  0.00    +0.000 A 
ATOM      9  C   UNL     1       4.345   3.666  18.124  0.00  0.00    +0.000 A 
ATOM     10  C   UNL     1       5.556   4.113  18.663  0.00  0.00    +0.000 A 
ATOM     11  N   UNL     1       6.653   4.466  17.961  0.00  0.00    +0.000 NA
BRANCH   6  13
ATOM     12  C   UNL     1       7.283   4.933  14.471  0.00  0.00    +0.000 C 
ATOM     13  O   UNL     1       7.637   4.758  15.840  0.00  0.00    +0.000 OA
ENDBRANCH   6  13
ENDBRANCH   1   9
BRANCH   5  14
ATOM     14  C   UNL     1       2.317   5.615  19.964  0.00  0.00    +0.000 A 
ATOM     15  C   UNL     1       2.815   6.372  18.911  0.00  0.00    +0.000 A 
ATOM     16  C   UNL     1       2.441   7.701  18.725  0.00  0.00    +0.000 A 
ATOM     17  C   UNL     1       1.611   8.331  19.670  0.00  0.00    +0.000 A 
ATOM     18  C   UNL     1       1.130   7.589  20.772  0.00  0.00    +0.000 A 
ATOM     19  C   UNL     1       1.466   6.228  20.891  0.00  0.00    +0.000 A 
BRANCH  16  20
ATOM     20  O   UNL     1       2.860   8.432  17.637  0.00  0.00    +0.000 OA
ATOM     21  C   UNL     1       3.982   7.895  16.934  0.00  0.00    +0.000 C 
ENDBRANCH  16  20
BRANCH  17  22
ATOM     22  O   UNL     1       1.403   9.674  19.455  0.00  0.00    +0.000 OA
ATOM     23  C   UNL     1       0.178  10.063  18.849  0.00  0.00    +0.000 C 
ENDBRANCH  17  22
BRANCH  18  24
ATOM     24  O   UNL     1       0.370   8.252  21.701  0.00  0.00    +0.000 OA
ATOM     25  C   UNL     1       1.005   9.165  22.585  0.00  0.00    +0.000 C 
ENDBRANCH  18  24
ENDBRANCH   5  14
BRANCH   2  26
ATOM     26  O   UNL     1       4.763   2.142  20.734  0.00  0.00    +0.000 OA
ATOM     27  H   UNL     1       4.911   2.838  21.404  0.00  0.00    +0.000 HD
ENDBRANCH   2  26
TORSDOF 7
ENDMDL
MODEL 5
REMARK VINA RESULT:      -7.2      1.418      2.956
REMARK  Name = 
REMARK  11 active torsions:
REMARK  status: ('A' for Active; 'I' for Inactive)
REMARK    1  A    between atoms: C_1  and  O_2
REMARK    2  A    between atoms: O_2  and  C_3
REMARK    3  A    between atoms: C_6  and  C_7
REMARK    4  A    between atoms: C_8  and  O_9
REMARK    5  A    between atoms: N_12  and  C_13
REMARK    6  A    between atoms: C_15  and  O_16
REMARK    7  A    between atoms: O_16  and  C_17
REMARK    8  A    between atoms: C_18  and  O_19
REMARK    9  A    between atoms: O_19  and  C_20
REMARK   10  A    between atoms: C_21  and  O_22
REMARK   11  A    between atoms: O_22  and  C_23
REMARK                            x       y       z     vdW  Elec       q    Type
REMARK                         _______ _______ _______ _____ _____    ______ ____
ROOT
ATOM      1  C   UNL     1       2.788   5.413  20.524  0.00  0.00    +0.000 C 
ATOM      2  C   UNL     1       1.726   4.286  20.781  0.00  0.00    +0.000 C 
ATOM      3  C   UNL     1       2.800   3.350  20.174  0.00  0.00    +0.000 C 
ATOM      4  O   UNL     1       2.891   2.151  20.013  0.00  0.00    +0.000 OA
ATOM      5  N   UNL     1       3.528   4.416  19.751  0.00  0.00    +0.000 N 
ENDROOT
BRANCH   1   9
ATOM      6  C   UNL     1       1.384   9.125  18.749  0.00  0.00    +0.000 A 
ATOM      7  C   UNL     1       2.042   8.238  17.919  0.00  0.00    +0.000 A 
ATOM      8  C   UNL     1       2.513   7.046  18.468  0.00  0.00    +0.000 A 
ATOM      9  C   UNL     1       2.315   6.743  19.827  0.00  0.00    +0.000 A 
ATOM     10  C   UNL     1       1.641   7.731  20.553  0.00  0.00    +0.000 A 
ATOM     11  N   UNL     1       1.184   8.902  20.061  0.00  0.00    +0.000 NA
BRANCH   6  13
ATOM     12  C   UNL     1       1.387  11.453  18.863  0.00  0.00    +0.000 C 
ATOM     13  O   UNL     1       0.927  10.292  18.176  0.00  0.00    +0.000 OA
ENDBRANCH   6  13
ENDBRANCH   1   9
BRANCH   5  14
ATOM     14  C   UNL     1       4.641   4.495  18.913  0.00  0.00    +0.000 A 
ATOM     15  C   UNL     1       4.608   3.836  17.690  0.00  0.00    +0.000 A 
ATOM     16  C   UNL     1       5.651   3.946  16.772  0.00  0.00    +0.000 A 
ATOM     17  C   UNL     1       6.810   4.665  17.116  0.00  0.00    +0.000 A 
ATOM     18  C   UNL     1       6.879   5.305  18.374  0.00  0.00    +0.000 A 
ATOM     19  C   UNL     1       5.779   5.236  19.248  0.00  0.00    +0.000 A 
BRANCH  16  20
ATOM     20  O   UNL     1       5.589   3.369  15.524  0.00  0.00    +0.000 OA
ATOM     21  C   UNL     1       4.994   4.175  14.505  0.00  0.00    +0.000 C 
ENDBRANCH  16  20
BRANCH  17  22
ATOM     22  O   UNL     1       7.824   4.609  16.188  0.00  0.00    +0.000 OA
ATOM     23  C   UNL     1       7.772   5.519  15.099  0.00  0.00    +0.000 C 
ENDBRANCH  17  22
BRANCH  18  24
ATOM     24  O   UNL     1       8.047   5.949  18.696  0.00  0.00    +0.000 OA
ATOM     25  C   UNL     1       8.147   7.348  18.470  0.00  0.00    +0.000 C 
ENDBRANCH  18  24
ENDBRANCH   5  14
BRANCH   2  26
ATOM     26  O   UNL     1       0.477   4.318  20.040  0.00  0.00    +0.000 OA
ATOM     27  H   UNL     1      -0.209   4.539  20.699  0.00  0.00    +0.000 HD
ENDBRANCH   2  26
TORSDOF 7
ENDMDL
MODEL 6
REMARK VINA RESULT:      -7.1      1.410      1.815
REMARK  Name = 
REMARK  11 active torsions:
REMARK  status: ('A' for Active; 'I' for Inactive)
REMARK    1  A    between atoms: C_1  and  O_2
REMARK    2  A    between atoms: O_2  and  C_3
REMARK    3  A    between atoms: C_6  and  C_7
REMARK    4  A    between atoms: C_8  and  O_9
REMARK    5  A    between atoms: N_12  and  C_13
REMARK    6  A    between atoms: C_15  and  O_16
REMARK    7  A    between atoms: O_16  and  C_17
REMARK    8  A    between atoms: C_18  and  O_19
REMARK    9  A    between atoms: O_19  and  C_20
REMARK   10  A    between atoms: C_21  and  O_22
REMARK   11  A    between atoms: O_22  and  C_23
REMARK                            x       y       z     vdW  Elec       q    Type
REMARK                         _______ _______ _______ _____ _____    ______ ____
ROOT
ATOM      1  C   UNL     1       2.825   5.061  20.424  0.00  0.00    +0.000 C 
ATOM      2  C   UNL     1       1.743   3.953  20.679  0.00  0.00    +0.000 C 
ATOM      3  C   UNL     1       2.735   3.029  19.930  0.00  0.00    +0.000 C 
ATOM      4  O   UNL     1       2.770   1.843  19.679  0.00  0.00    +0.000 OA
ATOM      5  N   UNL     1       3.471   4.100  19.530  0.00  0.00    +0.000 N 
ENDROOT
BRANCH   1   9
ATOM      6  C   UNL     1       1.617   8.868  18.707  0.00  0.00    +0.000 A 
ATOM      7  C   UNL     1       1.362   8.673  20.051  0.00  0.00    +0.000 A 
ATOM      8  C   UNL     1       1.729   7.455  20.622  0.00  0.00    +0.000 A 
ATOM      9  C   UNL     1       2.353   6.453  19.859  0.00  0.00    +0.000 A 
ATOM     10  C   UNL     1       2.545   6.779  18.512  0.00  0.00    +0.000 A 
ATOM     11  N   UNL     1       2.190   7.939  17.920  0.00  0.00    +0.000 NA
BRANCH   6  13
ATOM     12  C   UNL     1       0.463  10.859  19.075  0.00  0.00    +0.000 C 
ATOM     13  O   UNL     1       1.246  10.083  18.173  0.00  0.00    +0.000 OA
ENDBRANCH   6  13
ENDBRANCH   1   9
BRANCH   5  14
ATOM     14  C   UNL     1       4.523   4.204  18.620  0.00  0.00    +0.000 A 
ATOM     15  C   UNL     1       5.685   4.860  19.008  0.00  0.00    +0.000 A 
ATOM     16  C   UNL     1       6.801   4.923  18.177  0.00  0.00    +0.000 A 
ATOM     17  C   UNL     1       6.733   4.391  16.876  0.00  0.00    +0.000 A 
ATOM     18  C   UNL     1       5.544   3.759  16.448  0.00  0.00    +0.000 A 
ATOM     19  C   UNL     1       4.460   3.647  17.338  0.00  0.00    +0.000 A 
BRANCH  16  20
ATOM     20  O   UNL     1       7.984   5.494  18.586  0.00  0.00    +0.000 OA
ATOM     21  C   UNL     1       8.004   6.923  18.595  0.00  0.00    +0.000 C 
ENDBRANCH  16  20
BRANCH  17  22
ATOM     22  O   UNL     1       7.847   4.614  16.100  0.00  0.00    +0.000 OA
ATOM     23  C   UNL     1       7.728   5.534  15.024  0.00  0.00    +0.000 C 
ENDBRANCH  17  22
BRANCH  18  24
ATOM     24  O   UNL     1       5.497   3.305  15.155  0.00  0.00    +0.000 OA
ATOM     25  C   UNL     1       5.008   4.169  14.139  0.00  0.00    +0.000 C 
ENDBRANCH  18  24
ENDBRANCH   5  14
BRANCH   2  26
ATOM     26  O   UNL     1       0.446   4.079  20.036  0.00  0.00    +0.000 OA
ATOM     27  H   UNL     1       0.119   3.164  19.934  0.00  0.00    +0.000 HD
ENDBRANCH   2  26
TORSDOF 7
ENDMDL
MODEL 7
REMARK VINA RESULT:      -7.0      4.624     10.291
REMARK  Name = 
REMARK  11 active torsions:
REMARK  status: ('A' for Active; 'I' for Inactive)
REMARK    1  A    between atoms: C_1  and  O_2
REMARK    2  A    between atoms: O_2  and  C_3
REMARK    3  A    between atoms: C_6  and  C_7
REMARK    4  A    between atoms: C_8  and  O_9
REMARK    5  A    between atoms: N_12  and  C_13
REMARK    6  A    between atoms: C_15  and  O_16
REMARK    7  A    between atoms: O_16  and  C_17
REMARK    8  A    between atoms: C_18  and  O_19
REMARK    9  A    between atoms: O_19  and  C_20
REMARK   10  A    between atoms: C_21  and  O_22
REMARK   11  A    between atoms: O_22  and  C_23
REMARK                            x       y       z     vdW  Elec       q    Type
REMARK                         _______ _______ _______ _____ _____    ______ ____
ROOT
ATOM      1  C   UNL     1       0.898  11.928  19.717  0.00  0.00    +0.000 C 
ATOM      2  C   UNL     1       1.792  13.100  19.177  0.00  0.00    +0.000 C 
ATOM      3  C   UNL     1       0.439  13.759  18.812  0.00  0.00    +0.000 C 
ATOM      4  O   UNL     1       0.111  14.835  18.357  0.00  0.00    +0.000 OA
ATOM      5  N   UNL     1      -0.223  12.597  19.054  0.00  0.00    +0.000 N 
ENDROOT
BRANCH   1   9
ATOM      6  C   UNL     1       1.949   7.816  18.778  0.00  0.00    +0.000 A 
ATOM      7  C   UNL     1       1.886   8.707  17.725  0.00  0.00    +0.000 A 
ATOM      8  C   UNL     1       1.538  10.029  17.999  0.00  0.00    +0.000 A 
ATOM      9  C   UNL     1       1.270  10.454  19.312  0.00  0.00    +0.000 A 
ATOM     10  C   UNL     1       1.364   9.448  20.280  0.00  0.00    +0.000 A 
ATOM     11  N   UNL     1       1.682   8.156  20.053  0.00  0.00    +0.000 NA
BRANCH   6  13
ATOM     12  C   UNL     1       2.647   5.763  19.634  0.00  0.00    +0.000 C 
ATOM     13  O   UNL     1       2.299   6.517  18.476  0.00  0.00    +0.000 OA
ENDBRANCH   6  13
ENDBRANCH   1   9
BRANCH   5  14
ATOM     14  C   UNL     1      -1.543  12.221  18.803  0.00  0.00    +0.000 A 
ATOM     15  C   UNL     1      -2.502  12.441  19.784  0.00  0.00    +0.000 A 
ATOM     16  C   UNL     1      -3.850  12.168  19.563  0.00  0.00    +0.000 A 
ATOM     17  C   UNL     1      -4.251  11.570  18.354  0.00  0.00    +0.000 A 
ATOM     18  C   UNL     1      -3.283  11.299  17.362  0.00  0.00    +0.000 A 
ATOM     19  C   UNL     1      -1.940  11.655  17.587  0.00  0.00    +0.000 A 
BRANCH  16  20
ATOM     20  O   UNL     1      -4.818  12.463  20.495  0.00  0.00    +0.000 OA
ATOM     21  C   UNL     1      -4.766  13.786  21.034  0.00  0.00    +0.000 C 
ENDBRANCH  16  20
BRANCH  17  22
ATOM     22  O   UNL     1      -5.583  11.232  18.288  0.00  0.00    +0.000 OA
ATOM     23  C   UNL     1      -6.463  12.144  17.646  0.00  0.00    +0.000 C 
ENDBRANCH  17  22
BRANCH  18  24
ATOM     24  O   UNL     1      -3.703  10.664  16.221  0.00  0.00    +0.000 OA
ATOM     25  C   UNL     1      -2.731  10.140  15.327  0.00  0.00    +0.000 C 
ENDBRANCH  18  24
ENDBRANCH   5  14
BRANCH   2  26
ATOM     26  O   UNL     1       2.659  12.852  18.038  0.00  0.00    +0.000 OA
ATOM     27  H   UNL     1       2.063  12.798  17.266  0.00  0.00    +0.000 HD
ENDBRANCH   2  26
TORSDOF 7
ENDMDL
MODEL 8
REMARK VINA RESULT:      -7.0      3.418      6.610
REMARK  Name = 
REMARK  11 active torsions:
REMARK  status: ('A' for Active; 'I' for Inactive)
REMARK    1  A    between atoms: C_1  and  O_2
REMARK    2  A    between atoms: O_2  and  C_3
REMARK    3  A    between atoms: C_6  and  C_7
REMARK    4  A    between atoms: C_8  and  O_9
REMARK    5  A    between atoms: N_12  and  C_13
REMARK    6  A    between atoms: C_15  and  O_16
REMARK    7  A    between atoms: O_16  and  C_17
REMARK    8  A    between atoms: C_18  and  O_19
REMARK    9  A    between atoms: O_19  and  C_20
REMARK   10  A    between atoms: C_21  and  O_22
REMARK   11  A    between atoms: O_22  and  C_23
REMARK                            x       y       z     vdW  Elec       q    Type
REMARK                         _______ _______ _______ _____ _____    ______ ____
ROOT
ATOM      1  C   UNL     1       0.789  10.720  19.959  0.00  0.00    +0.000 C 
ATOM      2  C   UNL     1       0.390  11.195  21.400  0.00  0.00    +0.000 C 
ATOM      3  C   UNL     1       1.118   9.907  21.860  0.00  0.00    +0.000 C 
ATOM      4  O   UNL     1       1.399   9.426  22.937  0.00  0.00    +0.000 OA
ATOM      5  N   UNL     1       1.177   9.453  20.580  0.00  0.00    +0.000 N 
ENDROOT
BRANCH   1   9
ATOM      6  C   UNL     1      -2.316  10.904  16.923  0.00  0.00    +0.000 A 
ATOM      7  C   UNL     1      -1.627   9.713  17.048  0.00  0.00    +0.000 A 
ATOM      8  C   UNL     1      -0.617   9.634  18.007  0.00  0.00    +0.000 A 
ATOM      9  C   UNL     1      -0.313  10.728  18.835  0.00  0.00    +0.000 A 
ATOM     10  C   UNL     1      -1.083  11.872  18.596  0.00  0.00    +0.000 A 
ATOM     11  N   UNL     1      -2.057  11.992  17.670  0.00  0.00    +0.000 NA
BRANCH   6  13
ATOM     12  C   UNL     1      -3.007  10.156  14.825  0.00  0.00    +0.000 C 
ATOM     13  O   UNL     1      -3.311  10.950  15.969  0.00  0.00    +0.000 OA
ENDBRANCH   6  13
ENDBRANCH   1   9
BRANCH   5  14
ATOM     14  C   UNL     1       1.548   8.212  20.061  0.00  0.00    +0.000 A 
ATOM     15  C   UNL     1       2.281   8.169  18.881  0.00  0.00    +0.000 A 
ATOM     16  C   UNL     1       2.754   6.968  18.358  0.00  0.00    +0.000 A 
ATOM     17  C   UNL     1       2.413   5.753  18.981  0.00  0.00    +0.000 A 
ATOM     18  C   UNL     1       1.632   5.775  20.158  0.00  0.00    +0.000 A 
ATOM     19  C   UNL     1       1.232   7.010  20.701  0.00  0.00    +0.000 A 
BRANCH  16  20
ATOM     20  O   UNL     1       3.553   6.924  17.238  0.00  0.00    +0.000 OA
ATOM     21  C   UNL     1       4.959   6.888  17.490  0.00  0.00    +0.000 C 
ENDBRANCH  16  20
BRANCH  17  22
ATOM     22  O   UNL     1       2.830   4.624  18.315  0.00  0.00    +0.000 OA
ATOM     23  C   UNL     1       1.855   3.889  17.590  0.00  0.00    +0.000 C 
ENDBRANCH  17  22
BRANCH  18  24
ATOM     24  O   UNL     1       1.273   4.569  20.704  0.00  0.00    +0.000 OA
ATOM     25  C   UNL     1       2.198   3.890  21.542  0.00  0.00    +0.000 C 
ENDBRANCH  18  24
ENDBRANCH   5  14
BRANCH   2  26
ATOM     26  O   UNL     1      -1.017  11.242  21.758  0.00  0.00    +0.000 OA
ATOM     27  H   UNL     1      -1.500  11.239  20.909  0.00  0.00    +0.000 HD
ENDBRANCH   2  26
TORSDOF 7
ENDMDL
MODEL 9
REMARK VINA RESULT:      -6.9      4.235     10.482
REMARK  Name = 
REMARK  11 active torsions:
REMARK  status: ('A' for Active; 'I' for Inactive)
REMARK    1  A    between atoms: C_1  and  O_2
REMARK    2  A    between atoms: O_2  and  C_3
REMARK    3  A    between atoms: C_6  and  C_7
REMARK    4  A    between atoms: C_8  and  O_9
REMARK    5  A    between atoms: N_12  and  C_13
REMARK    6  A    between atoms: C_15  and  O_16
REMARK    7  A    between atoms: O_16  and  C_17
REMARK    8  A    between atoms: C_18  and  O_19
REMARK    9  A    between atoms: O_19  and  C_20
REMARK   10  A    between atoms: C_21  and  O_22
REMARK   11  A    between atoms: O_22  and  C_23
REMARK                            x       y       z     vdW  Elec       q    Type
REMARK                         _______ _______ _______ _____ _____    ______ ____
ROOT
ATOM      1  C   UNL     1       0.862  11.986  19.778  0.00  0.00    +0.000 C 
ATOM      2  C   UNL     1       1.744  13.124  19.154  0.00  0.00    +0.000 C 
ATOM      3  C   UNL     1       0.384  13.754  18.767  0.00  0.00    +0.000 C 
ATOM      4  O   UNL     1       0.046  14.798  18.250  0.00  0.00    +0.000 OA
ATOM      5  N   UNL     1      -0.270  12.607  19.091  0.00  0.00    +0.000 N 
ENDROOT
BRANCH   1   9
ATOM      6  C   UNL     1       1.900   7.821  19.086  0.00  0.00    +0.000 A 
ATOM      7  C   UNL     1       1.940   8.670  17.997  0.00  0.00    +0.000 A 
ATOM      8  C   UNL     1       1.599  10.008  18.192  0.00  0.00    +0.000 A 
ATOM      9  C   UNL     1       1.236  10.489  19.462  0.00  0.00    +0.000 A 
ATOM     10  C   UNL     1       1.231   9.522  20.473  0.00  0.00    +0.000 A 
ATOM     11  N   UNL     1       1.540   8.216  20.321  0.00  0.00    +0.000 NA
BRANCH   6  13
ATOM     12  C   UNL     1       3.257   6.369  17.868  0.00  0.00    +0.000 C 
ATOM     13  O   UNL     1       2.246   6.506  18.863  0.00  0.00    +0.000 OA
ENDBRANCH   6  13
ENDBRANCH   1   9
BRANCH   5  14
ATOM     14  C   UNL     1      -1.591  12.212  18.882  0.00  0.00    +0.000 A 
ATOM     15  C   UNL     1      -1.903  11.488  17.737  0.00  0.00    +0.000 A 
ATOM     16  C   UNL     1      -3.185  10.991  17.513  0.00  0.00    +0.000 A 
ATOM     17  C   UNL     1      -4.220  11.299  18.415  0.00  0.00    +0.000 A 
ATOM     18  C   UNL     1      -3.931  12.072  19.562  0.00  0.00    +0.000 A 
ATOM     19  C   UNL     1      -2.610  12.496  19.797  0.00  0.00    +0.000 A 
BRANCH  16  20
ATOM     20  O   UNL     1      -3.482  10.200  16.427  0.00  0.00    +0.000 OA
ATOM     21  C   UNL     1      -3.116  10.742  15.156  0.00  0.00    +0.000 C 
ENDBRANCH  16  20
BRANCH  17  22
ATOM     22  O   UNL     1      -5.468  10.862  18.036  0.00  0.00    +0.000 OA
ATOM     23  C   UNL     1      -6.399  11.836  17.587  0.00  0.00    +0.000 C 
ENDBRANCH  17  22
BRANCH  18  24
ATOM     24  O   UNL     1      -4.976  12.399  20.387  0.00  0.00    +0.000 OA
ATOM     25  C   UNL     1      -4.697  12.930  21.675  0.00  0.00    +0.000 C 
ENDBRANCH  18  24
ENDBRANCH   5  14
BRANCH   2  26
ATOM     26  O   UNL     1       2.597  12.808  18.021  0.00  0.00    +0.000 OA
ATOM     27  H   UNL     1       2.139  12.088  17.546  0.00  0.00    +0.000 HD
ENDBRANCH   2  26
TORSDOF 7
ENDMDL
