MODEL 1
REMARK VINA RESULT:      -6.9      0.000      0.000
REMARK  Name = 
REMARK  6 active torsions:
REMARK  status: ('A' for Active; 'I' for Inactive)
REMARK    1  A    between atoms: C_1  and  N_2
REMARK    2  A    between atoms: N_2  and  C_3
REMARK    3  A    between atoms: N_2  and  C_5
REMARK    4  A    between atoms: C_5  and  C_6
REMARK    5  A    between atoms: C_6  and  N_7
REMARK    6  A    between atoms: C_16  and  N_17
REMARK                            x       y       z     vdW  Elec       q    Type
REMARK                         _______ _______ _______ _____ _____    ______ ____
ROOT
ATOM      1  N   UNL     1       2.361   7.580  18.940  0.00  0.00    +0.000 N 
ATOM      2  C   UNL     1       3.198   7.094  17.936  0.00  0.00    +0.000 C 
ATOM      3  O   UNL     1       3.721   7.805  17.081  0.00  0.00    +0.000 OA
ATOM      4  C   UNL     1       3.470   5.642  17.926  0.00  0.00    +0.000 A 
ATOM      5  C   UNL     1       4.235   5.089  16.890  0.00  0.00    +0.000 A 
ATOM      6  C   UNL     1       4.551   3.734  16.908  0.00  0.00    +0.000 A 
ATOM      7  C   UNL     1       4.112   2.934  17.961  0.00  0.00    +0.000 A 
ATOM      8  C   UNL     1       3.337   3.473  19.001  0.00  0.00    +0.000 A 
ATOM      9  C   UNL     1       2.907   2.681  20.081  0.00  0.00    +0.000 A 
ATOM     10  C   UNL     1       2.109   3.210  21.101  0.00  0.00    +0.000 A 
ATOM     11  C   UNL     1       1.805   4.569  21.074  0.00  0.00    +0.000 A 
ATOM     12  C   UNL     1       2.229   5.377  20.009  0.00  0.00    +0.000 A 
ATOM     13  C   UNL     1       2.999   4.844  18.973  0.00  0.00    +0.000 A 
ATOM     14  C   UNL     1       1.869   6.812  19.996  0.00  0.00    +0.000 C 
ATOM     15  O   UNL     1       1.175   7.256  20.907  0.00  0.00    +0.000 OA
ENDROOT
BRANCH  10  16
ATOM     16  N   UNL     1       1.831   2.451  22.242  0.00  0.00    +0.000 N 
ATOM     17  H   UNL     1       1.090   2.819  22.829  0.00  0.00    +0.000 HD
ATOM     18  H   UNL     1       2.651   2.181  22.777  0.00  0.00    +0.000 HD
ENDBRANCH  10  16
BRANCH   1  19
ATOM     19  C   UNL     1       2.126   9.031  18.973  0.00  0.00    +0.000 C 
BRANCH  19  20
ATOM     20  C   UNL     1       0.958   9.473  18.086  0.00  0.00    +0.000 C 
BRANCH  20  22
ATOM     21  C   UNL     1      -1.284  10.469  17.935  0.00  0.00    +0.000 C 
ATOM     22  N   UNL     1      -0.028  10.414  18.763  0.00  0.00    +0.000 N 
ATOM     23  C   UNL     1       0.534  11.806  18.876  0.00  0.00    +0.000 C 
ATOM     24  O   UNL     1      -0.339   9.946  20.011  0.00  0.00    +0.000 OA
ENDBRANCH  20  22
ENDBRANCH  19  20
ENDBRANCH   1  19
TORSDOF 4
ENDMDL
MODEL 2
REMARK VINA RESULT:      -6.7      2.950      5.664
REMARK  Name = 
REMARK  6 active torsions:
REMARK  status: ('A' for Active; 'I' for Inactive)
REMARK    1  A    between atoms: C_1  and  N_2
REMARK    2  A    between atoms: N_2  and  C_3
REMARK    3  A    between atoms: N_2  and  C_5
REMARK    4  A    between atoms: C_5  and  C_6
REMARK    5  A    between atoms: C_6  and  N_7
REMARK    6  A    between atoms: C_16  and  N_17
REMARK                            x       y       z     vdW  Elec       q    Type
REMARK                         _______ _______ _______ _____ _____    ______ ____
ROOT
ATOM      1  N   UNL     1       4.081   5.034  16.974  0.00  0.00    +0.000 N 
ATOM      2  C   UNL     1       3.630   3.776  17.376  0.00  0.00    +0.000 C 
ATOM      3  O   UNL     1       4.009   2.723  16.869  0.00  0.00    +0.000 OA
ATOM      4  C   UNL     1       2.654   3.730  18.484  0.00  0.00    +0.000 A 
ATOM      5  C   UNL     1       2.105   2.499  18.869  0.00  0.00    +0.000 A 
ATOM      6  C   UNL     1       1.235   2.437  19.954  0.00  0.00    +0.000 A 
ATOM      7  C   UNL     1       0.920   3.598  20.656  0.00  0.00    +0.000 A 
ATOM      8  C   UNL     1       1.456   4.839  20.275  0.00  0.00    +0.000 A 
ATOM      9  C   UNL     1       1.164   6.015  20.990  0.00  0.00    +0.000 A 
ATOM     10  C   UNL     1       1.673   7.256  20.593  0.00  0.00    +0.000 A 
ATOM     11  C   UNL     1       2.547   7.303  19.510  0.00  0.00    +0.000 A 
ATOM     12  C   UNL     1       2.855   6.142  18.786  0.00  0.00    +0.000 A 
ATOM     13  C   UNL     1       2.323   4.906  19.162  0.00  0.00    +0.000 A 
ATOM     14  C   UNL     1       3.768   6.228  17.625  0.00  0.00    +0.000 C 
ATOM     15  O   UNL     1       4.208   7.327  17.300  0.00  0.00    +0.000 OA
ENDROOT
BRANCH  10  16
ATOM     16  N   UNL     1       1.504   8.379  21.408  0.00  0.00    +0.000 N 
ATOM     17  H   UNL     1       1.679   8.221  22.395  0.00  0.00    +0.000 HD
ATOM     18  H   UNL     1       0.639   8.889  21.245  0.00  0.00    +0.000 HD
ENDBRANCH  10  16
BRANCH   1  19
ATOM     19  C   UNL     1       5.084   5.075  15.900  0.00  0.00    +0.000 C 
BRANCH  19  20
ATOM     20  C   UNL     1       6.334   4.247  16.209  0.00  0.00    +0.000 C 
BRANCH  20  22
ATOM     21  C   UNL     1       6.617   4.688  18.611  0.00  0.00    +0.000 C 
ATOM     22  N   UNL     1       7.254   4.859  17.256  0.00  0.00    +0.000 N 
ATOM     23  C   UNL     1       7.465   6.328  17.007  0.00  0.00    +0.000 C 
ATOM     24  O   UNL     1       8.462   4.217  17.250  0.00  0.00    +0.000 OA
ENDBRANCH  20  22
ENDBRANCH  19  20
ENDBRANCH   1  19
TORSDOF 4
ENDMDL
MODEL 3
REMARK VINA RESULT:      -6.5      3.053      6.519
REMARK  Name = 
REMARK  6 active torsions:
REMARK  status: ('A' for Active; 'I' for Inactive)
REMARK    1  A    between atoms: C_1  and  N_2
REMARK    2  A    between atoms: N_2  and  C_3
REMARK    3  A    between atoms: N_2  and  C_5
REMARK    4  A    between atoms: C_5  and  C_6
REMARK    5  A    between atoms: C_6  and  N_7
REMARK    6  A    between atoms: C_16  and  N_17
REMARK                            x       y       z     vdW  Elec       q    Type
REMARK                         _______ _______ _______ _____ _____    ______ ____
ROOT
ATOM      1  N   UNL     1       5.349   5.114  17.305  0.00  0.00    +0.000 N 
ATOM      2  C   UNL     1       4.889   4.416  18.422  0.00  0.00    +0.000 C 
ATOM      3  O   UNL     1       5.397   3.375  18.831  0.00  0.00    +0.000 OA
ATOM      4  C   UNL     1       3.736   4.986  19.149  0.00  0.00    +0.000 A 
ATOM      5  C   UNL     1       3.182   4.281  20.226  0.00  0.00    +0.000 A 
ATOM      6  C   UNL     1       2.137   4.841  20.957  0.00  0.00    +0.000 A 
ATOM      7  C   UNL     1       1.653   6.103  20.619  0.00  0.00    +0.000 A 
ATOM      8  C   UNL     1       2.193   6.816  19.536  0.00  0.00    +0.000 A 
ATOM      9  C   UNL     1       1.730   8.100  19.199  0.00  0.00    +0.000 A 
ATOM     10  C   UNL     1       2.246   8.798  18.102  0.00  0.00    +0.000 A 
ATOM     11  C   UNL     1       3.295   8.230  17.383  0.00  0.00    +0.000 A 
ATOM     12  C   UNL     1       3.775   6.952  17.706  0.00  0.00    +0.000 A 
ATOM     13  C   UNL     1       3.240   6.240  18.782  0.00  0.00    +0.000 A 
ATOM     14  C   UNL     1       4.874   6.365  16.907  0.00  0.00    +0.000 C 
ATOM     15  O   UNL     1       5.317   7.000  15.954  0.00  0.00    +0.000 OA
ENDROOT
BRANCH  10  16
ATOM     16  N   UNL     1       1.887  10.132  17.884  0.00  0.00    +0.000 N 
ATOM     17  H   UNL     1       1.508  10.326  16.963  0.00  0.00    +0.000 HD
ATOM     18  H   UNL     1       2.593  10.808  18.164  0.00  0.00    +0.000 HD
ENDBRANCH  10  16
BRANCH   1  19
ATOM     19  C   UNL     1       6.523   4.568  16.609  0.00  0.00    +0.000 C 
BRANCH  19  20
ATOM     20  C   UNL     1       6.158   3.597  15.482  0.00  0.00    +0.000 C 
BRANCH  20  22
ATOM     21  C   UNL     1       6.318   3.096  13.081  0.00  0.00    +0.000 C 
ATOM     22  N   UNL     1       6.187   4.208  14.089  0.00  0.00    +0.000 N 
ATOM     23  C   UNL     1       7.356   5.143  13.926  0.00  0.00    +0.000 C 
ATOM     24  O   UNL     1       5.024   4.888  13.852  0.00  0.00    +0.000 OA
ENDBRANCH  20  22
ENDBRANCH  19  20
ENDBRANCH   1  19
TORSDOF 4
ENDMDL
MODEL 4
REMARK VINA RESULT:      -6.5      2.143      3.900
REMARK  Name = 
REMARK  6 active torsions:
REMARK  status: ('A' for Active; 'I' for Inactive)
REMARK    1  A    between atoms: C_1  and  N_2
REMARK    2  A    between atoms: N_2  and  C_3
REMARK    3  A    between atoms: N_2  and  C_5
REMARK    4  A    between atoms: C_5  and  C_6
REMARK    5  A    between atoms: C_6  and  N_7
REMARK    6  A    between atoms: C_16  and  N_17
REMARK                            x       y       z     vdW  Elec       q    Type
REMARK                         _______ _______ _______ _____ _____    ______ ____
ROOT
ATOM      1  N   UNL     1       2.230   6.934  19.322  0.00  0.00    +0.000 N 
ATOM      2  C   UNL     1       1.932   5.648  19.774  0.00  0.00    +0.000 C 
ATOM      3  O   UNL     1       1.066   5.403  20.611  0.00  0.00    +0.000 OA
ATOM      4  C   UNL     1       2.702   4.530  19.190  0.00  0.00    +0.000 A 
ATOM      5  C   UNL     1       2.502   3.229  19.670  0.00  0.00    +0.000 A 
ATOM      6  C   UNL     1       3.175   2.162  19.081  0.00  0.00    +0.000 A 
ATOM      7  C   UNL     1       4.038   2.392  18.012  0.00  0.00    +0.000 A 
ATOM      8  C   UNL     1       4.255   3.692  17.528  0.00  0.00    +0.000 A 
ATOM      9  C   UNL     1       5.106   3.935  16.435  0.00  0.00    +0.000 A 
ATOM     10  C   UNL     1       5.346   5.233  15.971  0.00  0.00    +0.000 A 
ATOM     11  C   UNL     1       4.662   6.291  16.565  0.00  0.00    +0.000 A 
ATOM     12  C   UNL     1       3.805   6.070  17.653  0.00  0.00    +0.000 A 
ATOM     13  C   UNL     1       3.588   4.778  18.137  0.00  0.00    +0.000 A 
ATOM     14  C   UNL     1       3.111   7.217  18.278  0.00  0.00    +0.000 C 
ATOM     15  O   UNL     1       3.332   8.347  17.849  0.00  0.00    +0.000 OA
ENDROOT
BRANCH  10  16
ATOM     16  N   UNL     1       6.063   5.436  14.788  0.00  0.00    +0.000 N 
ATOM     17  H   UNL     1       7.056   5.601  14.914  0.00  0.00    +0.000 HD
ATOM     18  H   UNL     1       5.638   6.103  14.149  0.00  0.00    +0.000 HD
ENDBRANCH  10  16
BRANCH   1  19
ATOM     19  C   UNL     1       1.434   8.039  19.874  0.00  0.00    +0.000 C 
BRANCH  19  20
ATOM     20  C   UNL     1       1.782   8.367  21.328  0.00  0.00    +0.000 C 
BRANCH  20  22
ATOM     21  C   UNL     1      -0.539   8.742  22.045  0.00  0.00    +0.000 C 
ATOM     22  N   UNL     1       0.836   9.354  21.997  0.00  0.00    +0.000 N 
ATOM     23  C   UNL     1       0.760  10.645  21.228  0.00  0.00    +0.000 C 
ATOM     24  O   UNL     1       1.253   9.608  23.275  0.00  0.00    +0.000 OA
ENDBRANCH  20  22
ENDBRANCH  19  20
ENDBRANCH   1  19
TORSDOF 4
ENDMDL
MODEL 5
REMARK VINA RESULT:      -6.4      1.343      3.229
REMARK  Name = 
REMARK  6 active torsions:
REMARK  status: ('A' for Active; 'I' for Inactive)
REMARK    1  A    between atoms: C_1  and  N_2
REMARK    2  A    between atoms: N_2  and  C_3
REMARK    3  A    between atoms: N_2  and  C_5
REMARK    4  A    between atoms: C_5  and  C_6
REMARK    5  A    between atoms: C_6  and  N_7
REMARK    6  A    between atoms: C_16  and  N_17
REMARK                            x       y       z     vdW  Elec       q    Type
REMARK                         _______ _______ _______ _____ _____    ______ ____
ROOT
ATOM      1  N   UNL     1       2.416   7.703  19.117  0.00  0.00    +0.000 N 
ATOM      2  C   UNL     1       1.884   6.885  20.114  0.00  0.00    +0.000 C 
ATOM      3  O   UNL     1       1.055   7.265  20.937  0.00  0.00    +0.000 OA
ATOM      4  C   UNL     1       2.346   5.482  20.155  0.00  0.00    +0.000 A 
ATOM      5  C   UNL     1       1.908   4.641  21.188  0.00  0.00    +0.000 A 
ATOM      6  C   UNL     1       2.285   3.302  21.198  0.00  0.00    +0.000 A 
ATOM      7  C   UNL     1       3.090   2.801  20.177  0.00  0.00    +0.000 A 
ATOM      8  C   UNL     1       3.544   3.635  19.141  0.00  0.00    +0.000 A 
ATOM      9  C   UNL     1       4.338   3.137  18.093  0.00  0.00    +0.000 A 
ATOM     10  C   UNL     1       4.815   3.973  17.078  0.00  0.00    +0.000 A 
ATOM     11  C   UNL     1       4.425   5.310  17.076  0.00  0.00    +0.000 A 
ATOM     12  C   UNL     1       3.629   5.825  18.110  0.00  0.00    +0.000 A 
ATOM     13  C   UNL     1       3.177   4.999  19.142  0.00  0.00    +0.000 A 
ATOM     14  C   UNL     1       3.252   7.256  18.093  0.00  0.00    +0.000 C 
ATOM     15  O   UNL     1       3.676   7.969  17.188  0.00  0.00    +0.000 OA
ENDROOT
BRANCH  10  16
ATOM     16  N   UNL     1       5.463   3.429  15.965  0.00  0.00    +0.000 N 
ATOM     17  H   UNL     1       5.527   2.416  15.961  0.00  0.00    +0.000 HD
ATOM     18  H   UNL     1       6.347   3.874  15.735  0.00  0.00    +0.000 HD
ENDBRANCH  10  16
BRANCH   1  19
ATOM     19  C   UNL     1       1.923   9.087  19.052  0.00  0.00    +0.000 C 
BRANCH  19  20
ATOM     20  C   UNL     1       0.737   9.261  18.099  0.00  0.00    +0.000 C 
BRANCH  20  22
ATOM     21  C   UNL     1      -1.502  10.166  17.643  0.00  0.00    +0.000 C 
ATOM     22  N   UNL     1      -0.338  10.215  18.598  0.00  0.00    +0.000 N 
ATOM     23  C   UNL     1       0.172  11.630  18.660  0.00  0.00    +0.000 C 
ATOM     24  O   UNL     1      -0.766   9.830  19.839  0.00  0.00    +0.000 OA
ENDBRANCH  20  22
ENDBRANCH  19  20
ENDBRANCH   1  19
TORSDOF 4
ENDMDL
MODEL 6
REMARK VINA RESULT:      -6.4      2.301      6.867
REMARK  Name = 
REMARK  6 active torsions:
REMARK  status: ('A' for Active; 'I' for Inactive)
REMARK    1  A    between atoms: C_1  and  N_2
REMARK    2  A    between atoms: N_2  and  C_3
REMARK    3  A    between atoms: N_2  and  C_5
REMARK    4  A    between atoms: C_5  and  C_6
REMARK    5  A    between atoms: C_6  and  N_7
REMARK    6  A    between atoms: C_16  and  N_17
REMARK                            x       y       z     vdW  Elec       q    Type
REMARK                         _______ _______ _______ _____ _____    ______ ____
ROOT
ATOM      1  N   UNL     1       2.424   6.676  19.076  0.00  0.00    +0.000 N 
ATOM      2  C   UNL     1       1.743   6.725  20.292  0.00  0.00    +0.000 C 
ATOM      3  O   UNL     1       1.667   5.776  21.069  0.00  0.00    +0.000 OA
ATOM      4  C   UNL     1       1.097   8.003  20.655  0.00  0.00    +0.000 A 
ATOM      5  C   UNL     1       0.329   8.081  21.825  0.00  0.00    +0.000 A 
ATOM      6  C   UNL     1      -0.230   9.297  22.208  0.00  0.00    +0.000 A 
ATOM      7  C   UNL     1      -0.015  10.433  21.431  0.00  0.00    +0.000 A 
ATOM      8  C   UNL     1       0.745  10.367  20.251  0.00  0.00    +0.000 A 
ATOM      9  C   UNL     1       0.988  11.511  19.470  0.00  0.00    +0.000 A 
ATOM     10  C   UNL     1       1.719  11.440  18.280  0.00  0.00    +0.000 A 
ATOM     11  C   UNL     1       2.277  10.219  17.911  0.00  0.00    +0.000 A 
ATOM     12  C   UNL     1       2.050   9.067  18.678  0.00  0.00    +0.000 A 
ATOM     13  C   UNL     1       1.295   9.129  19.852  0.00  0.00    +0.000 A 
ATOM     14  C   UNL     1       2.637   7.779  18.247  0.00  0.00    +0.000 C 
ATOM     15  O   UNL     1       3.281   7.743  17.202  0.00  0.00    +0.000 OA
ENDROOT
BRANCH  10  16
ATOM     16  N   UNL     1       2.084  12.611  17.608  0.00  0.00    +0.000 N 
ATOM     17  H   UNL     1       2.960  12.555  17.098  0.00  0.00    +0.000 HD
ATOM     18  H   UNL     1       2.017  13.456  18.169  0.00  0.00    +0.000 HD
ENDBRANCH  10  16
BRANCH   1  19
ATOM     19  C   UNL     1       3.102   5.416  18.737  0.00  0.00    +0.000 C 
BRANCH  19  20
ATOM     20  C   UNL     1       2.233   4.467  17.907  0.00  0.00    +0.000 C 
BRANCH  20  22
ATOM     21  C   UNL     1       0.915   2.844  19.198  0.00  0.00    +0.000 C 
ATOM     22  N   UNL     1       2.191   3.037  18.422  0.00  0.00    +0.000 N 
ATOM     23  C   UNL     1       3.355   2.749  19.332  0.00  0.00    +0.000 C 
ATOM     24  O   UNL     1       2.208   2.161  17.371  0.00  0.00    +0.000 OA
ENDBRANCH  20  22
ENDBRANCH  19  20
ENDBRANCH   1  19
TORSDOF 4
ENDMDL
MODEL 7
REMARK VINA RESULT:      -6.4      2.170      3.895
REMARK  Name = 
REMARK  6 active torsions:
REMARK  status: ('A' for Active; 'I' for Inactive)
REMARK    1  A    between atoms: C_1  and  N_2
REMARK    2  A    between atoms: N_2  and  C_3
REMARK    3  A    between atoms: N_2  and  C_5
REMARK    4  A    between atoms: C_5  and  C_6
REMARK    5  A    between atoms: C_6  and  N_7
REMARK    6  A    between atoms: C_16  and  N_17
REMARK                            x       y       z     vdW  Elec       q    Type
REMARK                         _______ _______ _______ _____ _____    ______ ____
ROOT
ATOM      1  N   UNL     1       2.220   7.336  19.404  0.00  0.00    +0.000 N 
ATOM      2  C   UNL     1       2.078   6.105  20.045  0.00  0.00    +0.000 C 
ATOM      3  O   UNL     1       1.266   5.895  20.944  0.00  0.00    +0.000 OA
ATOM      4  C   UNL     1       2.950   5.002  19.593  0.00  0.00    +0.000 A 
ATOM      5  C   UNL     1       2.907   3.770  20.260  0.00  0.00    +0.000 A 
ATOM      6  C   UNL     1       3.678   2.705  19.801  0.00  0.00    +0.000 A 
ATOM      7  C   UNL     1       4.482   2.868  18.675  0.00  0.00    +0.000 A 
ATOM      8  C   UNL     1       4.541   4.099  18.002  0.00  0.00    +0.000 A 
ATOM      9  C   UNL     1       5.331   4.269  16.851  0.00  0.00    +0.000 A 
ATOM     10  C   UNL     1       5.414   5.504  16.199  0.00  0.00    +0.000 A 
ATOM     11  C   UNL     1       4.634   6.559  16.665  0.00  0.00    +0.000 A 
ATOM     12  C   UNL     1       3.836   6.409  17.809  0.00  0.00    +0.000 A 
ATOM     13  C   UNL     1       3.775   5.185  18.480  0.00  0.00    +0.000 A 
ATOM     14  C   UNL     1       3.037   7.556  18.294  0.00  0.00    +0.000 C 
ATOM     15  O   UNL     1       3.120   8.628  17.701  0.00  0.00    +0.000 OA
ENDROOT
BRANCH  10  16
ATOM     16  N   UNL     1       6.073   5.608  14.970  0.00  0.00    +0.000 N 
ATOM     17  H   UNL     1       5.522   5.327  14.166  0.00  0.00    +0.000 HD
ATOM     18  H   UNL     1       7.007   5.205  14.959  0.00  0.00    +0.000 HD
ENDBRANCH  10  16
BRANCH   1  19
ATOM     19  C   UNL     1       1.321   8.420  19.826  0.00  0.00    +0.000 C 
BRANCH  19  20
ATOM     20  C   UNL     1       1.369   8.691  21.333  0.00  0.00    +0.000 C 
BRANCH  20  22
ATOM     21  C   UNL     1      -0.416  10.375  21.194  0.00  0.00    +0.000 C 
ATOM     22  N   UNL     1       0.049   9.148  21.934  0.00  0.00    +0.000 N 
ATOM     23  C   UNL     1       0.203   9.496  23.391  0.00  0.00    +0.000 C 
ATOM     24  O   UNL     1      -0.893   8.165  21.798  0.00  0.00    +0.000 OA
ENDBRANCH  20  22
ENDBRANCH  19  20
ENDBRANCH   1  19
TORSDOF 4
ENDMDL
MODEL 8
REMARK VINA RESULT:      -6.4      2.080      2.612
REMARK  Name = 
REMARK  6 active torsions:
REMARK  status: ('A' for Active; 'I' for Inactive)
REMARK    1  A    between atoms: C_1  and  N_2
REMARK    2  A    between atoms: N_2  and  C_3
REMARK    3  A    between atoms: N_2  and  C_5
REMARK    4  A    between atoms: C_5  and  C_6
REMARK    5  A    between atoms: C_6  and  N_7
REMARK    6  A    between atoms: C_16  and  N_17
REMARK                            x       y       z     vdW  Elec       q    Type
REMARK                         _______ _______ _______ _____ _____    ______ ____
ROOT
ATOM      1  N   UNL     1       2.004   7.377  19.342  0.00  0.00    +0.000 N 
ATOM      2  C   UNL     1       2.725   7.847  18.244  0.00  0.00    +0.000 C 
ATOM      3  O   UNL     1       2.615   8.985  17.795  0.00  0.00    +0.000 OA
ATOM      4  C   UNL     1       3.679   6.913  17.612  0.00  0.00    +0.000 A 
ATOM      5  C   UNL     1       4.366   7.307  16.455  0.00  0.00    +0.000 A 
ATOM      6  C   UNL     1       5.314   6.459  15.890  0.00  0.00    +0.000 A 
ATOM      7  C   UNL     1       5.582   5.226  16.482  0.00  0.00    +0.000 A 
ATOM      8  C   UNL     1       4.895   4.816  17.636  0.00  0.00    +0.000 A 
ATOM      9  C   UNL     1       5.172   3.585  18.256  0.00  0.00    +0.000 A 
ATOM     10  C   UNL     1       4.466   3.162  19.387  0.00  0.00    +0.000 A 
ATOM     11  C   UNL     1       3.524   4.022  19.946  0.00  0.00    +0.000 A 
ATOM     12  C   UNL     1       3.236   5.257  19.346  0.00  0.00    +0.000 A 
ATOM     13  C   UNL     1       3.918   5.668  18.198  0.00  0.00    +0.000 A 
ATOM     14  C   UNL     1       2.212   6.138  19.950  0.00  0.00    +0.000 C 
ATOM     15  O   UNL     1       1.611   5.749  20.948  0.00  0.00    +0.000 OA
ENDROOT
BRANCH  10  16
ATOM     16  N   UNL     1       4.868   2.015  20.079  0.00  0.00    +0.000 N 
ATOM     17  H   UNL     1       4.117   1.374  20.314  0.00  0.00    +0.000 HD
ATOM     18  H   UNL     1       5.485   2.194  20.867  0.00  0.00    +0.000 HD
ENDBRANCH  10  16
BRANCH   1  19
ATOM     19  C   UNL     1       1.086   8.321  19.996  0.00  0.00    +0.000 C 
BRANCH  19  20
ATOM     20  C   UNL     1       1.640   8.893  21.304  0.00  0.00    +0.000 C 
BRANCH  20  22
ATOM     21  C   UNL     1      -0.634   8.709  22.218  0.00  0.00    +0.000 C 
ATOM     22  N   UNL     1       0.602   9.568  22.188  0.00  0.00    +0.000 N 
ATOM     23  C   UNL     1       0.230  10.926  21.655  0.00  0.00    +0.000 C 
ATOM     24  O   UNL     1       1.084   9.696  23.462  0.00  0.00    +0.000 OA
ENDBRANCH  20  22
ENDBRANCH  19  20
ENDBRANCH   1  19
TORSDOF 4
ENDMDL
MODEL 9
REMARK VINA RESULT:      -6.3      2.219      7.047
REMARK  Name = 
REMARK  6 active torsions:
REMARK  status: ('A' for Active; 'I' for Inactive)
REMARK    1  A    between atoms: C_1  and  N_2
REMARK    2  A    between atoms: N_2  and  C_3
REMARK    3  A    between atoms: N_2  and  C_5
REMARK    4  A    between atoms: C_5  and  C_6
REMARK    5  A    between atoms: C_6  and  N_7
REMARK    6  A    between atoms: C_16  and  N_17
REMARK                            x       y       z     vdW  Elec       q    Type
REMARK                         _______ _______ _______ _____ _____    ______ ____
ROOT
ATOM      1  N   UNL     1       2.261   6.998  18.961  0.00  0.00    +0.000 N 
ATOM      2  C   UNL     1       1.702   6.954  20.239  0.00  0.00    +0.000 C 
ATOM      3  O   UNL     1       1.715   5.954  20.953  0.00  0.00    +0.000 OA
ATOM      4  C   UNL     1       1.079   8.193  20.748  0.00  0.00    +0.000 A 
ATOM      5  C   UNL     1       0.429   8.179  21.990  0.00  0.00    +0.000 A 
ATOM      6  C   UNL     1      -0.104   9.356  22.507  0.00  0.00    +0.000 A 
ATOM      7  C   UNL     1       0.018  10.545  21.790  0.00  0.00    +0.000 A 
ATOM      8  C   UNL     1       0.659  10.571  20.540  0.00  0.00    +0.000 A 
ATOM      9  C   UNL     1       0.809  11.768  19.818  0.00  0.00    +0.000 A 
ATOM     10  C   UNL     1       1.420  11.790  18.560  0.00  0.00    +0.000 A 
ATOM     11  C   UNL     1       1.954  10.606  18.057  0.00  0.00    +0.000 A 
ATOM     12  C   UNL     1       1.819   9.403  18.764  0.00  0.00    +0.000 A 
ATOM     13  C   UNL     1       1.182   9.373  20.006  0.00  0.00    +0.000 A 
ATOM     14  C   UNL     1       2.376   8.157  18.191  0.00  0.00    +0.000 C 
ATOM     15  O   UNL     1       2.915   8.202  17.089  0.00  0.00    +0.000 OA
ENDROOT
BRANCH  10  16
ATOM     16  N   UNL     1       1.702  13.009  17.936  0.00  0.00    +0.000 N 
ATOM     17  H   UNL     1       0.986  13.337  17.296  0.00  0.00    +0.000 HD
ATOM     18  H   UNL     1       2.635  13.070  17.536  0.00  0.00    +0.000 HD
ENDBRANCH  10  16
BRANCH   1  19
ATOM     19  C   UNL     1       2.918   5.777  18.473  0.00  0.00    +0.000 C 
BRANCH  19  20
ATOM     20  C   UNL     1       4.339   5.598  19.015  0.00  0.00    +0.000 C 
BRANCH  20  22
ATOM     21  C   UNL     1       4.745   3.973  17.217  0.00  0.00    +0.000 C 
ATOM     22  N   UNL     1       4.980   4.261  18.677  0.00  0.00    +0.000 N 
ATOM     23  C   UNL     1       4.380   3.145  19.489  0.00  0.00    +0.000 C 
ATOM     24  O   UNL     1       6.328   4.318  18.906  0.00  0.00    +0.000 OA
ENDBRANCH  20  22
ENDBRANCH  19  20
ENDBRANCH   1  19
TORSDOF 4
ENDMDL
