MODEL 1
REMARK VINA RESULT:      -8.0      0.000      0.000
REMARK  Name = 
REMARK  5 active torsions:
REMARK  status: ('A' for Active; 'I' for Inactive)
REMARK    1  A    between atoms: O_1  and  C_2
REMARK    2  A    between atoms: C_7  and  C_8
REMARK    3  A    between atoms: C_8  and  N_9
REMARK    4  A    between atoms: C_12  and  C_13
REMARK    5  A    between atoms: C_13  and  C_14
REMARK                            x       y       z     vdW  Elec       q    Type
REMARK                         _______ _______ _______ _____ _____    ______ ____
ROOT
ATOM      1  N   UNL     1       2.279   2.517  19.364  0.00  0.00    +0.000 NA
ATOM      2  C   UNL     1       3.011   2.891  20.591  0.00  0.00    +0.000 C 
ATOM      3  C   UNL     1       2.114   3.655  21.569  0.00  0.00    +0.000 C 
ATOM      4  C   UNL     1       1.527   4.927  20.938  0.00  0.00    +0.000 C 
ATOM      5  C   UNL     1       0.791   4.500  19.662  0.00  0.00    +0.000 C 
ATOM      6  C   UNL     1       1.692   3.705  18.711  0.00  0.00    +0.000 C 
ENDROOT
BRANCH   1   7
ATOM      7  C   UNL     1       3.213   1.814  18.453  0.00  0.00    +0.000 C 
BRANCH   7  13
ATOM      8  C   UNL     1       7.032   5.096  15.219  0.00  0.00    +0.000 A 
ATOM      9  C   UNL     1       7.517   5.511  16.459  0.00  0.00    +0.000 A 
ATOM     10  C   UNL     1       6.936   5.047  17.645  0.00  0.00    +0.000 A 
ATOM     11  C   UNL     1       5.863   4.160  17.520  0.00  0.00    +0.000 A 
ATOM     12  N   UNL     1       5.083   3.504  18.439  0.00  0.00    +0.000 N 
ATOM     13  C   UNL     1       4.180   2.719  17.757  0.00  0.00    +0.000 A 
ATOM     14  N   UNL     1       4.325   2.863  16.455  0.00  0.00    +0.000 NA
ATOM     15  C   UNL     1       5.368   3.738  16.289  0.00  0.00    +0.000 A 
ATOM     16  C   UNL     1       5.957   4.216  15.110  0.00  0.00    +0.000 A 
ATOM     17  H   UNL     1       5.178   3.533  19.444  0.00  0.00    +0.000 HD
BRANCH   8  18
ATOM     18  O   UNL     1       7.598   5.538  14.056  0.00  0.00    +0.000 OA
ATOM     19  H   UNL     1       7.888   4.770  13.538  0.00  0.00    +0.000 HD
ENDBRANCH   8  18
ENDBRANCH   7  13
ENDBRANCH   1   7
BRANCH   4  20
ATOM     20  C   UNL     1       2.613   6.001  20.678  0.00  0.00    +0.000 C 
BRANCH  20  21
ATOM     21  C   UNL     1       2.144   7.215  19.915  0.00  0.00    +0.000 A 
ATOM     22  C   UNL     1       1.374   8.211  20.513  0.00  0.00    +0.000 A 
ATOM     23  F   UNL     1       1.050   8.119  21.811  0.00  0.00    +0.000 F 
ATOM     24  C   UNL     1       0.924   9.323  19.795  0.00  0.00    +0.000 A 
ATOM     25  C   UNL     1       1.267   9.467  18.452  0.00  0.00    +0.000 A 
ATOM     26  C   UNL     1       2.059   8.501  17.837  0.00  0.00    +0.000 A 
ATOM     27  C   UNL     1       2.484   7.389  18.567  0.00  0.00    +0.000 A 
ATOM     28  F   UNL     1       3.236   6.472  17.943  0.00  0.00    +0.000 F 
ENDBRANCH  20  21
ENDBRANCH   4  20
TORSDOF 5
ENDMDL
MODEL 2
REMARK VINA RESULT:      -8.0      4.431      6.303
REMARK  Name = 
REMARK  5 active torsions:
REMARK  status: ('A' for Active; 'I' for Inactive)
REMARK    1  A    between atoms: O_1  and  C_2
REMARK    2  A    between atoms: C_7  and  C_8
REMARK    3  A    between atoms: C_8  and  N_9
REMARK    4  A    between atoms: C_12  and  C_13
REMARK    5  A    between atoms: C_13  and  C_14
REMARK                            x       y       z     vdW  Elec       q    Type
REMARK                         _______ _______ _______ _____ _____    ______ ____
ROOT
ATOM      1  N   UNL     1       6.778   6.409  17.340  0.00  0.00    +0.000 NA
ATOM      2  C   UNL     1       6.944   5.031  16.837  0.00  0.00    +0.000 C 
ATOM      3  C   UNL     1       5.732   4.582  16.016  0.00  0.00    +0.000 C 
ATOM      4  C   UNL     1       4.428   4.656  16.828  0.00  0.00    +0.000 C 
ATOM      5  C   UNL     1       4.300   6.094  17.345  0.00  0.00    +0.000 C 
ATOM      6  C   UNL     1       5.537   6.541  18.132  0.00  0.00    +0.000 C 
ENDROOT
BRANCH   1   7
ATOM      7  C   UNL     1       7.968   6.763  18.150  0.00  0.00    +0.000 C 
BRANCH   7  13
ATOM      8  C   UNL     1       8.831  12.683  18.018  0.00  0.00    +0.000 A 
ATOM      9  C   UNL     1       9.633  12.457  19.137  0.00  0.00    +0.000 A 
ATOM     10  C   UNL     1       9.782  11.167  19.660  0.00  0.00    +0.000 A 
ATOM     11  C   UNL     1       9.095  10.137  19.011  0.00  0.00    +0.000 A 
ATOM     12  N   UNL     1       9.022   8.783  19.226  0.00  0.00    +0.000 N 
ATOM     13  C   UNL     1       8.215   8.235  18.255  0.00  0.00    +0.000 A 
ATOM     14  N   UNL     1       7.747   9.170  17.452  0.00  0.00    +0.000 NA
ATOM     15  C   UNL     1       8.290  10.349  17.894  0.00  0.00    +0.000 A 
ATOM     16  C   UNL     1       8.147  11.647  17.385  0.00  0.00    +0.000 A 
ATOM     17  H   UNL     1       9.515   8.256  19.932  0.00  0.00    +0.000 HD
BRANCH   8  18
ATOM     18  O   UNL     1       8.687  13.938  17.496  0.00  0.00    +0.000 OA
ATOM     19  H   UNL     1       7.801  14.268  17.716  0.00  0.00    +0.000 HD
ENDBRANCH   8  18
ENDBRANCH   7  13
ENDBRANCH   1   7
BRANCH   4  20
ATOM     20  C   UNL     1       4.389   3.600  17.961  0.00  0.00    +0.000 C 
BRANCH  20  21
ATOM     21  C   UNL     1       3.064   3.471  18.670  0.00  0.00    +0.000 A 
ATOM     22  C   UNL     1       2.762   4.212  19.812  0.00  0.00    +0.000 A 
ATOM     23  F   UNL     1       3.653   5.091  20.295  0.00  0.00    +0.000 F 
ATOM     24  C   UNL     1       1.541   4.072  20.477  0.00  0.00    +0.000 A 
ATOM     25  C   UNL     1       0.579   3.192  19.985  0.00  0.00    +0.000 A 
ATOM     26  C   UNL     1       0.844   2.460  18.831  0.00  0.00    +0.000 A 
ATOM     27  C   UNL     1       2.076   2.601  18.190  0.00  0.00    +0.000 A 
ATOM     28  F   UNL     1       2.304   1.874  17.088  0.00  0.00    +0.000 F 
ENDBRANCH  20  21
ENDBRANCH   4  20
TORSDOF 5
ENDMDL
MODEL 3
REMARK VINA RESULT:      -7.9      0.093      1.619
REMARK  Name = 
REMARK  5 active torsions:
REMARK  status: ('A' for Active; 'I' for Inactive)
REMARK    1  A    between atoms: O_1  and  C_2
REMARK    2  A    between atoms: C_7  and  C_8
REMARK    3  A    between atoms: C_8  and  N_9
REMARK    4  A    between atoms: C_12  and  C_13
REMARK    5  A    between atoms: C_13  and  C_14
REMARK                            x       y       z     vdW  Elec       q    Type
REMARK                         _______ _______ _______ _____ _____    ______ ____
ROOT
ATOM      1  N   UNL     1       2.309   2.472  19.387  0.00  0.00    +0.000 NA
ATOM      2  C   UNL     1       2.998   2.852  20.636  0.00  0.00    +0.000 C 
ATOM      3  C   UNL     1       2.069   3.621  21.580  0.00  0.00    +0.000 C 
ATOM      4  C   UNL     1       1.504   4.890  20.923  0.00  0.00    +0.000 C 
ATOM      5  C   UNL     1       0.811   4.457  19.625  0.00  0.00    +0.000 C 
ATOM      6  C   UNL     1       1.744   3.657  18.708  0.00  0.00    +0.000 C 
ENDROOT
BRANCH   1   7
ATOM      7  C   UNL     1       3.273   1.765  18.511  0.00  0.00    +0.000 C 
BRANCH   7  13
ATOM      8  C   UNL     1       7.042   5.079  15.252  0.00  0.00    +0.000 A 
ATOM      9  C   UNL     1       7.613   5.399  16.483  0.00  0.00    +0.000 A 
ATOM     10  C   UNL     1       7.081   4.889  17.673  0.00  0.00    +0.000 A 
ATOM     11  C   UNL     1       5.965   4.054  17.560  0.00  0.00    +0.000 A 
ATOM     12  N   UNL     1       5.210   3.376  18.484  0.00  0.00    +0.000 N 
ATOM     13  C   UNL     1       4.238   2.670  17.813  0.00  0.00    +0.000 A 
ATOM     14  N   UNL     1       4.315   2.885  16.514  0.00  0.00    +0.000 NA
ATOM     15  C   UNL     1       5.383   3.727  16.338  0.00  0.00    +0.000 A 
ATOM     16  C   UNL     1       5.925   4.250  15.156  0.00  0.00    +0.000 A 
ATOM     17  H   UNL     1       5.363   3.342  19.482  0.00  0.00    +0.000 HD
BRANCH   8  18
ATOM     18  O   UNL     1       7.561   5.566  14.085  0.00  0.00    +0.000 OA
ATOM     19  H   UNL     1       7.556   6.536  14.122  0.00  0.00    +0.000 HD
ENDBRANCH   8  18
ENDBRANCH   7  13
ENDBRANCH   1   7
BRANCH   4  20
ATOM     20  C   UNL     1       2.599   5.962  20.695  0.00  0.00    +0.000 C 
BRANCH  20  21
ATOM     21  C   UNL     1       2.161   7.165  19.897  0.00  0.00    +0.000 A 
ATOM     22  C   UNL     1       2.497   7.323  18.553  0.00  0.00    +0.000 A 
ATOM     23  F   UNL     1       3.210   6.376  17.926  0.00  0.00    +0.000 F 
ATOM     24  C   UNL     1       2.107   8.451  17.825  0.00  0.00    +0.000 A 
ATOM     25  C   UNL     1       1.339   9.440  18.436  0.00  0.00    +0.000 A 
ATOM     26  C   UNL     1       0.965   9.295  19.769  0.00  0.00    +0.000 A 
ATOM     27  C   UNL     1       1.380   8.169  20.485  0.00  0.00    +0.000 A 
ATOM     28  F   UNL     1       1.012   8.065  21.769  0.00  0.00    +0.000 F 
ENDBRANCH  20  21
ENDBRANCH   4  20
TORSDOF 5
ENDMDL
MODEL 4
REMARK VINA RESULT:      -7.8      1.395      1.906
REMARK  Name = 
REMARK  5 active torsions:
REMARK  status: ('A' for Active; 'I' for Inactive)
REMARK    1  A    between atoms: O_1  and  C_2
REMARK    2  A    between atoms: C_7  and  C_8
REMARK    3  A    between atoms: C_8  and  N_9
REMARK    4  A    between atoms: C_12  and  C_13
REMARK    5  A    between atoms: C_13  and  C_14
REMARK                            x       y       z     vdW  Elec       q    Type
REMARK                         _______ _______ _______ _____ _____    ______ ____
ROOT
ATOM      1  N   UNL     1       2.626   2.603  19.078  0.00  0.00    +0.000 NA
ATOM      2  C   UNL     1       2.826   2.767  20.532  0.00  0.00    +0.000 C 
ATOM      3  C   UNL     1       1.551   3.258  21.223  0.00  0.00    +0.000 C 
ATOM      4  C   UNL     1       1.057   4.591  20.640  0.00  0.00    +0.000 C 
ATOM      5  C   UNL     1       0.876   4.385  19.130  0.00  0.00    +0.000 C 
ATOM      6  C   UNL     1       2.151   3.859  18.461  0.00  0.00    +0.000 C 
ENDROOT
BRANCH   1   7
ATOM      7  C   UNL     1       3.904   2.161  18.472  0.00  0.00    +0.000 C 
BRANCH   7  13
ATOM      8  C   UNL     1       7.832   6.674  18.364  0.00  0.00    +0.000 A 
ATOM      9  C   UNL     1       7.605   6.662  16.988  0.00  0.00    +0.000 A 
ATOM     10  C   UNL     1       6.734   5.728  16.415  0.00  0.00    +0.000 A 
ATOM     11  C   UNL     1       6.115   4.823  17.284  0.00  0.00    +0.000 A 
ATOM     12  N   UNL     1       5.212   3.809  17.086  0.00  0.00    +0.000 N 
ATOM     13  C   UNL     1       4.910   3.256  18.309  0.00  0.00    +0.000 A 
ATOM     14  N   UNL     1       5.594   3.844  19.271  0.00  0.00    +0.000 NA
ATOM     15  C   UNL     1       6.333   4.823  18.659  0.00  0.00    +0.000 A 
ATOM     16  C   UNL     1       7.212   5.762  19.216  0.00  0.00    +0.000 A 
ATOM     17  H   UNL     1       4.787   3.540  16.210  0.00  0.00    +0.000 HD
BRANCH   8  18
ATOM     18  O   UNL     1       8.674   7.588  18.932  0.00  0.00    +0.000 OA
ATOM     19  H   UNL     1       9.549   7.504  18.522  0.00  0.00    +0.000 HD
ENDBRANCH   8  18
ENDBRANCH   7  13
ENDBRANCH   1   7
BRANCH   4  20
ATOM     20  C   UNL     1       2.012   5.763  20.980  0.00  0.00    +0.000 C 
BRANCH  20  21
ATOM     21  C   UNL     1       1.757   7.039  20.217  0.00  0.00    +0.000 A 
ATOM     22  C   UNL     1       0.804   7.970  20.631  0.00  0.00    +0.000 A 
ATOM     23  F   UNL     1       0.101   7.753  21.753  0.00  0.00    +0.000 F 
ATOM     24  C   UNL     1       0.556   9.140  19.908  0.00  0.00    +0.000 A 
ATOM     25  C   UNL     1       1.290   9.412  18.756  0.00  0.00    +0.000 A 
ATOM     26  C   UNL     1       2.267   8.514  18.334  0.00  0.00    +0.000 A 
ATOM     27  C   UNL     1       2.488   7.342  19.060  0.00  0.00    +0.000 A 
ATOM     28  F   UNL     1       3.427   6.493  18.622  0.00  0.00    +0.000 F 
ENDBRANCH  20  21
ENDBRANCH   4  20
TORSDOF 5
ENDMDL
MODEL 5
REMARK VINA RESULT:      -7.8      2.397      4.509
REMARK  Name = 
REMARK  5 active torsions:
REMARK  status: ('A' for Active; 'I' for Inactive)
REMARK    1  A    between atoms: O_1  and  C_2
REMARK    2  A    between atoms: C_7  and  C_8
REMARK    3  A    between atoms: C_8  and  N_9
REMARK    4  A    between atoms: C_12  and  C_13
REMARK    5  A    between atoms: C_13  and  C_14
REMARK                            x       y       z     vdW  Elec       q    Type
REMARK                         _______ _______ _______ _____ _____    ______ ____
ROOT
ATOM      1  N   UNL     1       5.774   6.193  18.291  0.00  0.00    +0.000 NA
ATOM      2  C   UNL     1       4.949   6.708  17.181  0.00  0.00    +0.000 C 
ATOM      3  C   UNL     1       3.717   7.457  17.696  0.00  0.00    +0.000 C 
ATOM      4  C   UNL     1       2.838   6.571  18.593  0.00  0.00    +0.000 C 
ATOM      5  C   UNL     1       3.732   6.043  19.722  0.00  0.00    +0.000 C 
ATOM      6  C   UNL     1       4.979   5.329  19.189  0.00  0.00    +0.000 C 
ENDROOT
BRANCH   1   7
ATOM      7  C   UNL     1       6.925   5.453  17.721  0.00  0.00    +0.000 C 
BRANCH   7  13
ATOM      8  C   UNL     1       5.915   3.311  12.226  0.00  0.00    +0.000 A 
ATOM      9  C   UNL     1       6.972   4.141  11.852  0.00  0.00    +0.000 A 
ATOM     10  C   UNL     1       7.612   4.951  12.797  0.00  0.00    +0.000 A 
ATOM     11  C   UNL     1       7.143   4.882  14.113  0.00  0.00    +0.000 A 
ATOM     12  N   UNL     1       7.530   5.500  15.275  0.00  0.00    +0.000 N 
ATOM     13  C   UNL     1       6.734   5.035  16.297  0.00  0.00    +0.000 A 
ATOM     14  N   UNL     1       5.844   4.175  15.843  0.00  0.00    +0.000 NA
ATOM     15  C   UNL     1       6.089   4.058  14.499  0.00  0.00    +0.000 A 
ATOM     16  C   UNL     1       5.454   3.257  13.540  0.00  0.00    +0.000 A 
ATOM     17  H   UNL     1       8.300   6.143  15.391  0.00  0.00    +0.000 HD
BRANCH   8  18
ATOM     18  O   UNL     1       5.290   2.511  11.310  0.00  0.00    +0.000 OA
ATOM     19  H   UNL     1       4.961   3.065  10.584  0.00  0.00    +0.000 HD
ENDBRANCH   8  18
ENDBRANCH   7  13
ENDBRANCH   1   7
BRANCH   4  20
ATOM     20  C   UNL     1       2.146   5.440  17.791  0.00  0.00    +0.000 C 
BRANCH  20  21
ATOM     21  C   UNL     1       1.983   4.137  18.533  0.00  0.00    +0.000 A 
ATOM     22  C   UNL     1       1.262   4.049  19.724  0.00  0.00    +0.000 A 
ATOM     23  F   UNL     1       0.667   5.141  20.228  0.00  0.00    +0.000 F 
ATOM     24  C   UNL     1       1.133   2.844  20.418  0.00  0.00    +0.000 A 
ATOM     25  C   UNL     1       1.711   1.683  19.908  0.00  0.00    +0.000 A 
ATOM     26  C   UNL     1       2.413   1.736  18.707  0.00  0.00    +0.000 A 
ATOM     27  C   UNL     1       2.546   2.954  18.036  0.00  0.00    +0.000 A 
ATOM     28  F   UNL     1       3.237   2.972  16.888  0.00  0.00    +0.000 F 
ENDBRANCH  20  21
ENDBRANCH   4  20
TORSDOF 5
ENDMDL
MODEL 6
REMARK VINA RESULT:      -7.8      2.421      4.812
REMARK  Name = 
REMARK  5 active torsions:
REMARK  status: ('A' for Active; 'I' for Inactive)
REMARK    1  A    between atoms: O_1  and  C_2
REMARK    2  A    between atoms: C_7  and  C_8
REMARK    3  A    between atoms: C_8  and  N_9
REMARK    4  A    between atoms: C_12  and  C_13
REMARK    5  A    between atoms: C_13  and  C_14
REMARK                            x       y       z     vdW  Elec       q    Type
REMARK                         _______ _______ _______ _____ _____    ______ ____
ROOT
ATOM      1  N   UNL     1       5.837   6.218  18.257  0.00  0.00    +0.000 NA
ATOM      2  C   UNL     1       5.000   6.732  17.154  0.00  0.00    +0.000 C 
ATOM      3  C   UNL     1       3.759   7.457  17.681  0.00  0.00    +0.000 C 
ATOM      4  C   UNL     1       2.897   6.549  18.572  0.00  0.00    +0.000 C 
ATOM      5  C   UNL     1       3.803   6.025  19.693  0.00  0.00    +0.000 C 
ATOM      6  C   UNL     1       5.059   5.334  19.149  0.00  0.00    +0.000 C 
ENDROOT
BRANCH   1   7
ATOM      7  C   UNL     1       6.997   5.502  17.676  0.00  0.00    +0.000 C 
BRANCH   7  13
ATOM      8  C   UNL     1       5.957   3.280  12.218  0.00  0.00    +0.000 A 
ATOM      9  C   UNL     1       6.986   4.135  11.820  0.00  0.00    +0.000 A 
ATOM     10  C   UNL     1       7.619   4.970  12.747  0.00  0.00    +0.000 A 
ATOM     11  C   UNL     1       7.173   4.902  14.070  0.00  0.00    +0.000 A 
ATOM     12  N   UNL     1       7.562   5.541  15.220  0.00  0.00    +0.000 N 
ATOM     13  C   UNL     1       6.795   5.065  16.260  0.00  0.00    +0.000 A 
ATOM     14  N   UNL     1       5.921   4.178  15.828  0.00  0.00    +0.000 NA
ATOM     15  C   UNL     1       6.147   4.054  14.481  0.00  0.00    +0.000 A 
ATOM     16  C   UNL     1       5.519   3.227  13.540  0.00  0.00    +0.000 A 
ATOM     17  H   UNL     1       8.316   6.205  15.318  0.00  0.00    +0.000 HD
BRANCH   8  18
ATOM     18  O   UNL     1       5.339   2.455  11.321  0.00  0.00    +0.000 OA
ATOM     19  H   UNL     1       5.922   2.336  10.553  0.00  0.00    +0.000 HD
ENDBRANCH   8  18
ENDBRANCH   7  13
ENDBRANCH   1   7
BRANCH   4  20
ATOM     20  C   UNL     1       2.219   5.415  17.762  0.00  0.00    +0.000 C 
BRANCH  20  21
ATOM     21  C   UNL     1       2.048   4.113  18.504  0.00  0.00    +0.000 A 
ATOM     22  C   UNL     1       2.640   2.929  18.067  0.00  0.00    +0.000 A 
ATOM     23  F   UNL     1       3.411   2.932  16.969  0.00  0.00    +0.000 F 
ATOM     24  C   UNL     1       2.458   1.721  18.746  0.00  0.00    +0.000 A 
ATOM     25  C   UNL     1       1.690   1.687  19.908  0.00  0.00    +0.000 A 
ATOM     26  C   UNL     1       1.110   2.860  20.383  0.00  0.00    +0.000 A 
ATOM     27  C   UNL     1       1.288   4.053  19.680  0.00  0.00    +0.000 A 
ATOM     28  F   UNL     1       0.707   5.163  20.158  0.00  0.00    +0.000 F 
ENDBRANCH  20  21
ENDBRANCH   4  20
TORSDOF 5
ENDMDL
MODEL 7
REMARK VINA RESULT:      -7.8      0.607      1.275
REMARK  Name = 
REMARK  5 active torsions:
REMARK  status: ('A' for Active; 'I' for Inactive)
REMARK    1  A    between atoms: O_1  and  C_2
REMARK    2  A    between atoms: C_7  and  C_8
REMARK    3  A    between atoms: C_8  and  N_9
REMARK    4  A    between atoms: C_12  and  C_13
REMARK    5  A    between atoms: C_13  and  C_14
REMARK                            x       y       z     vdW  Elec       q    Type
REMARK                         _______ _______ _______ _____ _____    ______ ____
ROOT
ATOM      1  N   UNL     1       2.401   2.416  19.409  0.00  0.00    +0.000 NA
ATOM      2  C   UNL     1       2.933   2.797  20.732  0.00  0.00    +0.000 C 
ATOM      3  C   UNL     1       1.883   3.531  21.570  0.00  0.00    +0.000 C 
ATOM      4  C   UNL     1       1.365   4.795  20.865  0.00  0.00    +0.000 C 
ATOM      5  C   UNL     1       0.836   4.361  19.492  0.00  0.00    +0.000 C 
ATOM      6  C   UNL     1       1.888   3.595  18.681  0.00  0.00    +0.000 C 
ENDROOT
BRANCH   1   7
ATOM      7  C   UNL     1       3.477   1.743  18.642  0.00  0.00    +0.000 C 
BRANCH   7  13
ATOM      8  C   UNL     1       7.171   5.874  16.386  0.00  0.00    +0.000 A 
ATOM      9  C   UNL     1       6.943   5.223  15.173  0.00  0.00    +0.000 A 
ATOM     10  C   UNL     1       6.120   4.093  15.113  0.00  0.00    +0.000 A 
ATOM     11  C   UNL     1       5.549   3.660  16.314  0.00  0.00    +0.000 A 
ATOM     12  N   UNL     1       4.698   2.629  16.625  0.00  0.00    +0.000 N 
ATOM     13  C   UNL     1       4.426   2.685  17.972  0.00  0.00    +0.000 A 
ATOM     14  N   UNL     1       5.081   3.678  18.541  0.00  0.00    +0.000 NA
ATOM     15  C   UNL     1       5.769   4.300  17.531  0.00  0.00    +0.000 A 
ATOM     16  C   UNL     1       6.599   5.428  17.576  0.00  0.00    +0.000 A 
ATOM     17  H   UNL     1       4.286   1.970  15.980  0.00  0.00    +0.000 HD
BRANCH   8  18
ATOM     18  O   UNL     1       7.967   6.983  16.452  0.00  0.00    +0.000 OA
ATOM     19  H   UNL     1       7.447   7.720  16.811  0.00  0.00    +0.000 HD
ENDBRANCH   8  18
ENDBRANCH   7  13
ENDBRANCH   1   7
BRANCH   4  20
ATOM     20  C   UNL     1       2.451   5.896  20.774  0.00  0.00    +0.000 C 
BRANCH  20  21
ATOM     21  C   UNL     1       2.049   7.131  20.007  0.00  0.00    +0.000 A 
ATOM     22  C   UNL     1       1.295   8.149  20.589  0.00  0.00    +0.000 A 
ATOM     23  F   UNL     1       0.927   8.059  21.876  0.00  0.00    +0.000 F 
ATOM     24  C   UNL     1       0.906   9.280  19.866  0.00  0.00    +0.000 A 
ATOM     25  C   UNL     1       1.296   9.423  18.536  0.00  0.00    +0.000 A 
ATOM     26  C   UNL     1       2.073   8.434  17.938  0.00  0.00    +0.000 A 
ATOM     27  C   UNL     1       2.436   7.302  18.672  0.00  0.00    +0.000 A 
ATOM     28  F   UNL     1       3.175   6.364  18.064  0.00  0.00    +0.000 F 
ENDBRANCH  20  21
ENDBRANCH   4  20
TORSDOF 5
ENDMDL
MODEL 8
REMARK VINA RESULT:      -7.8      0.589      2.048
REMARK  Name = 
REMARK  5 active torsions:
REMARK  status: ('A' for Active; 'I' for Inactive)
REMARK    1  A    between atoms: O_1  and  C_2
REMARK    2  A    between atoms: C_7  and  C_8
REMARK    3  A    between atoms: C_8  and  N_9
REMARK    4  A    between atoms: C_12  and  C_13
REMARK    5  A    between atoms: C_13  and  C_14
REMARK                            x       y       z     vdW  Elec       q    Type
REMARK                         _______ _______ _______ _____ _____    ______ ____
ROOT
ATOM      1  N   UNL     1       2.311   2.465  19.377  0.00  0.00    +0.000 NA
ATOM      2  C   UNL     1       2.985   2.838  20.636  0.00  0.00    +0.000 C 
ATOM      3  C   UNL     1       2.039   3.585  21.580  0.00  0.00    +0.000 C 
ATOM      4  C   UNL     1       1.466   4.856  20.933  0.00  0.00    +0.000 C 
ATOM      5  C   UNL     1       0.789   4.430  19.624  0.00  0.00    +0.000 C 
ATOM      6  C   UNL     1       1.739   3.652  18.707  0.00  0.00    +0.000 C 
ENDROOT
BRANCH   1   7
ATOM      7  C   UNL     1       3.291   1.779  18.501  0.00  0.00    +0.000 C 
BRANCH   7  13
ATOM      8  C   UNL     1       7.139   5.831  16.360  0.00  0.00    +0.000 A 
ATOM      9  C   UNL     1       6.990   5.140  15.158  0.00  0.00    +0.000 A 
ATOM     10  C   UNL     1       6.170   4.008  15.080  0.00  0.00    +0.000 A 
ATOM     11  C   UNL     1       5.519   3.616  16.254  0.00  0.00    +0.000 A 
ATOM     12  N   UNL     1       4.647   2.597  16.541  0.00  0.00    +0.000 N 
ATOM     13  C   UNL     1       4.285   2.697  17.865  0.00  0.00    +0.000 A 
ATOM     14  N   UNL     1       4.903   3.709  18.443  0.00  0.00    +0.000 NA
ATOM     15  C   UNL     1       5.658   4.296  17.461  0.00  0.00    +0.000 A 
ATOM     16  C   UNL     1       6.487   5.425  17.524  0.00  0.00    +0.000 A 
ATOM     17  H   UNL     1       4.277   1.917  15.892  0.00  0.00    +0.000 HD
BRANCH   8  18
ATOM     18  O   UNL     1       7.931   6.941  16.442  0.00  0.00    +0.000 OA
ATOM     19  H   UNL     1       8.479   6.994  15.643  0.00  0.00    +0.000 HD
ENDBRANCH   8  18
ENDBRANCH   7  13
ENDBRANCH   1   7
BRANCH   4  20
ATOM     20  C   UNL     1       2.551   5.943  20.728  0.00  0.00    +0.000 C 
BRANCH  20  21
ATOM     21  C   UNL     1       2.100   7.159  19.958  0.00  0.00    +0.000 A 
ATOM     22  C   UNL     1       2.407   7.336  18.609  0.00  0.00    +0.000 A 
ATOM     23  F   UNL     1       3.101   6.395  17.952  0.00  0.00    +0.000 F 
ATOM     24  C   UNL     1       2.006   8.476  17.907  0.00  0.00    +0.000 A 
ATOM     25  C   UNL     1       1.257   9.459  18.550  0.00  0.00    +0.000 A 
ATOM     26  C   UNL     1       0.912   9.296  19.889  0.00  0.00    +0.000 A 
ATOM     27  C   UNL     1       1.338   8.158  20.578  0.00  0.00    +0.000 A 
ATOM     28  F   UNL     1       0.999   8.036  21.869  0.00  0.00    +0.000 F 
ENDBRANCH  20  21
ENDBRANCH   4  20
TORSDOF 5
ENDMDL
MODEL 9
REMARK VINA RESULT:      -7.8      1.391      2.465
REMARK  Name = 
REMARK  5 active torsions:
REMARK  status: ('A' for Active; 'I' for Inactive)
REMARK    1  A    between atoms: O_1  and  C_2
REMARK    2  A    between atoms: C_7  and  C_8
REMARK    3  A    between atoms: C_8  and  N_9
REMARK    4  A    between atoms: C_12  and  C_13
REMARK    5  A    between atoms: C_13  and  C_14
REMARK                            x       y       z     vdW  Elec       q    Type
REMARK                         _______ _______ _______ _____ _____    ______ ____
ROOT
ATOM      1  N   UNL     1       2.553   2.614  18.972  0.00  0.00    +0.000 NA
ATOM      2  C   UNL     1       2.760   2.747  20.427  0.00  0.00    +0.000 C 
ATOM      3  C   UNL     1       1.494   3.240  21.133  0.00  0.00    +0.000 C 
ATOM      4  C   UNL     1       1.015   4.591  20.577  0.00  0.00    +0.000 C 
ATOM      5  C   UNL     1       0.827   4.416  19.065  0.00  0.00    +0.000 C 
ATOM      6  C   UNL     1       2.092   3.887  18.380  0.00  0.00    +0.000 C 
ENDROOT
BRANCH   1   7
ATOM      7  C   UNL     1       3.823   2.167  18.352  0.00  0.00    +0.000 C 
BRANCH   7  13
ATOM      8  C   UNL     1       7.807   6.632  18.354  0.00  0.00    +0.000 A 
ATOM      9  C   UNL     1       7.620   6.621  16.972  0.00  0.00    +0.000 A 
ATOM     10  C   UNL     1       6.755   5.697  16.375  0.00  0.00    +0.000 A 
ATOM     11  C   UNL     1       6.100   4.801  17.226  0.00  0.00    +0.000 A 
ATOM     12  N   UNL     1       5.191   3.798  17.003  0.00  0.00    +0.000 N 
ATOM     13  C   UNL     1       4.847   3.249  18.218  0.00  0.00    +0.000 A 
ATOM     14  N   UNL     1       5.510   3.831  19.198  0.00  0.00    +0.000 NA
ATOM     15  C   UNL     1       6.279   4.800  18.607  0.00  0.00    +0.000 A 
ATOM     16  C   UNL     1       7.152   5.729  19.189  0.00  0.00    +0.000 A 
ATOM     17  H   UNL     1       4.788   3.533  16.116  0.00  0.00    +0.000 HD
BRANCH   8  18
ATOM     18  O   UNL     1       8.644   7.537  18.945  0.00  0.00    +0.000 OA
ATOM     19  H   UNL     1       8.692   8.329  18.387  0.00  0.00    +0.000 HD
ENDBRANCH   8  18
ENDBRANCH   7  13
ENDBRANCH   1   7
BRANCH   4  20
ATOM     20  C   UNL     1       1.986   5.743  20.936  0.00  0.00    +0.000 C 
BRANCH  20  21
ATOM     21  C   UNL     1       1.739   7.040  20.206  0.00  0.00    +0.000 A 
ATOM     22  C   UNL     1       2.457   7.394  19.064  0.00  0.00    +0.000 A 
ATOM     23  F   UNL     1       3.382   6.558  18.569  0.00  0.00    +0.000 F 
ATOM     24  C   UNL     1       2.238   8.607  18.405  0.00  0.00    +0.000 A 
ATOM     25  C   UNL     1       1.263   9.485  18.873  0.00  0.00    +0.000 A 
ATOM     26  C   UNL     1       0.513   9.145  19.995  0.00  0.00    +0.000 A 
ATOM     27  C   UNL     1       0.758   7.936  20.651  0.00  0.00    +0.000 A 
ATOM     28  F   UNL     1       0.025   7.644  21.734  0.00  0.00    +0.000 F 
ENDBRANCH  20  21
ENDBRANCH   4  20
TORSDOF 5
ENDMDL
