MODEL 1
REMARK VINA RESULT:      -6.9      0.000      0.000
REMARK  Name = 
REMARK  15 active torsions:
REMARK  status: ('A' for Active; 'I' for Inactive)
REMARK    1  A    between atoms: C_1  and  C_2
REMARK    2  A    between atoms: C_2  and  C_3
REMARK    3  A    between atoms: C_3  and  C_4
REMARK    4  A    between atoms: C_4  and  C_5
REMARK    5  A    between atoms: C_5  and  C_6
REMARK    6  A    between atoms: C_7  and  C_8
REMARK    7  A    between atoms: C_8  and  C_9
REMARK    8  A    between atoms: C_10  and  C_11
REMARK    9  A    between atoms: C_11  and  C_12
REMARK   10  A    between atoms: C_13  and  C_14
REMARK   11  A    between atoms: C_14  and  C_15
REMARK   12  A    between atoms: C_16  and  C_17
REMARK   13  A    between atoms: C_17  and  C_18
REMARK   14  A    between atoms: C_18  and  C_19
REMARK   15  A    between atoms: C_19  and  C_20
REMARK                            x       y       z     vdW  Elec       q    Type
REMARK                         _______ _______ _______ _____ _____    ______ ____
ROOT
ATOM      1  C   UNL     1       1.131   4.720  20.439  0.00  0.00    +0.000 C 
ENDROOT
BRANCH   1   3
ATOM      2  C   UNL     1       2.828   6.388  19.644  0.00  0.00    +0.000 C 
ATOM      3  C   UNL     1       2.348   5.577  20.608  0.00  0.00    +0.000 C 
BRANCH   2   4
ATOM      4  C   UNL     1       2.251   6.655  18.269  0.00  0.00    +0.000 C 
BRANCH   4   6
ATOM      5  C   UNL     1       2.155   9.180  17.981  0.00  0.00    +0.000 C 
ATOM      6  C   UNL     1       2.629   7.972  17.636  0.00  0.00    +0.000 C 
BRANCH   5   7
ATOM      7  C   UNL     1       1.153   9.433  19.065  0.00  0.00    +0.000 C 
BRANCH   7   9
ATOM      8  C   UNL     1       0.106  11.682  18.666  0.00  0.00    +0.000 C 
ATOM      9  C   UNL     1       0.078  10.347  18.572  0.00  0.00    +0.000 C 
BRANCH   8  10
ATOM     10  C   UNL     1       1.248  12.421  19.287  0.00  0.00    +0.000 C 
BRANCH  10  11
ATOM     11  C   UNL     1       2.169  13.033  18.247  0.00  0.00    +0.000 C 
BRANCH  11  12
ATOM     12  C   UNL     1       3.171  13.958  18.931  0.00  0.00    +0.000 C 
BRANCH  12  14
ATOM     13  C   UNL     1       5.320  14.734  17.905  0.00  0.00    +0.000 C 
ATOM     14  C   UNL     1       3.811  14.902  17.922  0.00  0.00    +0.000 C 
ENDBRANCH  12  14
ENDBRANCH  11  12
ENDBRANCH  10  11
ENDBRANCH   8  10
ENDBRANCH   7   9
ENDBRANCH   5   7
ENDBRANCH   4   6
ENDBRANCH   2   4
ENDBRANCH   1   3
BRANCH   1  15
ATOM     15  C   UNL     1       1.323   3.290  20.831  0.00  0.00    +0.000 C 
ATOM     16  C   UNL     1       1.603   2.292  19.976  0.00  0.00    +0.000 C 
BRANCH  16  17
ATOM     17  C   UNL     1       1.653   2.419  18.479  0.00  0.00    +0.000 C 
BRANCH  17  18
ATOM     18  C   UNL     1       3.056   2.145  17.951  0.00  0.00    +0.000 C 
BRANCH  18  19
ATOM     19  C   UNL     1       3.761   3.446  17.574  0.00  0.00    +0.000 C 
BRANCH  19  20
ATOM     20  C   UNL     1       4.881   3.740  18.538  0.00  0.00    +0.000 C 
ATOM     21  O   UNL     1       5.123   3.147  19.577  0.00  0.00    +0.000 OA
ATOM     22  N   UNL     1       5.726   4.840  18.165  0.00  0.00    +0.000 N 
ATOM     23  C   UNL     1       6.758   5.203  18.962  0.00  0.00    +0.000 A 
ATOM     24  C   UNL     1       7.587   6.263  18.634  0.00  0.00    +0.000 A 
ATOM     25  C   UNL     1       7.343   6.950  17.462  0.00  0.00    +0.000 A 
ATOM     26  C   UNL     1       6.284   6.534  16.689  0.00  0.00    +0.000 A 
ATOM     27  N   UNL     1       5.484   5.505  17.022  0.00  0.00    +0.000 NA
ENDBRANCH  19  20
ENDBRANCH  18  19
ENDBRANCH  17  18
ENDBRANCH  16  17
ENDBRANCH   1  15
TORSDOF 14
ENDMDL
MODEL 2
REMARK VINA RESULT:      -6.5      1.084      1.383
REMARK  Name = 
REMARK  15 active torsions:
REMARK  status: ('A' for Active; 'I' for Inactive)
REMARK    1  A    between atoms: C_1  and  C_2
REMARK    2  A    between atoms: C_2  and  C_3
REMARK    3  A    between atoms: C_3  and  C_4
REMARK    4  A    between atoms: C_4  and  C_5
REMARK    5  A    between atoms: C_5  and  C_6
REMARK    6  A    between atoms: C_7  and  C_8
REMARK    7  A    between atoms: C_8  and  C_9
REMARK    8  A    between atoms: C_10  and  C_11
REMARK    9  A    between atoms: C_11  and  C_12
REMARK   10  A    between atoms: C_13  and  C_14
REMARK   11  A    between atoms: C_14  and  C_15
REMARK   12  A    between atoms: C_16  and  C_17
REMARK   13  A    between atoms: C_17  and  C_18
REMARK   14  A    between atoms: C_18  and  C_19
REMARK   15  A    between atoms: C_19  and  C_20
REMARK                            x       y       z     vdW  Elec       q    Type
REMARK                         _______ _______ _______ _____ _____    ______ ____
ROOT
ATOM      1  C   UNL     1       2.349   4.821  20.689  0.00  0.00    +0.000 C 
ENDROOT
BRANCH   1   3
ATOM      2  C   UNL     1       1.756   7.197  20.145  0.00  0.00    +0.000 C 
ATOM      3  C   UNL     1       1.769   6.164  21.010  0.00  0.00    +0.000 C 
BRANCH   2   4
ATOM      4  C   UNL     1       2.237   7.224  18.709  0.00  0.00    +0.000 C 
BRANCH   4   6
ATOM      5  C   UNL     1       1.816   9.586  17.865  0.00  0.00    +0.000 C 
ATOM      6  C   UNL     1       2.645   8.575  18.172  0.00  0.00    +0.000 C 
BRANCH   5   7
ATOM      7  C   UNL     1       0.325   9.548  18.003  0.00  0.00    +0.000 C 
BRANCH   7   9
ATOM      8  C   UNL     1      -0.630  11.154  19.683  0.00  0.00    +0.000 C 
ATOM      9  C   UNL     1      -0.077   9.974  19.379  0.00  0.00    +0.000 C 
BRANCH   8  10
ATOM     10  C   UNL     1      -0.916  12.198  18.653  0.00  0.00    +0.000 C 
BRANCH  10  11
ATOM     11  C   UNL     1      -0.666  13.603  19.174  0.00  0.00    +0.000 C 
BRANCH  11  12
ATOM     12  C   UNL     1       0.835  13.830  19.329  0.00  0.00    +0.000 C 
BRANCH  12  14
ATOM     13  C   UNL     1       2.971  13.054  18.278  0.00  0.00    +0.000 C 
ATOM     14  C   UNL     1       1.561  13.556  18.020  0.00  0.00    +0.000 C 
ENDBRANCH  12  14
ENDBRANCH  11  12
ENDBRANCH  10  11
ENDBRANCH   8  10
ENDBRANCH   7   9
ENDBRANCH   5   7
ENDBRANCH   4   6
ENDBRANCH   2   4
ENDBRANCH   1   3
BRANCH   1  15
ATOM     15  C   UNL     1       1.344   3.717  20.602  0.00  0.00    +0.000 C 
ATOM     16  C   UNL     1       0.928   3.148  19.459  0.00  0.00    +0.000 C 
BRANCH  16  17
ATOM     17  C   UNL     1       1.308   3.597  18.076  0.00  0.00    +0.000 C 
BRANCH  17  18
ATOM     18  C   UNL     1       2.608   2.943  17.625  0.00  0.00    +0.000 C 
BRANCH  18  19
ATOM     19  C   UNL     1       3.643   3.997  17.235  0.00  0.00    +0.000 C 
BRANCH  19  20
ATOM     20  C   UNL     1       4.786   4.006  18.217  0.00  0.00    +0.000 C 
ATOM     21  O   UNL     1       4.979   3.205  19.118  0.00  0.00    +0.000 OA
ATOM     22  N   UNL     1       5.719   5.084  18.047  0.00  0.00    +0.000 N 
ATOM     23  C   UNL     1       6.779   5.200  18.880  0.00  0.00    +0.000 A 
ATOM     24  C   UNL     1       7.694   6.231  18.748  0.00  0.00    +0.000 A 
ATOM     25  C   UNL     1       7.507   7.150  17.734  0.00  0.00    +0.000 A 
ATOM     26  C   UNL     1       6.415   6.980  16.915  0.00  0.00    +0.000 A 
ATOM     27  N   UNL     1       5.532   5.975  17.058  0.00  0.00    +0.000 NA
ENDBRANCH  19  20
ENDBRANCH  18  19
ENDBRANCH  17  18
ENDBRANCH  16  17
ENDBRANCH   1  15
TORSDOF 14
ENDMDL
MODEL 3
REMARK VINA RESULT:      -6.4      3.756      7.947
REMARK  Name = 
REMARK  15 active torsions:
REMARK  status: ('A' for Active; 'I' for Inactive)
REMARK    1  A    between atoms: C_1  and  C_2
REMARK    2  A    between atoms: C_2  and  C_3
REMARK    3  A    between atoms: C_3  and  C_4
REMARK    4  A    between atoms: C_4  and  C_5
REMARK    5  A    between atoms: C_5  and  C_6
REMARK    6  A    between atoms: C_7  and  C_8
REMARK    7  A    between atoms: C_8  and  C_9
REMARK    8  A    between atoms: C_10  and  C_11
REMARK    9  A    between atoms: C_11  and  C_12
REMARK   10  A    between atoms: C_13  and  C_14
REMARK   11  A    between atoms: C_14  and  C_15
REMARK   12  A    between atoms: C_16  and  C_17
REMARK   13  A    between atoms: C_17  and  C_18
REMARK   14  A    between atoms: C_18  and  C_19
REMARK   15  A    between atoms: C_19  and  C_20
REMARK                            x       y       z     vdW  Elec       q    Type
REMARK                         _______ _______ _______ _____ _____    ______ ____
ROOT
ATOM      1  C   UNL     1       0.961   5.122  20.278  0.00  0.00    +0.000 C 
ENDROOT
BRANCH   1   3
ATOM      2  C   UNL     1       1.383   2.663  20.016  0.00  0.00    +0.000 C 
ATOM      3  C   UNL     1       1.258   3.750  20.802  0.00  0.00    +0.000 C 
BRANCH   2   4
ATOM      4  C   UNL     1       1.321   2.585  18.505  0.00  0.00    +0.000 C 
BRANCH   4   6
ATOM      5  C   UNL     1       3.681   2.751  17.572  0.00  0.00    +0.000 C 
ATOM      6  C   UNL     1       2.557   2.058  17.816  0.00  0.00    +0.000 C 
BRANCH   5   7
ATOM      7  C   UNL     1       3.906   4.184  17.943  0.00  0.00    +0.000 C 
BRANCH   7   9
ATOM      8  C   UNL     1       5.919   4.868  19.283  0.00  0.00    +0.000 C 
ATOM      9  C   UNL     1       4.724   4.272  19.192  0.00  0.00    +0.000 C 
BRANCH   8  10
ATOM     10  C   UNL     1       6.579   5.531  18.117  0.00  0.00    +0.000 C 
BRANCH  10  11
ATOM     11  C   UNL     1       7.212   4.527  17.169  0.00  0.00    +0.000 C 
BRANCH  11  12
ATOM     12  C   UNL     1       7.242   5.105  15.757  0.00  0.00    +0.000 C 
BRANCH  12  14
ATOM     13  C   UNL     1       5.157   6.405  15.279  0.00  0.00    +0.000 C 
ATOM     14  C   UNL     1       5.856   5.066  15.128  0.00  0.00    +0.000 C 
ENDBRANCH  12  14
ENDBRANCH  11  12
ENDBRANCH  10  11
ENDBRANCH   8  10
ENDBRANCH   7   9
ENDBRANCH   5   7
ENDBRANCH   4   6
ENDBRANCH   2   4
ENDBRANCH   1   3
BRANCH   1  15
ATOM     15  C   UNL     1       2.026   6.134  20.555  0.00  0.00    +0.000 C 
ATOM     16  C   UNL     1       2.412   7.095  19.699  0.00  0.00    +0.000 C 
BRANCH  16  17
ATOM     17  C   UNL     1       1.926   7.244  18.284  0.00  0.00    +0.000 C 
BRANCH  17  18
ATOM     18  C   UNL     1       1.841   8.712  17.885  0.00  0.00    +0.000 C 
BRANCH  18  19
ATOM     19  C   UNL     1       1.255   9.553  19.017  0.00  0.00    +0.000 C 
BRANCH  19  20
ATOM     20  C   UNL     1      -0.078  10.128  18.614  0.00  0.00    +0.000 C 
ATOM     21  O   UNL     1      -0.676   9.921  17.570  0.00  0.00    +0.000 OA
ATOM     22  N   UNL     1      -0.672  11.009  19.580  0.00  0.00    +0.000 N 
ATOM     23  C   UNL     1      -1.864  11.594  19.321  0.00  0.00    +0.000 A 
ATOM     24  C   UNL     1      -2.461  12.454  20.228  0.00  0.00    +0.000 A 
ATOM     25  C   UNL     1      -1.812  12.704  21.421  0.00  0.00    +0.000 A 
ATOM     26  C   UNL     1      -0.606  12.078  21.633  0.00  0.00    +0.000 A 
ATOM     27  N   UNL     1      -0.036  11.249  20.740  0.00  0.00    +0.000 NA
ENDBRANCH  19  20
ENDBRANCH  18  19
ENDBRANCH  17  18
ENDBRANCH  16  17
ENDBRANCH   1  15
TORSDOF 14
ENDMDL
MODEL 4
REMARK VINA RESULT:      -6.3      3.267      7.517
REMARK  Name = 
REMARK  15 active torsions:
REMARK  status: ('A' for Active; 'I' for Inactive)
REMARK    1  A    between atoms: C_1  and  C_2
REMARK    2  A    between atoms: C_2  and  C_3
REMARK    3  A    between atoms: C_3  and  C_4
REMARK    4  A    between atoms: C_4  and  C_5
REMARK    5  A    between atoms: C_5  and  C_6
REMARK    6  A    between atoms: C_7  and  C_8
REMARK    7  A    between atoms: C_8  and  C_9
REMARK    8  A    between atoms: C_10  and  C_11
REMARK    9  A    between atoms: C_11  and  C_12
REMARK   10  A    between atoms: C_13  and  C_14
REMARK   11  A    between atoms: C_14  and  C_15
REMARK   12  A    between atoms: C_16  and  C_17
REMARK   13  A    between atoms: C_17  and  C_18
REMARK   14  A    between atoms: C_18  and  C_19
REMARK   15  A    between atoms: C_19  and  C_20
REMARK                            x       y       z     vdW  Elec       q    Type
REMARK                         _______ _______ _______ _____ _____    ______ ____
ROOT
ATOM      1  C   UNL     1       2.682   2.487  20.126  0.00  0.00    +0.000 C 
ENDROOT
BRANCH   1   3
ATOM      2  C   UNL     1       3.145   2.043  17.700  0.00  0.00    +0.000 C 
ATOM      3  C   UNL     1       2.514   1.724  18.848  0.00  0.00    +0.000 C 
BRANCH   2   4
ATOM      4  C   UNL     1       4.159   3.142  17.462  0.00  0.00    +0.000 C 
BRANCH   4   6
ATOM      5  C   UNL     1       4.118   5.678  17.647  0.00  0.00    +0.000 C 
ATOM      6  C   UNL     1       3.598   4.520  17.208  0.00  0.00    +0.000 C 
BRANCH   5   7
ATOM      7  C   UNL     1       5.357   5.803  18.478  0.00  0.00    +0.000 C 
BRANCH   7   9
ATOM      8  C   UNL     1       7.209   6.299  16.854  0.00  0.00    +0.000 C 
ATOM      9  C   UNL     1       6.347   6.694  17.797  0.00  0.00    +0.000 C 
BRANCH   8  10
ATOM     10  C   UNL     1       7.275   4.888  16.363  0.00  0.00    +0.000 C 
BRANCH  10  11
ATOM     11  C   UNL     1       7.073   4.793  14.860  0.00  0.00    +0.000 C 
BRANCH  11  12
ATOM     12  C   UNL     1       5.938   3.822  14.556  0.00  0.00    +0.000 C 
BRANCH  12  14
ATOM     13  C   UNL     1       6.211   3.191  12.149  0.00  0.00    +0.000 C 
ATOM     14  C   UNL     1       5.419   4.024  13.139  0.00  0.00    +0.000 C 
ENDBRANCH  12  14
ENDBRANCH  11  12
ENDBRANCH  10  11
ENDBRANCH   8  10
ENDBRANCH   7   9
ENDBRANCH   5   7
ENDBRANCH   4   6
ENDBRANCH   2   4
ENDBRANCH   1   3
BRANCH   1  15
ATOM     15  C   UNL     1       1.406   2.996  20.715  0.00  0.00    +0.000 C 
ATOM     16  C   UNL     1       1.028   4.285  20.729  0.00  0.00    +0.000 C 
BRANCH  16  17
ATOM     17  C   UNL     1       1.869   5.441  20.264  0.00  0.00    +0.000 C 
BRANCH  17  18
ATOM     18  C   UNL     1       1.264   6.770  20.699  0.00  0.00    +0.000 C 
BRANCH  18  19
ATOM     19  C   UNL     1       2.145   7.939  20.266  0.00  0.00    +0.000 C 
BRANCH  19  20
ATOM     20  C   UNL     1       1.570   8.611  19.045  0.00  0.00    +0.000 C 
ATOM     21  O   UNL     1       1.840   8.362  17.882  0.00  0.00    +0.000 OA
ATOM     22  N   UNL     1       0.615   9.648  19.320  0.00  0.00    +0.000 N 
ATOM     23  C   UNL     1       0.042  10.329  18.301  0.00  0.00    +0.000 A 
ATOM     24  C   UNL     1      -0.877  11.339  18.532  0.00  0.00    +0.000 A 
ATOM     25  C   UNL     1      -1.208  11.640  19.838  0.00  0.00    +0.000 A 
ATOM     26  C   UNL     1      -0.599  10.912  20.833  0.00  0.00    +0.000 A 
ATOM     27  N   UNL     1       0.297   9.937  20.594  0.00  0.00    +0.000 NA
ENDBRANCH  19  20
ENDBRANCH  18  19
ENDBRANCH  17  18
ENDBRANCH  16  17
ENDBRANCH   1  15
TORSDOF 14
ENDMDL
MODEL 5
REMARK VINA RESULT:      -6.3      2.177      3.165
REMARK  Name = 
REMARK  15 active torsions:
REMARK  status: ('A' for Active; 'I' for Inactive)
REMARK    1  A    between atoms: C_1  and  C_2
REMARK    2  A    between atoms: C_2  and  C_3
REMARK    3  A    between atoms: C_3  and  C_4
REMARK    4  A    between atoms: C_4  and  C_5
REMARK    5  A    between atoms: C_5  and  C_6
REMARK    6  A    between atoms: C_7  and  C_8
REMARK    7  A    between atoms: C_8  and  C_9
REMARK    8  A    between atoms: C_10  and  C_11
REMARK    9  A    between atoms: C_11  and  C_12
REMARK   10  A    between atoms: C_13  and  C_14
REMARK   11  A    between atoms: C_14  and  C_15
REMARK   12  A    between atoms: C_16  and  C_17
REMARK   13  A    between atoms: C_17  and  C_18
REMARK   14  A    between atoms: C_18  and  C_19
REMARK   15  A    between atoms: C_19  and  C_20
REMARK                            x       y       z     vdW  Elec       q    Type
REMARK                         _______ _______ _______ _____ _____    ______ ____
ROOT
ATOM      1  C   UNL     1       0.905   4.594  20.212  0.00  0.00    +0.000 C 
ENDROOT
BRANCH   1   3
ATOM      2  C   UNL     1       2.051   6.826  20.212  0.00  0.00    +0.000 C 
ATOM      3  C   UNL     1       2.023   5.526  19.857  0.00  0.00    +0.000 C 
BRANCH   2   4
ATOM      4  C   UNL     1       1.052   7.590  21.054  0.00  0.00    +0.000 C 
BRANCH   4   6
ATOM      5  C   UNL     1       0.866   9.649  22.537  0.00  0.00    +0.000 C 
ATOM      6  C   UNL     1       1.567   8.840  21.725  0.00  0.00    +0.000 C 
BRANCH   5   7
ATOM      7  C   UNL     1      -0.569   9.449  22.918  0.00  0.00    +0.000 C 
BRANCH   7   9
ATOM      8  C   UNL     1      -1.039  11.885  22.515  0.00  0.00    +0.000 C 
ATOM      9  C   UNL     1      -1.207  10.765  23.228  0.00  0.00    +0.000 C 
BRANCH   8  10
ATOM     10  C   UNL     1      -0.175  11.940  21.296  0.00  0.00    +0.000 C 
BRANCH  10  11
ATOM     11  C   UNL     1      -0.990  12.060  20.020  0.00  0.00    +0.000 C 
BRANCH  11  12
ATOM     12  C   UNL     1      -0.813  10.801  19.178  0.00  0.00    +0.000 C 
BRANCH  12  14
ATOM     13  C   UNL     1       0.822   9.458  17.838  0.00  0.00    +0.000 C 
ATOM     14  C   UNL     1       0.539  10.805  18.477  0.00  0.00    +0.000 C 
ENDBRANCH  12  14
ENDBRANCH  11  12
ENDBRANCH  10  11
ENDBRANCH   8  10
ENDBRANCH   7   9
ENDBRANCH   5   7
ENDBRANCH   4   6
ENDBRANCH   2   4
ENDBRANCH   1   3
BRANCH   1  15
ATOM     15  C   UNL     1       1.344   3.319  20.857  0.00  0.00    +0.000 C 
ATOM     16  C   UNL     1       1.879   2.274  20.204  0.00  0.00    +0.000 C 
BRANCH  16  17
ATOM     17  C   UNL     1       2.020   2.163  18.711  0.00  0.00    +0.000 C 
BRANCH  17  18
ATOM     18  C   UNL     1       3.457   1.846  18.317  0.00  0.00    +0.000 C 
BRANCH  18  19
ATOM     19  C   UNL     1       4.410   2.934  18.806  0.00  0.00    +0.000 C 
BRANCH  19  20
ATOM     20  C   UNL     1       4.786   3.856  17.676  0.00  0.00    +0.000 C 
ATOM     21  O   UNL     1       4.295   3.878  16.559  0.00  0.00    +0.000 OA
ATOM     22  N   UNL     1       5.837   4.787  17.980  0.00  0.00    +0.000 N 
ATOM     23  C   UNL     1       6.266   5.656  17.036  0.00  0.00    +0.000 A 
ATOM     24  C   UNL     1       7.282   6.562  17.295  0.00  0.00    +0.000 A 
ATOM     25  C   UNL     1       7.854   6.566  18.551  0.00  0.00    +0.000 A 
ATOM     26  C   UNL     1       7.374   5.664  19.472  0.00  0.00    +0.000 A 
ATOM     27  N   UNL     1       6.390   4.787  19.205  0.00  0.00    +0.000 NA
ENDBRANCH  19  20
ENDBRANCH  18  19
ENDBRANCH  17  18
ENDBRANCH  16  17
ENDBRANCH   1  15
TORSDOF 14
ENDMDL
MODEL 6
REMARK VINA RESULT:      -6.3      3.634      7.850
REMARK  Name = 
REMARK  15 active torsions:
REMARK  status: ('A' for Active; 'I' for Inactive)
REMARK    1  A    between atoms: C_1  and  C_2
REMARK    2  A    between atoms: C_2  and  C_3
REMARK    3  A    between atoms: C_3  and  C_4
REMARK    4  A    between atoms: C_4  and  C_5
REMARK    5  A    between atoms: C_5  and  C_6
REMARK    6  A    between atoms: C_7  and  C_8
REMARK    7  A    between atoms: C_8  and  C_9
REMARK    8  A    between atoms: C_10  and  C_11
REMARK    9  A    between atoms: C_11  and  C_12
REMARK   10  A    between atoms: C_13  and  C_14
REMARK   11  A    between atoms: C_14  and  C_15
REMARK   12  A    between atoms: C_16  and  C_17
REMARK   13  A    between atoms: C_17  and  C_18
REMARK   14  A    between atoms: C_18  and  C_19
REMARK   15  A    between atoms: C_19  and  C_20
REMARK                            x       y       z     vdW  Elec       q    Type
REMARK                         _______ _______ _______ _____ _____    ______ ____
ROOT
ATOM      1  C   UNL     1       1.580   5.264  17.571  0.00  0.00    +0.000 C 
ENDROOT
BRANCH   1   3
ATOM      2  C   UNL     1       1.379   2.947  18.509  0.00  0.00    +0.000 C 
ATOM      3  C   UNL     1       1.801   3.783  17.541  0.00  0.00    +0.000 C 
BRANCH   2   4
ATOM      4  C   UNL     1       0.577   3.277  19.751  0.00  0.00    +0.000 C 
BRANCH   4   6
ATOM      5  C   UNL     1       2.313   2.952  21.581  0.00  0.00    +0.000 C 
ATOM      6  C   UNL     1       1.102   2.715  21.050  0.00  0.00    +0.000 C 
BRANCH   5   7
ATOM      7  C   UNL     1       3.365   3.821  20.967  0.00  0.00    +0.000 C 
BRANCH   7   9
ATOM      8  C   UNL     1       5.173   3.516  19.249  0.00  0.00    +0.000 C 
ATOM      9  C   UNL     1       4.247   3.010  20.073  0.00  0.00    +0.000 C 
BRANCH   8  10
ATOM     10  C   UNL     1       5.435   4.983  19.136  0.00  0.00    +0.000 C 
BRANCH  10  11
ATOM     11  C   UNL     1       6.505   5.298  18.105  0.00  0.00    +0.000 C 
BRANCH  11  12
ATOM     12  C   UNL     1       6.235   4.506  16.830  0.00  0.00    +0.000 C 
BRANCH  12  14
ATOM     13  C   UNL     1       5.217   6.514  15.734  0.00  0.00    +0.000 C 
ATOM     14  C   UNL     1       5.016   5.055  16.101  0.00  0.00    +0.000 C 
ENDBRANCH  12  14
ENDBRANCH  11  12
ENDBRANCH  10  11
ENDBRANCH   8  10
ENDBRANCH   7   9
ENDBRANCH   5   7
ENDBRANCH   4   6
ENDBRANCH   2   4
ENDBRANCH   1   3
BRANCH   1  15
ATOM     15  C   UNL     1       2.201   5.959  18.740  0.00  0.00    +0.000 C 
ATOM     16  C   UNL     1       2.561   7.253  18.761  0.00  0.00    +0.000 C 
BRANCH  16  17
ATOM     17  C   UNL     1       2.510   8.187  17.585  0.00  0.00    +0.000 C 
BRANCH  17  18
ATOM     18  C   UNL     1       2.052   9.578  18.007  0.00  0.00    +0.000 C 
BRANCH  18  19
ATOM     19  C   UNL     1       0.547   9.603  18.265  0.00  0.00    +0.000 C 
BRANCH  19  20
ATOM     20  C   UNL     1       0.171  10.807  19.089  0.00  0.00    +0.000 C 
ATOM     21  O   UNL     1       0.104  11.962  18.702  0.00  0.00    +0.000 OA
ATOM     22  N   UNL     1      -0.127  10.527  20.466  0.00  0.00    +0.000 N 
ATOM     23  C   UNL     1      -0.466  11.534  21.304  0.00  0.00    +0.000 A 
ATOM     24  C   UNL     1      -0.753  11.298  22.638  0.00  0.00    +0.000 A 
ATOM     25  C   UNL     1      -0.692  10.000  23.104  0.00  0.00    +0.000 A 
ATOM     26  C   UNL     1      -0.348   9.017  22.207  0.00  0.00    +0.000 A 
ATOM     27  N   UNL     1      -0.067   9.261  20.914  0.00  0.00    +0.000 NA
ENDBRANCH  19  20
ENDBRANCH  18  19
ENDBRANCH  17  18
ENDBRANCH  16  17
ENDBRANCH   1  15
TORSDOF 14
ENDMDL
MODEL 7
REMARK VINA RESULT:      -6.3      4.244      9.200
REMARK  Name = 
REMARK  15 active torsions:
REMARK  status: ('A' for Active; 'I' for Inactive)
REMARK    1  A    between atoms: C_1  and  C_2
REMARK    2  A    between atoms: C_2  and  C_3
REMARK    3  A    between atoms: C_3  and  C_4
REMARK    4  A    between atoms: C_4  and  C_5
REMARK    5  A    between atoms: C_5  and  C_6
REMARK    6  A    between atoms: C_7  and  C_8
REMARK    7  A    between atoms: C_8  and  C_9
REMARK    8  A    between atoms: C_10  and  C_11
REMARK    9  A    between atoms: C_11  and  C_12
REMARK   10  A    between atoms: C_13  and  C_14
REMARK   11  A    between atoms: C_14  and  C_15
REMARK   12  A    between atoms: C_16  and  C_17
REMARK   13  A    between atoms: C_17  and  C_18
REMARK   14  A    between atoms: C_18  and  C_19
REMARK   15  A    between atoms: C_19  and  C_20
REMARK                            x       y       z     vdW  Elec       q    Type
REMARK                         _______ _______ _______ _____ _____    ______ ____
ROOT
ATOM      1  C   UNL     1       1.984   7.033  18.293  0.00  0.00    +0.000 C 
ENDROOT
BRANCH   1   3
ATOM      2  C   UNL     1       2.274   5.974  20.549  0.00  0.00    +0.000 C 
ATOM      3  C   UNL     1       2.711   6.806  19.584  0.00  0.00    +0.000 C 
BRANCH   2   4
ATOM      4  C   UNL     1       1.053   5.077  20.533  0.00  0.00    +0.000 C 
BRANCH   4   6
ATOM      5  C   UNL     1       1.476   2.649  19.907  0.00  0.00    +0.000 C 
ATOM      6  C   UNL     1       1.299   3.616  20.822  0.00  0.00    +0.000 C 
BRANCH   5   7
ATOM      7  C   UNL     1       1.457   2.854  18.424  0.00  0.00    +0.000 C 
BRANCH   7   9
ATOM      8  C   UNL     1       3.789   2.512  17.551  0.00  0.00    +0.000 C 
ATOM      9  C   UNL     1       2.549   2.062  17.779  0.00  0.00    +0.000 C 
BRANCH   8  10
ATOM     10  C   UNL     1       4.227   3.890  17.931  0.00  0.00    +0.000 C 
BRANCH  10  11
ATOM     11  C   UNL     1       4.495   4.762  16.717  0.00  0.00    +0.000 C 
BRANCH  11  12
ATOM     12  C   UNL     1       5.864   5.421  16.851  0.00  0.00    +0.000 C 
BRANCH  12  14
ATOM     13  C   UNL     1       6.546   4.205  14.771  0.00  0.00    +0.000 C 
ATOM     14  C   UNL     1       6.940   4.569  16.191  0.00  0.00    +0.000 C 
ENDBRANCH  12  14
ENDBRANCH  11  12
ENDBRANCH  10  11
ENDBRANCH   8  10
ENDBRANCH   7   9
ENDBRANCH   5   7
ENDBRANCH   4   6
ENDBRANCH   2   4
ENDBRANCH   1   3
BRANCH   1  15
ATOM     15  C   UNL     1       2.180   8.392  17.704  0.00  0.00    +0.000 C 
ATOM     16  C   UNL     1       1.771   9.540  18.269  0.00  0.00    +0.000 C 
BRANCH  16  17
ATOM     17  C   UNL     1       0.948   9.645  19.523  0.00  0.00    +0.000 C 
BRANCH  17  18
ATOM     18  C   UNL     1      -0.535   9.778  19.197  0.00  0.00    +0.000 C 
BRANCH  18  19
ATOM     19  C   UNL     1      -0.801  11.031  18.366  0.00  0.00    +0.000 C 
BRANCH  19  20
ATOM     20  C   UNL     1      -2.005  10.834  17.481  0.00  0.00    +0.000 C 
ATOM     21  O   UNL     1      -2.029  10.273  16.398  0.00  0.00    +0.000 OA
ATOM     22  N   UNL     1      -3.229  11.381  17.997  0.00  0.00    +0.000 N 
ATOM     23  C   UNL     1      -4.373  11.274  17.281  0.00  0.00    +0.000 A 
ATOM     24  C   UNL     1      -5.569  11.796  17.747  0.00  0.00    +0.000 A 
ATOM     25  C   UNL     1      -5.575  12.431  18.973  0.00  0.00    +0.000 A 
ATOM     26  C   UNL     1      -4.385  12.506  19.658  0.00  0.00    +0.000 A 
ATOM     27  N   UNL     1      -3.230  11.998  19.191  0.00  0.00    +0.000 NA
ENDBRANCH  19  20
ENDBRANCH  18  19
ENDBRANCH  17  18
ENDBRANCH  16  17
ENDBRANCH   1  15
TORSDOF 14
ENDMDL
MODEL 8
REMARK VINA RESULT:      -6.3      3.955      8.396
REMARK  Name = 
REMARK  15 active torsions:
REMARK  status: ('A' for Active; 'I' for Inactive)
REMARK    1  A    between atoms: C_1  and  C_2
REMARK    2  A    between atoms: C_2  and  C_3
REMARK    3  A    between atoms: C_3  and  C_4
REMARK    4  A    between atoms: C_4  and  C_5
REMARK    5  A    between atoms: C_5  and  C_6
REMARK    6  A    between atoms: C_7  and  C_8
REMARK    7  A    between atoms: C_8  and  C_9
REMARK    8  A    between atoms: C_10  and  C_11
REMARK    9  A    between atoms: C_11  and  C_12
REMARK   10  A    between atoms: C_13  and  C_14
REMARK   11  A    between atoms: C_14  and  C_15
REMARK   12  A    between atoms: C_16  and  C_17
REMARK   13  A    between atoms: C_17  and  C_18
REMARK   14  A    between atoms: C_18  and  C_19
REMARK   15  A    between atoms: C_19  and  C_20
REMARK                            x       y       z     vdW  Elec       q    Type
REMARK                         _______ _______ _______ _____ _____    ______ ____
ROOT
ATOM      1  C   UNL     1       2.106   5.452  17.775  0.00  0.00    +0.000 C 
ENDROOT
BRANCH   1   3
ATOM      2  C   UNL     1       2.916   3.112  18.174  0.00  0.00    +0.000 C 
ATOM      3  C   UNL     1       1.907   4.001  18.090  0.00  0.00    +0.000 C 
BRANCH   2   4
ATOM      4  C   UNL     1       4.404   3.365  18.041  0.00  0.00    +0.000 C 
BRANCH   4   6
ATOM      5  C   UNL     1       5.975   4.998  19.195  0.00  0.00    +0.000 C 
ATOM      6  C   UNL     1       5.079   3.997  19.233  0.00  0.00    +0.000 C 
BRANCH   5   7
ATOM      7  C   UNL     1       6.466   5.665  17.948  0.00  0.00    +0.000 C 
BRANCH   7   9
ATOM      8  C   UNL     1       5.139   6.857  16.178  0.00  0.00    +0.000 C 
ATOM      9  C   UNL     1       5.458   6.657  17.462  0.00  0.00    +0.000 C 
BRANCH   8  10
ATOM     10  C   UNL     1       5.769   6.085  15.063  0.00  0.00    +0.000 C 
BRANCH  10  11
ATOM     11  C   UNL     1       5.187   4.688  14.932  0.00  0.00    +0.000 C 
BRANCH  11  12
ATOM     12  C   UNL     1       6.276   3.721  14.479  0.00  0.00    +0.000 C 
BRANCH  12  14
ATOM     13  C   UNL     1       5.535   3.134  12.160  0.00  0.00    +0.000 C 
ATOM     14  C   UNL     1       6.560   3.884  12.992  0.00  0.00    +0.000 C 
ENDBRANCH  12  14
ENDBRANCH  11  12
ENDBRANCH  10  11
ENDBRANCH   8  10
ENDBRANCH   7   9
ENDBRANCH   5   7
ENDBRANCH   4   6
ENDBRANCH   2   4
ENDBRANCH   1   3
BRANCH   1  15
ATOM     15  C   UNL     1       2.407   6.308  18.963  0.00  0.00    +0.000 C 
ATOM     16  C   UNL     1       2.359   7.650  18.973  0.00  0.00    +0.000 C 
BRANCH  16  17
ATOM     17  C   UNL     1       2.112   8.519  17.771  0.00  0.00    +0.000 C 
BRANCH  17  18
ATOM     18  C   UNL     1       1.691   9.924  18.187  0.00  0.00    +0.000 C 
BRANCH  18  19
ATOM     19  C   UNL     1       0.188   9.988  18.451  0.00  0.00    +0.000 C 
BRANCH  19  20
ATOM     20  C   UNL     1      -0.208  11.364  18.921  0.00  0.00    +0.000 C 
ATOM     21  O   UNL     1      -0.288  12.372  18.238  0.00  0.00    +0.000 OA
ATOM     22  N   UNL     1      -0.511  11.460  20.322  0.00  0.00    +0.000 N 
ATOM     23  C   UNL     1      -0.868  12.650  20.858  0.00  0.00    +0.000 A 
ATOM     24  C   UNL     1      -1.160  12.777  22.206  0.00  0.00    +0.000 A 
ATOM     25  C   UNL     1      -1.085  11.653  23.004  0.00  0.00    +0.000 A 
ATOM     26  C   UNL     1      -0.723  10.470  22.404  0.00  0.00    +0.000 A 
ATOM     27  N   UNL     1      -0.437  10.361  21.093  0.00  0.00    +0.000 NA
ENDBRANCH  19  20
ENDBRANCH  18  19
ENDBRANCH  17  18
ENDBRANCH  16  17
ENDBRANCH   1  15
TORSDOF 14
ENDMDL
MODEL 9
REMARK VINA RESULT:      -6.2      3.874      8.369
REMARK  Name = 
REMARK  15 active torsions:
REMARK  status: ('A' for Active; 'I' for Inactive)
REMARK    1  A    between atoms: C_1  and  C_2
REMARK    2  A    between atoms: C_2  and  C_3
REMARK    3  A    between atoms: C_3  and  C_4
REMARK    4  A    between atoms: C_4  and  C_5
REMARK    5  A    between atoms: C_5  and  C_6
REMARK    6  A    between atoms: C_7  and  C_8
REMARK    7  A    between atoms: C_8  and  C_9
REMARK    8  A    between atoms: C_10  and  C_11
REMARK    9  A    between atoms: C_11  and  C_12
REMARK   10  A    between atoms: C_13  and  C_14
REMARK   11  A    between atoms: C_14  and  C_15
REMARK   12  A    between atoms: C_16  and  C_17
REMARK   13  A    between atoms: C_17  and  C_18
REMARK   14  A    between atoms: C_18  and  C_19
REMARK   15  A    between atoms: C_19  and  C_20
REMARK                            x       y       z     vdW  Elec       q    Type
REMARK                         _______ _______ _______ _____ _____    ______ ____
ROOT
ATOM      1  C   UNL     1       1.945   5.805  19.097  0.00  0.00    +0.000 C 
ENDROOT
BRANCH   1   3
ATOM      2  C   UNL     1       1.877   4.389  21.167  0.00  0.00    +0.000 C 
ATOM      3  C   UNL     1       1.811   5.598  20.575  0.00  0.00    +0.000 C 
BRANCH   2   4
ATOM      4  C   UNL     1       2.149   3.044  20.527  0.00  0.00    +0.000 C 
BRANCH   4   6
ATOM      5  C   UNL     1       4.176   2.106  19.310  0.00  0.00    +0.000 C 
ATOM      6  C   UNL     1       3.601   2.653  20.394  0.00  0.00    +0.000 C 
BRANCH   5   7
ATOM      7  C   UNL     1       3.466   1.781  18.033  0.00  0.00    +0.000 C 
BRANCH   7   9
ATOM      8  C   UNL     1       3.614   3.903  16.695  0.00  0.00    +0.000 C 
ATOM      9  C   UNL     1       2.910   3.027  17.420  0.00  0.00    +0.000 C 
BRANCH   8  10
ATOM     10  C   UNL     1       5.070   3.723  16.406  0.00  0.00    +0.000 C 
BRANCH  10  11
ATOM     11  C   UNL     1       5.602   4.782  15.456  0.00  0.00    +0.000 C 
BRANCH  11  12
ATOM     12  C   UNL     1       5.730   6.112  16.192  0.00  0.00    +0.000 C 
BRANCH  12  14
ATOM     13  C   UNL     1       7.450   7.334  17.540  0.00  0.00    +0.000 C 
ATOM     14  C   UNL     1       6.744   6.008  17.323  0.00  0.00    +0.000 C 
ENDBRANCH  12  14
ENDBRANCH  11  12
ENDBRANCH  10  11
ENDBRANCH   8  10
ENDBRANCH   7   9
ENDBRANCH   5   7
ENDBRANCH   4   6
ENDBRANCH   2   4
ENDBRANCH   1   3
BRANCH   1  15
ATOM     15  C   UNL     1       3.065   6.711  18.698  0.00  0.00    +0.000 C 
ATOM     16  C   UNL     1       2.909   7.931  18.157  0.00  0.00    +0.000 C 
BRANCH  16  17
ATOM     17  C   UNL     1       1.595   8.540  17.754  0.00  0.00    +0.000 C 
BRANCH  17  18
ATOM     18  C   UNL     1       1.037   9.426  18.861  0.00  0.00    +0.000 C 
BRANCH  18  19
ATOM     19  C   UNL     1       0.472  10.724  18.289  0.00  0.00    +0.000 C 
BRANCH  19  20
ATOM     20  C   UNL     1      -0.803  11.104  18.996  0.00  0.00    +0.000 C 
ATOM     21  O   UNL     1      -0.930  11.355  20.184  0.00  0.00    +0.000 OA
ATOM     22  N   UNL     1      -1.966  11.161  18.155  0.00  0.00    +0.000 N 
ATOM     23  C   UNL     1      -3.170  11.480  18.685  0.00  0.00    +0.000 A 
ATOM     24  C   UNL     1      -4.311  11.538  17.903  0.00  0.00    +0.000 A 
ATOM     25  C   UNL     1      -4.198  11.266  16.554  0.00  0.00    +0.000 A 
ATOM     26  C   UNL     1      -2.950  10.952  16.070  0.00  0.00    +0.000 A 
ATOM     27  N   UNL     1      -1.850  10.896  16.843  0.00  0.00    +0.000 NA
ENDBRANCH  19  20
ENDBRANCH  18  19
ENDBRANCH  17  18
ENDBRANCH  16  17
ENDBRANCH   1  15
TORSDOF 14
ENDMDL
