MODEL 1
REMARK VINA RESULT:      -7.2      0.000      0.000
REMARK  Name = 
REMARK  5 active torsions:
REMARK  status: ('A' for Active; 'I' for Inactive)
REMARK    1  A    between atoms: C_2  and  C_3
REMARK    2  A    between atoms: C_3  and  N_4
REMARK    3  A    between atoms: N_4  and  C_13
REMARK    4  A    between atoms: C_8  and  C_9
REMARK    5  A    between atoms: N_16  and  C_17
REMARK                            x       y       z     vdW  Elec       q    Type
REMARK                         _______ _______ _______ _____ _____    ______ ____
ROOT
ATOM      1  C   UNL     1       2.511   6.606  18.476  0.00  0.00    +0.000 C 
ATOM      2  C   UNL     1       2.119   5.264  17.854  0.00  0.00    +0.000 C 
ATOM      3  C   UNL     1       3.248   4.316  18.241  0.00  0.00    +0.000 C 
ATOM      4  N   UNL     1       4.421   5.166  18.427  0.00  0.00    +0.000 N 
ATOM      5  C   UNL     1       4.056   6.587  18.330  0.00  0.00    +0.000 C 
ENDROOT
BRANCH   4   6
ATOM      6  C   UNL     1       5.622   4.781  17.858  0.00  0.00    +0.000 A 
ATOM      7  N   UNL     1       6.765   4.719  18.590  0.00  0.00    +0.000 NA
ATOM      8  C   UNL     1       7.930   4.449  17.959  0.00  0.00    +0.000 A 
ATOM      9  N   UNL     1       8.143   4.258  16.646  0.00  0.00    +0.000 NA
ATOM     10  C   UNL     1       6.995   4.336  15.959  0.00  0.00    +0.000 A 
ATOM     11  N   UNL     1       6.890   4.242  14.596  0.00  0.00    +0.000 N 
ATOM     12  C   UNL     1       5.577   4.370  14.221  0.00  0.00    +0.000 A 
ATOM     13  C   UNL     1       4.832   4.563  15.364  0.00  0.00    +0.000 A 
ATOM     14  C   UNL     1       5.727   4.558  16.473  0.00  0.00    +0.000 A 
ATOM     15  H   UNL     1       7.682   4.125  13.980  0.00  0.00    +0.000 HD
ENDBRANCH   4   6
BRANCH   1  16
ATOM     16  N   UNL     1       2.000   6.724  19.867  0.00  0.00    +0.000 N 
ATOM     17  C   UNL     1       1.444   7.949  20.252  0.00  0.00    +0.000 A 
ATOM     18  C   UNL     1       1.079   8.264  21.575  0.00  0.00    +0.000 A 
ATOM     19  N   UNL     1       0.627   9.480  22.013  0.00  0.00    +0.000 NA
ATOM     20  C   UNL     1       0.519  10.424  21.056  0.00  0.00    +0.000 A 
ATOM     21  C   UNL     1       0.816  10.140  19.738  0.00  0.00    +0.000 A 
ATOM     22  N   UNL     1       1.269   8.920  19.323  0.00  0.00    +0.000 NA
BRANCH  20  23
ATOM     23  C   UNL     1       0.100  11.740  21.470  0.00  0.00    +0.000 C 
ATOM     24  N   UNL     1      -0.264  12.779  21.830  0.00  0.00    +0.000 NA
ENDBRANCH  20  23
BRANCH  16  25
ATOM     25  C   UNL     1       2.280   5.661  20.840  0.00  0.00    +0.000 C 
BRANCH  25  27
ATOM     26  C   UNL     1       0.513   3.499  20.416  0.00  0.00    +0.000 C 
ATOM     27  C   UNL     1       1.329   4.498  20.612  0.00  0.00    +0.000 C 
ENDBRANCH  25  27
ENDBRANCH  16  25
ENDBRANCH   1  16
TORSDOF 5
ENDMDL
MODEL 2
REMARK VINA RESULT:      -6.9      1.509      7.619
REMARK  Name = 
REMARK  5 active torsions:
REMARK  status: ('A' for Active; 'I' for Inactive)
REMARK    1  A    between atoms: C_2  and  C_3
REMARK    2  A    between atoms: C_3  and  N_4
REMARK    3  A    between atoms: N_4  and  C_13
REMARK    4  A    between atoms: C_8  and  C_9
REMARK    5  A    between atoms: N_16  and  C_17
REMARK                            x       y       z     vdW  Elec       q    Type
REMARK                         _______ _______ _______ _____ _____    ______ ____
ROOT
ATOM      1  C   UNL     1       3.640   5.415  19.542  0.00  0.00    +0.000 C 
ATOM      2  C   UNL     1       2.705   4.872  20.625  0.00  0.00    +0.000 C 
ATOM      3  C   UNL     1       1.463   5.750  20.536  0.00  0.00    +0.000 C 
ATOM      4  N   UNL     1       1.926   7.023  19.990  0.00  0.00    +0.000 N 
ATOM      5  C   UNL     1       3.340   6.936  19.593  0.00  0.00    +0.000 C 
ENDROOT
BRANCH   4   6
ATOM      6  C   UNL     1       1.507   8.199  20.587  0.00  0.00    +0.000 A 
ATOM      7  N   UNL     1       1.412   8.311  21.937  0.00  0.00    +0.000 NA
ATOM      8  C   UNL     1       0.887   9.442  22.462  0.00  0.00    +0.000 A 
ATOM      9  N   UNL     1       0.390  10.510  21.814  0.00  0.00    +0.000 NA
ATOM     10  C   UNL     1       0.494  10.355  20.486  0.00  0.00    +0.000 A 
ATOM     11  N   UNL     1       0.024  11.244  19.556  0.00  0.00    +0.000 N 
ATOM     12  C   UNL     1       0.289  10.778  18.293  0.00  0.00    +0.000 A 
ATOM     13  C   UNL     1       0.927   9.563  18.421  0.00  0.00    +0.000 A 
ATOM     14  C   UNL     1       1.048   9.278  19.812  0.00  0.00    +0.000 A 
ATOM     15  H   UNL     1      -0.467  12.095  19.791  0.00  0.00    +0.000 HD
ENDBRANCH   4   6
BRANCH   1  16
ATOM     16  N   UNL     1       3.388   4.755  18.233  0.00  0.00    +0.000 N 
ATOM     17  C   UNL     1       4.412   4.792  17.281  0.00  0.00    +0.000 A 
ATOM     18  C   UNL     1       4.260   4.365  15.948  0.00  0.00    +0.000 A 
ATOM     19  N   UNL     1       5.201   4.476  14.959  0.00  0.00    +0.000 NA
ATOM     20  C   UNL     1       6.368   5.029  15.345  0.00  0.00    +0.000 A 
ATOM     21  C   UNL     1       6.577   5.412  16.655  0.00  0.00    +0.000 A 
ATOM     22  N   UNL     1       5.622   5.296  17.626  0.00  0.00    +0.000 NA
BRANCH  20  23
ATOM     23  C   UNL     1       7.376   5.221  14.332  0.00  0.00    +0.000 C 
ATOM     24  N   UNL     1       8.162   5.409  13.502  0.00  0.00    +0.000 NA
ENDBRANCH  20  23
BRANCH  16  25
ATOM     25  C   UNL     1       2.037   4.288  17.900  0.00  0.00    +0.000 C 
BRANCH  25  27
ATOM     26  C   UNL     1       1.736   1.600  18.713  0.00  0.00    +0.000 C 
ATOM     27  C   UNL     1       1.876   2.841  18.338  0.00  0.00    +0.000 C 
ENDBRANCH  25  27
ENDBRANCH  16  25
ENDBRANCH   1  16
TORSDOF 5
ENDMDL
MODEL 3
REMARK VINA RESULT:      -6.8      2.220      7.899
REMARK  Name = 
REMARK  5 active torsions:
REMARK  status: ('A' for Active; 'I' for Inactive)
REMARK    1  A    between atoms: C_2  and  C_3
REMARK    2  A    between atoms: C_3  and  N_4
REMARK    3  A    between atoms: N_4  and  C_13
REMARK    4  A    between atoms: C_8  and  C_9
REMARK    5  A    between atoms: N_16  and  C_17
REMARK                            x       y       z     vdW  Elec       q    Type
REMARK                         _______ _______ _______ _____ _____    ______ ____
ROOT
ATOM      1  C   UNL     1       2.460   7.685  19.951  0.00  0.00    +0.000 C 
ATOM      2  C   UNL     1       1.561   8.073  21.127  0.00  0.00    +0.000 C 
ATOM      3  C   UNL     1       0.298   8.627  20.479  0.00  0.00    +0.000 C 
ATOM      4  N   UNL     1       0.721   9.133  19.176  0.00  0.00    +0.000 N 
ATOM      5  C   UNL     1       2.127   8.791  18.915  0.00  0.00    +0.000 C 
ENDROOT
BRANCH   4   6
ATOM      6  C   UNL     1       0.288  10.385  18.772  0.00  0.00    +0.000 A 
ATOM      7  N   UNL     1       1.023  11.500  19.019  0.00  0.00    +0.000 NA
ATOM      8  C   UNL     1       0.500  12.708  18.706  0.00  0.00    +0.000 A 
ATOM      9  N   UNL     1      -0.711  12.985  18.195  0.00  0.00    +0.000 NA
ATOM     10  C   UNL     1      -1.408  11.861  17.976  0.00  0.00    +0.000 A 
ATOM     11  N   UNL     1      -2.696  11.815  17.514  0.00  0.00    +0.000 N 
ATOM     12  C   UNL     1      -3.107  10.510  17.409  0.00  0.00    +0.000 A 
ATOM     13  C   UNL     1      -2.064   9.710  17.825  0.00  0.00    +0.000 A 
ATOM     14  C   UNL     1      -0.985  10.560  18.202  0.00  0.00    +0.000 A 
ATOM     15  H   UNL     1      -3.250  12.636  17.316  0.00  0.00    +0.000 HD
ENDBRANCH   4   6
BRANCH   1  16
ATOM     16  N   UNL     1       2.195   6.291  19.508  0.00  0.00    +0.000 N 
ATOM     17  C   UNL     1       3.051   5.741  18.548  0.00  0.00    +0.000 A 
ATOM     18  C   UNL     1       2.827   4.506  17.911  0.00  0.00    +0.000 A 
ATOM     19  N   UNL     1       3.582   3.979  16.897  0.00  0.00    +0.000 NA
ATOM     20  C   UNL     1       4.635   4.733  16.522  0.00  0.00    +0.000 A 
ATOM     21  C   UNL     1       4.921   5.924  17.158  0.00  0.00    +0.000 A 
ATOM     22  N   UNL     1       4.152   6.434  18.165  0.00  0.00    +0.000 NA
BRANCH  20  23
ATOM     23  C   UNL     1       5.433   4.253  15.421  0.00  0.00    +0.000 C 
ATOM     24  N   UNL     1       6.063   3.903  14.515  0.00  0.00    +0.000 NA
ENDBRANCH  20  23
BRANCH  16  25
ATOM     25  C   UNL     1       0.952   5.622  19.910  0.00  0.00    +0.000 C 
BRANCH  25  27
ATOM     26  C   UNL     1       1.566   3.251  21.318  0.00  0.00    +0.000 C 
ATOM     27  C   UNL     1       1.282   4.346  20.669  0.00  0.00    +0.000 C 
ENDBRANCH  25  27
ENDBRANCH  16  25
ENDBRANCH   1  16
TORSDOF 5
ENDMDL
MODEL 4
REMARK VINA RESULT:      -6.7      2.457      4.622
REMARK  Name = 
REMARK  5 active torsions:
REMARK  status: ('A' for Active; 'I' for Inactive)
REMARK    1  A    between atoms: C_2  and  C_3
REMARK    2  A    between atoms: C_3  and  N_4
REMARK    3  A    between atoms: N_4  and  C_13
REMARK    4  A    between atoms: C_8  and  C_9
REMARK    5  A    between atoms: N_16  and  C_17
REMARK                            x       y       z     vdW  Elec       q    Type
REMARK                         _______ _______ _______ _____ _____    ______ ____
ROOT
ATOM      1  C   UNL     1       2.019   9.091  19.539  0.00  0.00    +0.000 C 
ATOM      2  C   UNL     1       2.310   9.067  18.037  0.00  0.00    +0.000 C 
ATOM      3  C   UNL     1       1.811   7.706  17.570  0.00  0.00    +0.000 C 
ATOM      4  N   UNL     1       1.894   6.839  18.742  0.00  0.00    +0.000 N 
ATOM      5  C   UNL     1       2.267   7.612  19.937  0.00  0.00    +0.000 C 
ENDROOT
BRANCH   4   6
ATOM      6  C   UNL     1       2.452   5.579  18.604  0.00  0.00    +0.000 A 
ATOM      7  N   UNL     1       3.319   5.296  17.598  0.00  0.00    +0.000 NA
ATOM      8  C   UNL     1       3.744   4.022  17.442  0.00  0.00    +0.000 A 
ATOM      9  N   UNL     1       3.391   2.933  18.146  0.00  0.00    +0.000 NA
ATOM     10  C   UNL     1       2.528   3.252  19.121  0.00  0.00    +0.000 A 
ATOM     11  N   UNL     1       1.940   2.354  19.972  0.00  0.00    +0.000 N 
ATOM     12  C   UNL     1       1.109   3.013  20.842  0.00  0.00    +0.000 A 
ATOM     13  C   UNL     1       1.157   4.354  20.531  0.00  0.00    +0.000 A 
ATOM     14  C   UNL     1       2.044   4.515  19.428  0.00  0.00    +0.000 A 
ATOM     15  H   UNL     1       2.091   1.356  19.925  0.00  0.00    +0.000 HD
ENDBRANCH   4   6
BRANCH   1  16
ATOM     16  N   UNL     1       0.652   9.609  19.814  0.00  0.00    +0.000 N 
ATOM     17  C   UNL     1       0.386  10.942  19.487  0.00  0.00    +0.000 A 
ATOM     18  C   UNL     1      -0.797  11.617  19.843  0.00  0.00    +0.000 A 
ATOM     19  N   UNL     1      -1.057  12.945  19.633  0.00  0.00    +0.000 NA
ATOM     20  C   UNL     1      -0.073  13.624  19.009  0.00  0.00    +0.000 A 
ATOM     21  C   UNL     1       1.081  12.988  18.596  0.00  0.00    +0.000 A 
ATOM     22  N   UNL     1       1.321  11.662  18.819  0.00  0.00    +0.000 NA
BRANCH  20  23
ATOM     23  C   UNL     1      -0.268  15.038  18.811  0.00  0.00    +0.000 C 
ATOM     24  N   UNL     1      -0.449  16.176  18.689  0.00  0.00    +0.000 NA
ENDBRANCH  20  23
BRANCH  16  25
ATOM     25  C   UNL     1      -0.290   8.801  20.599  0.00  0.00    +0.000 C 
BRANCH  25  27
ATOM     26  C   UNL     1      -0.073   9.481  23.331  0.00  0.00    +0.000 C 
ATOM     27  C   UNL     1      -0.173   9.166  22.069  0.00  0.00    +0.000 C 
ENDBRANCH  25  27
ENDBRANCH  16  25
ENDBRANCH   1  16
TORSDOF 5
ENDMDL
MODEL 5
REMARK VINA RESULT:      -6.7      1.556      7.792
REMARK  Name = 
REMARK  5 active torsions:
REMARK  status: ('A' for Active; 'I' for Inactive)
REMARK    1  A    between atoms: C_2  and  C_3
REMARK    2  A    between atoms: C_3  and  N_4
REMARK    3  A    between atoms: N_4  and  C_13
REMARK    4  A    between atoms: C_8  and  C_9
REMARK    5  A    between atoms: N_16  and  C_17
REMARK                            x       y       z     vdW  Elec       q    Type
REMARK                         _______ _______ _______ _____ _____    ______ ____
ROOT
ATOM      1  C   UNL     1       4.083   5.492  19.053  0.00  0.00    +0.000 C 
ATOM      2  C   UNL     1       2.951   5.204  20.042  0.00  0.00    +0.000 C 
ATOM      3  C   UNL     1       1.757   5.978  19.497  0.00  0.00    +0.000 C 
ATOM      4  N   UNL     1       2.328   7.087  18.737  0.00  0.00    +0.000 N 
ATOM      5  C   UNL     1       3.791   6.962  18.652  0.00  0.00    +0.000 C 
ENDROOT
BRANCH   4   6
ATOM      6  C   UNL     1       1.811   8.358  18.920  0.00  0.00    +0.000 A 
ATOM      7  N   UNL     1       1.852   9.287  17.930  0.00  0.00    +0.000 NA
ATOM      8  C   UNL     1       1.438  10.546  18.199  0.00  0.00    +0.000 A 
ATOM      9  N   UNL     1       1.004  11.049  19.367  0.00  0.00    +0.000 NA
ATOM     10  C   UNL     1       0.988  10.105  20.319  0.00  0.00    +0.000 A 
ATOM     11  N   UNL     1       0.650  10.320  21.629  0.00  0.00    +0.000 N 
ATOM     12  C   UNL     1       0.745   9.146  22.332  0.00  0.00    +0.000 A 
ATOM     13  C   UNL     1       1.165   8.167  21.456  0.00  0.00    +0.000 A 
ATOM     14  C   UNL     1       1.337   8.771  20.177  0.00  0.00    +0.000 A 
ATOM     15  H   UNL     1       0.400  11.224  22.002  0.00  0.00    +0.000 HD
ENDBRANCH   4   6
BRANCH   1  16
ATOM     16  N   UNL     1       4.083   4.510  17.936  0.00  0.00    +0.000 N 
ATOM     17  C   UNL     1       5.054   4.660  16.941  0.00  0.00    +0.000 A 
ATOM     18  C   UNL     1       5.073   3.919  15.744  0.00  0.00    +0.000 A 
ATOM     19  N   UNL     1       5.942   4.103  14.701  0.00  0.00    +0.000 NA
ATOM     20  C   UNL     1       6.856   5.076  14.889  0.00  0.00    +0.000 A 
ATOM     21  C   UNL     1       6.906   5.789  16.070  0.00  0.00    +0.000 A 
ATOM     22  N   UNL     1       6.026   5.592  17.097  0.00  0.00    +0.000 NA
BRANCH  20  23
ATOM     23  C   UNL     1       7.762   5.351  13.802  0.00  0.00    +0.000 C 
ATOM     24  N   UNL     1       8.483   5.614  12.934  0.00  0.00    +0.000 NA
ENDBRANCH  20  23
BRANCH  16  25
ATOM     25  C   UNL     1       2.966   3.568  17.792  0.00  0.00    +0.000 C 
BRANCH  25  27
ATOM     26  C   UNL     1       3.754   1.017  18.710  0.00  0.00    +0.000 C 
ATOM     27  C   UNL     1       3.389   2.195  18.286  0.00  0.00    +0.000 C 
ENDBRANCH  25  27
ENDBRANCH  16  25
ENDBRANCH   1  16
TORSDOF 5
ENDMDL
MODEL 6
REMARK VINA RESULT:      -6.6      2.233      4.088
REMARK  Name = 
REMARK  5 active torsions:
REMARK  status: ('A' for Active; 'I' for Inactive)
REMARK    1  A    between atoms: C_2  and  C_3
REMARK    2  A    between atoms: C_3  and  N_4
REMARK    3  A    between atoms: N_4  and  C_13
REMARK    4  A    between atoms: C_8  and  C_9
REMARK    5  A    between atoms: N_16  and  C_17
REMARK                            x       y       z     vdW  Elec       q    Type
REMARK                         _______ _______ _______ _____ _____    ______ ____
ROOT
ATOM      1  C   UNL     1       2.030   8.712  19.681  0.00  0.00    +0.000 C 
ATOM      2  C   UNL     1       2.262   8.520  18.180  0.00  0.00    +0.000 C 
ATOM      3  C   UNL     1       1.718   7.128  17.881  0.00  0.00    +0.000 C 
ATOM      4  N   UNL     1       1.830   6.391  19.137  0.00  0.00    +0.000 N 
ATOM      5  C   UNL     1       2.264   7.278  20.226  0.00  0.00    +0.000 C 
ENDROOT
BRANCH   4   6
ATOM      6  C   UNL     1       2.357   5.111  19.115  0.00  0.00    +0.000 A 
ATOM      7  N   UNL     1       1.588   4.025  19.385  0.00  0.00    +0.000 NA
ATOM      8  C   UNL     1       2.178   2.810  19.463  0.00  0.00    +0.000 A 
ATOM      9  N   UNL     1       3.482   2.507  19.341  0.00  0.00    +0.000 NA
ATOM     10  C   UNL     1       4.207   3.606  19.085  0.00  0.00    +0.000 A 
ATOM     11  N   UNL     1       5.571   3.633  18.966  0.00  0.00    +0.000 N 
ATOM     12  C   UNL     1       5.990   4.914  18.709  0.00  0.00    +0.000 A 
ATOM     13  C   UNL     1       4.872   5.720  18.679  0.00  0.00    +0.000 A 
ATOM     14  C   UNL     1       3.735   4.900  18.932  0.00  0.00    +0.000 A 
ATOM     15  H   UNL     1       6.160   2.821  19.082  0.00  0.00    +0.000 HD
ENDBRANCH   4   6
BRANCH   1  16
ATOM     16  N   UNL     1       0.686   9.288  19.948  0.00  0.00    +0.000 N 
ATOM     17  C   UNL     1       0.464  10.617  19.573  0.00  0.00    +0.000 A 
ATOM     18  C   UNL     1      -0.691  11.347  19.914  0.00  0.00    +0.000 A 
ATOM     19  N   UNL     1      -0.905  12.674  19.656  0.00  0.00    +0.000 NA
ATOM     20  C   UNL     1       0.096  13.293  18.998  0.00  0.00    +0.000 A 
ATOM     21  C   UNL     1       1.221  12.601  18.598  0.00  0.00    +0.000 A 
ATOM     22  N   UNL     1       1.416  11.277  18.869  0.00  0.00    +0.000 NA
BRANCH  20  23
ATOM     23  C   UNL     1      -0.052  14.706  18.748  0.00  0.00    +0.000 C 
ATOM     24  N   UNL     1      -0.183  15.846  18.588  0.00  0.00    +0.000 NA
ENDBRANCH  20  23
BRANCH  16  25
ATOM     25  C   UNL     1      -0.276   8.544  20.771  0.00  0.00    +0.000 C 
BRANCH  25  27
ATOM     26  C   UNL     1      -0.177   9.492  23.430  0.00  0.00    +0.000 C 
ATOM     27  C   UNL     1      -0.223   9.054  22.202  0.00  0.00    +0.000 C 
ENDBRANCH  25  27
ENDBRANCH  16  25
ENDBRANCH   1  16
TORSDOF 5
ENDMDL
MODEL 7
REMARK VINA RESULT:      -6.6      1.603      7.388
REMARK  Name = 
REMARK  5 active torsions:
REMARK  status: ('A' for Active; 'I' for Inactive)
REMARK    1  A    between atoms: C_2  and  C_3
REMARK    2  A    between atoms: C_3  and  N_4
REMARK    3  A    between atoms: N_4  and  C_13
REMARK    4  A    between atoms: C_8  and  C_9
REMARK    5  A    between atoms: N_16  and  C_17
REMARK                            x       y       z     vdW  Elec       q    Type
REMARK                         _______ _______ _______ _____ _____    ______ ____
ROOT
ATOM      1  C   UNL     1       4.435   4.708  19.592  0.00  0.00    +0.000 C 
ATOM      2  C   UNL     1       3.495   4.190  20.683  0.00  0.00    +0.000 C 
ATOM      3  C   UNL     1       2.168   4.886  20.409  0.00  0.00    +0.000 C 
ATOM      4  N   UNL     1       2.515   6.129  19.727  0.00  0.00    +0.000 N 
ATOM      5  C   UNL     1       3.954   6.174  19.425  0.00  0.00    +0.000 C 
ENDROOT
BRANCH   4   6
ATOM      6  C   UNL     1       1.918   7.308  20.139  0.00  0.00    +0.000 A 
ATOM      7  N   UNL     1       1.296   7.402  21.342  0.00  0.00    +0.000 NA
ATOM      8  C   UNL     1       0.630   8.540  21.645  0.00  0.00    +0.000 A 
ATOM      9  N   UNL     1       0.455   9.632  20.882  0.00  0.00    +0.000 NA
ATOM     10  C   UNL     1       1.075   9.495  19.701  0.00  0.00    +0.000 A 
ATOM     11  N   UNL     1       1.033  10.412  18.684  0.00  0.00    +0.000 N 
ATOM     12  C   UNL     1       1.768   9.958  17.619  0.00  0.00    +0.000 A 
ATOM     13  C   UNL     1       2.277   8.723  17.957  0.00  0.00    +0.000 A 
ATOM     14  C   UNL     1       1.828   8.413  19.274  0.00  0.00    +0.000 A 
ATOM     15  H   UNL     1       0.507  11.274  18.727  0.00  0.00    +0.000 HD
ENDBRANCH   4   6
BRANCH   1  16
ATOM     16  N   UNL     1       4.358   3.865  18.370  0.00  0.00    +0.000 N 
ATOM     17  C   UNL     1       5.222   4.172  17.314  0.00  0.00    +0.000 A 
ATOM     18  C   UNL     1       5.147   3.578  16.040  0.00  0.00    +0.000 A 
ATOM     19  N   UNL     1       5.903   3.920  14.951  0.00  0.00    +0.000 NA
ATOM     20  C   UNL     1       6.800   4.903  15.169  0.00  0.00    +0.000 A 
ATOM     21  C   UNL     1       6.942   5.475  16.417  0.00  0.00    +0.000 A 
ATOM     22  N   UNL     1       6.174   5.121  17.489  0.00  0.00    +0.000 NA
BRANCH  20  23
ATOM     23  C   UNL     1       7.586   5.343  14.042  0.00  0.00    +0.000 C 
ATOM     24  N   UNL     1       8.243   5.661  13.143  0.00  0.00    +0.000 NA
ENDBRANCH  20  23
BRANCH  16  25
ATOM     25  C   UNL     1       3.262   2.899  18.218  0.00  0.00    +0.000 C 
BRANCH  25  27
ATOM     26  C   UNL     1       1.012   4.186  17.098  0.00  0.00    +0.000 C 
ATOM     27  C   UNL     1       2.051   3.592  17.615  0.00  0.00    +0.000 C 
ENDBRANCH  25  27
ENDBRANCH  16  25
ENDBRANCH   1  16
TORSDOF 5
ENDMDL
MODEL 8
REMARK VINA RESULT:      -6.5      1.024      1.964
REMARK  Name = 
REMARK  5 active torsions:
REMARK  status: ('A' for Active; 'I' for Inactive)
REMARK    1  A    between atoms: C_2  and  C_3
REMARK    2  A    between atoms: C_3  and  N_4
REMARK    3  A    between atoms: N_4  and  C_13
REMARK    4  A    between atoms: C_8  and  C_9
REMARK    5  A    between atoms: N_16  and  C_17
REMARK                            x       y       z     vdW  Elec       q    Type
REMARK                         _______ _______ _______ _____ _____    ______ ____
ROOT
ATOM      1  C   UNL     1       2.345   7.488  18.527  0.00  0.00    +0.000 C 
ATOM      2  C   UNL     1       1.611   6.437  17.691  0.00  0.00    +0.000 C 
ATOM      3  C   UNL     1       2.514   5.210  17.736  0.00  0.00    +0.000 C 
ATOM      4  N   UNL     1       3.862   5.728  17.954  0.00  0.00    +0.000 N 
ATOM      5  C   UNL     1       3.830   7.178  18.198  0.00  0.00    +0.000 C 
ENDROOT
BRANCH   4   6
ATOM      6  C   UNL     1       4.899   5.240  17.179  0.00  0.00    +0.000 A 
ATOM      7  N   UNL     1       4.682   4.767  15.924  0.00  0.00    +0.000 NA
ATOM      8  C   UNL     1       5.710   4.196  15.255  0.00  0.00    +0.000 A 
ATOM      9  N   UNL     1       6.967   3.984  15.681  0.00  0.00    +0.000 NA
ATOM     10  C   UNL     1       7.137   4.455  16.925  0.00  0.00    +0.000 A 
ATOM     11  N   UNL     1       8.290   4.339  17.655  0.00  0.00    +0.000 N 
ATOM     12  C   UNL     1       8.122   4.922  18.885  0.00  0.00    +0.000 A 
ATOM     13  C   UNL     1       6.833   5.408  18.945  0.00  0.00    +0.000 A 
ATOM     14  C   UNL     1       6.194   5.102  17.709  0.00  0.00    +0.000 A 
ATOM     15  H   UNL     1       9.117   3.863  17.324  0.00  0.00    +0.000 HD
ENDBRANCH   4   6
BRANCH   1  16
ATOM     16  N   UNL     1       1.973   7.389  19.964  0.00  0.00    +0.000 N 
ATOM     17  C   UNL     1       1.271   8.460  20.527  0.00  0.00    +0.000 A 
ATOM     18  C   UNL     1       1.003   8.585  21.903  0.00  0.00    +0.000 A 
ATOM     19  N   UNL     1       0.411   9.661  22.509  0.00  0.00    +0.000 NA
ATOM     20  C   UNL     1       0.051  10.656  21.673  0.00  0.00    +0.000 A 
ATOM     21  C   UNL     1       0.248  10.550  20.311  0.00  0.00    +0.000 A 
ATOM     22  N   UNL     1       0.844   9.468  19.728  0.00  0.00    +0.000 NA
BRANCH  20  23
ATOM     23  C   UNL     1      -0.527  11.838  22.263  0.00  0.00    +0.000 C 
ATOM     24  N   UNL     1      -0.980  12.773  22.775  0.00  0.00    +0.000 NA
ENDBRANCH  20  23
BRANCH  16  25
ATOM     25  C   UNL     1       2.523   6.304  20.787  0.00  0.00    +0.000 C 
BRANCH  25  27
ATOM     26  C   UNL     1       0.848   4.037  20.610  0.00  0.00    +0.000 C 
ATOM     27  C   UNL     1       1.621   5.084  20.691  0.00  0.00    +0.000 C 
ENDBRANCH  25  27
ENDBRANCH  16  25
ENDBRANCH   1  16
TORSDOF 5
ENDMDL
MODEL 9
REMARK VINA RESULT:      -6.5      3.635      8.760
REMARK  Name = 
REMARK  5 active torsions:
REMARK  status: ('A' for Active; 'I' for Inactive)
REMARK    1  A    between atoms: C_2  and  C_3
REMARK    2  A    between atoms: C_3  and  N_4
REMARK    3  A    between atoms: N_4  and  C_13
REMARK    4  A    between atoms: C_8  and  C_9
REMARK    5  A    between atoms: N_16  and  C_17
REMARK                            x       y       z     vdW  Elec       q    Type
REMARK                         _______ _______ _______ _____ _____    ______ ____
ROOT
ATOM      1  C   UNL     1       0.750  10.255  18.897  0.00  0.00    +0.000 C 
ATOM      2  C   UNL     1       0.433  11.466  19.777  0.00  0.00    +0.000 C 
ATOM      3  C   UNL     1      -1.066  11.373  20.034  0.00  0.00    +0.000 C 
ATOM      4  N   UNL     1      -1.611  10.642  18.894  0.00  0.00    +0.000 N 
ATOM      5  C   UNL     1      -0.530  10.147  18.027  0.00  0.00    +0.000 C 
ENDROOT
BRANCH   4   6
ATOM      6  C   UNL     1      -2.749  11.125  18.272  0.00  0.00    +0.000 A 
ATOM      7  N   UNL     1      -3.686  11.829  18.959  0.00  0.00    +0.000 NA
ATOM      8  C   UNL     1      -4.832  12.177  18.331  0.00  0.00    +0.000 A 
ATOM      9  N   UNL     1      -5.216  11.887  17.077  0.00  0.00    +0.000 NA
ATOM     10  C   UNL     1      -4.270  11.185  16.436  0.00  0.00    +0.000 A 
ATOM     11  N   UNL     1      -4.388  10.692  15.164  0.00  0.00    +0.000 N 
ATOM     12  C   UNL     1      -3.244  10.019  14.818  0.00  0.00    +0.000 A 
ATOM     13  C   UNL     1      -2.386  10.073  15.895  0.00  0.00    +0.000 A 
ATOM     14  C   UNL     1      -3.036  10.799  16.934  0.00  0.00    +0.000 A 
ATOM     15  H   UNL     1      -5.218  10.796  14.597  0.00  0.00    +0.000 HD
ENDBRANCH   4   6
BRANCH   1  16
ATOM     16  N   UNL     1       1.067   9.059  19.722  0.00  0.00    +0.000 N 
ATOM     17  C   UNL     1       1.987   8.141  19.207  0.00  0.00    +0.000 A 
ATOM     18  C   UNL     1       2.256   6.887  19.789  0.00  0.00    +0.000 A 
ATOM     19  N   UNL     1       3.070   5.918  19.265  0.00  0.00    +0.000 NA
ATOM     20  C   UNL     1       3.662   6.245  18.099  0.00  0.00    +0.000 A 
ATOM     21  C   UNL     1       3.467   7.483  17.522  0.00  0.00    +0.000 A 
ATOM     22  N   UNL     1       2.647   8.434  18.060  0.00  0.00    +0.000 NA
BRANCH  20  23
ATOM     23  C   UNL     1       4.487   5.241  17.474  0.00  0.00    +0.000 C 
ATOM     24  N   UNL     1       5.166   4.465  16.944  0.00  0.00    +0.000 NA
ENDBRANCH  20  23
BRANCH  16  25
ATOM     25  C   UNL     1       0.270   8.767  20.920  0.00  0.00    +0.000 C 
BRANCH  25  27
ATOM     26  C   UNL     1       1.792   9.327  23.232  0.00  0.00    +0.000 C 
ATOM     27  C   UNL     1       1.090   9.068  22.164  0.00  0.00    +0.000 C 
ENDBRANCH  25  27
ENDBRANCH  16  25
ENDBRANCH   1  16
TORSDOF 5
ENDMDL
