MODEL 1
REMARK VINA RESULT:      -8.1      0.000      0.000
REMARK  Name = 
REMARK  9 active torsions:
REMARK  status: ('A' for Active; 'I' for Inactive)
REMARK    1  A    between atoms: C_1  and  C_2
REMARK    2  A    between atoms: C_2  and  C_4
REMARK    3  A    between atoms: C_5  and  O_6
REMARK    4  A    between atoms: C_7  and  C_8
REMARK    5  A    between atoms: C_9  and  O_10
REMARK    6  A    between atoms: C_19  and  C_20
REMARK    7  A    between atoms: C_19  and  N_21
REMARK    8  A    between atoms: N_21  and  C_22
REMARK    9  A    between atoms: C_31  and  C_32
REMARK                            x       y       z     vdW  Elec       q    Type
REMARK                         _______ _______ _______ _____ _____    ______ ____
ROOT
ATOM      1  C   UNL     1      -1.254  14.680  22.758  0.00  0.00    +0.000 A 
ATOM      2  C   UNL     1      -1.207  15.791  21.911  0.00  0.00    +0.000 A 
ATOM      3  C   UNL     1      -1.114  15.647  20.506  0.00  0.00    +0.000 A 
ATOM      4  C   UNL     1      -0.856  16.869  19.655  0.00  0.00    +0.000 C 
ATOM      5  C   UNL     1      -1.082  14.343  19.946  0.00  0.00    +0.000 A 
ATOM      6  C   UNL     1      -1.010  13.220  20.773  0.00  0.00    +0.000 A 
ATOM      7  C   UNL     1      -1.079  13.437  22.165  0.00  0.00    +0.000 A 
ATOM      8  O   UNL     1      -0.672  12.344  22.888  0.00  0.00    +0.000 OA
ATOM      9  C   UNL     1      -0.327  11.346  21.989  0.00  0.00    +0.000 C 
ATOM     10  C   UNL     1      -0.388  10.074  22.420  0.00  0.00    +0.000 C 
ATOM     11  C   UNL     1      -0.348   8.955  21.457  0.00  0.00    +0.000 C 
ATOM     12  O   UNL     1      -0.601   7.809  21.793  0.00  0.00    +0.000 OA
ATOM     13  C   UNL     1       0.036   9.415  20.101  0.00  0.00    +0.000 C 
ATOM     14  C   UNL     1       1.234   8.933  19.642  0.00  0.00    +0.000 C 
ATOM     15  C   UNL     1       1.933   9.441  18.398  0.00  0.00    +0.000 C 
ATOM     16  C   UNL     1      -0.721  10.681  19.703  0.00  0.00    +0.000 C 
ATOM     17  O   UNL     1      -1.635  10.653  18.889  0.00  0.00    +0.000 OA
ATOM     18  C   UNL     1      -0.283  11.887  20.534  0.00  0.00    +0.000 C 
ATOM     19  C   UNL     1       1.060  12.300  19.897  0.00  0.00    +0.000 C 
ENDROOT
BRANCH   1  21
ATOM     20  C   UNL     1      -2.590  14.595  24.973  0.00  0.00    +0.000 C 
ATOM     21  C   UNL     1      -1.305  14.863  24.231  0.00  0.00    +0.000 C 
ATOM     22  O   UNL     1      -0.317  15.337  24.793  0.00  0.00    +0.000 OA
ENDBRANCH   1  21
BRANCH   2  23
ATOM     23  O   UNL     1      -1.166  17.066  22.427  0.00  0.00    +0.000 OA
ATOM     24  H   UNL     1      -0.394  17.134  23.037  0.00  0.00    +0.000 HD
ENDBRANCH   2  23
BRANCH   5  25
ATOM     25  O   UNL     1      -0.942  14.153  18.602  0.00  0.00    +0.000 OA
ATOM     26  H   UNL     1      -0.309  14.796  18.242  0.00  0.00    +0.000 HD
ENDBRANCH   5  25
BRANCH  14  27
ATOM     27  N   UNL     1       1.991   7.965  20.324  0.00  0.00    +0.000 N 
ATOM     28  H   UNL     1       1.915   8.039  21.339  0.00  0.00    +0.000 HD
BRANCH  27  29
ATOM     29  C   UNL     1       2.099   6.594  19.958  0.00  0.00    +0.000 A 
ATOM     30  C   UNL     1       1.645   5.537  20.760  0.00  0.00    +0.000 A 
ATOM     31  C   UNL     1       1.689   4.213  20.314  0.00  0.00    +0.000 A 
ATOM     32  C   UNL     1       2.181   3.922  19.047  0.00  0.00    +0.000 A 
ATOM     33 CL   UNL     1       2.199   2.303  18.478  0.00  0.00    +0.000 Cl
ATOM     34  C   UNL     1       2.645   4.950  18.236  0.00  0.00    +0.000 A 
ATOM     35  C   UNL     1       2.599   6.276  18.686  0.00  0.00    +0.000 A 
ENDBRANCH  27  29
ENDBRANCH  14  27
TORSDOF 5
ENDMDL
MODEL 2
REMARK VINA RESULT:      -8.1      0.722      1.117
REMARK  Name = 
REMARK  9 active torsions:
REMARK  status: ('A' for Active; 'I' for Inactive)
REMARK    1  A    between atoms: C_1  and  C_2
REMARK    2  A    between atoms: C_2  and  C_4
REMARK    3  A    between atoms: C_5  and  O_6
REMARK    4  A    between atoms: C_7  and  C_8
REMARK    5  A    between atoms: C_9  and  O_10
REMARK    6  A    between atoms: C_19  and  C_20
REMARK    7  A    between atoms: C_19  and  N_21
REMARK    8  A    between atoms: N_21  and  C_22
REMARK    9  A    between atoms: C_31  and  C_32
REMARK                            x       y       z     vdW  Elec       q    Type
REMARK                         _______ _______ _______ _____ _____    ______ ____
ROOT
ATOM      1  C   UNL     1      -0.703  14.901  22.015  0.00  0.00    +0.000 A 
ATOM      2  C   UNL     1      -0.640  15.899  21.039  0.00  0.00    +0.000 A 
ATOM      3  C   UNL     1      -0.628  15.584  19.659  0.00  0.00    +0.000 A 
ATOM      4  C   UNL     1      -0.348  16.679  18.655  0.00  0.00    +0.000 C 
ATOM      5  C   UNL     1      -0.695  14.223  19.260  0.00  0.00    +0.000 A 
ATOM      6  C   UNL     1      -0.640  13.204  20.213  0.00  0.00    +0.000 A 
ATOM      7  C   UNL     1      -0.626  13.588  21.571  0.00  0.00    +0.000 A 
ATOM      8  O   UNL     1      -0.241  12.566  22.402  0.00  0.00    +0.000 OA
ATOM      9  C   UNL     1       0.003  11.450  21.616  0.00  0.00    +0.000 C 
ATOM     10  C   UNL     1      -0.104  10.244  22.200  0.00  0.00    +0.000 C 
ATOM     11  C   UNL     1      -0.173   9.018  21.379  0.00  0.00    +0.000 C 
ATOM     12  O   UNL     1      -0.470   7.938  21.863  0.00  0.00    +0.000 OA
ATOM     13  C   UNL     1       0.165   9.291  19.962  0.00  0.00    +0.000 C 
ATOM     14  C   UNL     1       1.309   8.687  19.511  0.00  0.00    +0.000 C 
ATOM     15  C   UNL     1       1.970   9.002  18.185  0.00  0.00    +0.000 C 
ATOM     16  C   UNL     1      -0.543  10.543  19.448  0.00  0.00    +0.000 C 
ATOM     17  O   UNL     1      -1.498  10.473  18.684  0.00  0.00    +0.000 OA
ATOM     18  C   UNL     1       0.001  11.811  20.105  0.00  0.00    +0.000 C 
ATOM     19  C   UNL     1       1.329  12.065  19.364  0.00  0.00    +0.000 C 
ENDROOT
BRANCH   1  21
ATOM     20  C   UNL     1      -1.855  14.948  24.333  0.00  0.00    +0.000 C 
ATOM     21  C   UNL     1      -0.669  15.260  23.456  0.00  0.00    +0.000 C 
ATOM     22  O   UNL     1       0.295  15.906  23.872  0.00  0.00    +0.000 OA
ENDBRANCH   1  21
BRANCH   2  23
ATOM     23  O   UNL     1      -0.504  17.221  21.394  0.00  0.00    +0.000 OA
ATOM     24  H   UNL     1      -1.400  17.633  21.425  0.00  0.00    +0.000 HD
ENDBRANCH   2  23
BRANCH   5  25
ATOM     25  O   UNL     1      -0.634  13.868  17.944  0.00  0.00    +0.000 OA
ATOM     26  H   UNL     1      -0.674  14.661  17.386  0.00  0.00    +0.000 HD
ENDBRANCH   5  25
BRANCH  14  27
ATOM     27  N   UNL     1       2.047   7.764  20.271  0.00  0.00    +0.000 N 
ATOM     28  H   UNL     1       1.854   7.823  21.272  0.00  0.00    +0.000 HD
BRANCH  27  29
ATOM     29  C   UNL     1       2.285   6.406  19.917  0.00  0.00    +0.000 A 
ATOM     30  C   UNL     1       3.211   6.008  18.942  0.00  0.00    +0.000 A 
ATOM     31  C   UNL     1       3.475   4.657  18.698  0.00  0.00    +0.000 A 
ATOM     32  C   UNL     1       2.824   3.676  19.435  0.00  0.00    +0.000 A 
ATOM     33 CL   UNL     1       3.176   2.017  19.169  0.00  0.00    +0.000 Cl
ATOM     34  C   UNL     1       1.897   4.044  20.403  0.00  0.00    +0.000 A 
ATOM     35  C   UNL     1       1.634   5.399  20.645  0.00  0.00    +0.000 A 
ENDBRANCH  27  29
ENDBRANCH  14  27
TORSDOF 5
ENDMDL
MODEL 3
REMARK VINA RESULT:      -7.9      2.213      3.781
REMARK  Name = 
REMARK  9 active torsions:
REMARK  status: ('A' for Active; 'I' for Inactive)
REMARK    1  A    between atoms: C_1  and  C_2
REMARK    2  A    between atoms: C_2  and  C_4
REMARK    3  A    between atoms: C_5  and  O_6
REMARK    4  A    between atoms: C_7  and  C_8
REMARK    5  A    between atoms: C_9  and  O_10
REMARK    6  A    between atoms: C_19  and  C_20
REMARK    7  A    between atoms: C_19  and  N_21
REMARK    8  A    between atoms: N_21  and  C_22
REMARK    9  A    between atoms: C_31  and  C_32
REMARK                            x       y       z     vdW  Elec       q    Type
REMARK                         _______ _______ _______ _____ _____    ______ ____
ROOT
ATOM      1  C   UNL     1      -3.569  13.681  23.734  0.00  0.00    +0.000 A 
ATOM      2  C   UNL     1      -2.992  14.532  24.680  0.00  0.00    +0.000 A 
ATOM      3  C   UNL     1      -1.860  15.323  24.370  0.00  0.00    +0.000 A 
ATOM      4  C   UNL     1      -1.150  16.063  25.480  0.00  0.00    +0.000 C 
ATOM      5  C   UNL     1      -1.310  15.259  23.062  0.00  0.00    +0.000 A 
ATOM      6  C   UNL     1      -1.793  14.333  22.136  0.00  0.00    +0.000 A 
ATOM      7  C   UNL     1      -2.906  13.555  22.521  0.00  0.00    +0.000 A 
ATOM      8  O   UNL     1      -3.096  12.469  21.704  0.00  0.00    +0.000 OA
ATOM      9  C   UNL     1      -2.112  12.496  20.728  0.00  0.00    +0.000 C 
ATOM     10  C   UNL     1      -2.371  11.872  19.566  0.00  0.00    +0.000 C 
ATOM     11  C   UNL     1      -1.527  12.117  18.379  0.00  0.00    +0.000 C 
ATOM     12  O   UNL     1      -1.852  11.727  17.269  0.00  0.00    +0.000 OA
ATOM     13  C   UNL     1      -0.292  12.858  18.731  0.00  0.00    +0.000 C 
ATOM     14  C   UNL     1       0.874  12.162  18.549  0.00  0.00    +0.000 C 
ATOM     15  C   UNL     1       2.225  12.625  19.053  0.00  0.00    +0.000 C 
ATOM     16  C   UNL     1      -0.590  14.034  19.659  0.00  0.00    +0.000 C 
ATOM     17  O   UNL     1      -0.570  15.191  19.256  0.00  0.00    +0.000 OA
ATOM     18  C   UNL     1      -1.030  13.565  21.046  0.00  0.00    +0.000 C 
ATOM     19  C   UNL     1       0.291  13.157  21.728  0.00  0.00    +0.000 C 
ENDROOT
BRANCH   1  21
ATOM     20  C   UNL     1      -6.093  13.141  23.546  0.00  0.00    +0.000 C 
ATOM     21  C   UNL     1      -4.728  12.828  24.103  0.00  0.00    +0.000 C 
ATOM     22  O   UNL     1      -4.557  11.948  24.948  0.00  0.00    +0.000 OA
ENDBRANCH   1  21
BRANCH   2  23
ATOM     23  O   UNL     1      -3.458  14.565  25.974  0.00  0.00    +0.000 OA
ATOM     24  H   UNL     1      -2.696  14.719  26.580  0.00  0.00    +0.000 HD
ENDBRANCH   2  23
BRANCH   5  25
ATOM     25  O   UNL     1      -0.189  15.964  22.731  0.00  0.00    +0.000 OA
ATOM     26  H   UNL     1      -0.275  16.883  23.033  0.00  0.00    +0.000 HD
ENDBRANCH   5  25
BRANCH  14  27
ATOM     27  N   UNL     1       0.933  10.895  17.944  0.00  0.00    +0.000 N 
ATOM     28  H   UNL     1       1.286  10.925  16.987  0.00  0.00    +0.000 HD
BRANCH  27  29
ATOM     29  C   UNL     1       1.377   9.700  18.575  0.00  0.00    +0.000 A 
ATOM     30  C   UNL     1       1.055   9.350  19.894  0.00  0.00    +0.000 A 
ATOM     31  C   UNL     1       1.438   8.120  20.436  0.00  0.00    +0.000 A 
ATOM     32  C   UNL     1       2.144   7.208  19.661  0.00  0.00    +0.000 A 
ATOM     33 CL   UNL     1       2.580   5.678  20.307  0.00  0.00    +0.000 Cl
ATOM     34  C   UNL     1       2.482   7.533  18.352  0.00  0.00    +0.000 A 
ATOM     35  C   UNL     1       2.097   8.766  17.813  0.00  0.00    +0.000 A 
ENDBRANCH  27  29
ENDBRANCH  14  27
TORSDOF 5
ENDMDL
MODEL 4
REMARK VINA RESULT:      -7.3      2.458      3.684
REMARK  Name = 
REMARK  9 active torsions:
REMARK  status: ('A' for Active; 'I' for Inactive)
REMARK    1  A    between atoms: C_1  and  C_2
REMARK    2  A    between atoms: C_2  and  C_4
REMARK    3  A    between atoms: C_5  and  O_6
REMARK    4  A    between atoms: C_7  and  C_8
REMARK    5  A    between atoms: C_9  and  O_10
REMARK    6  A    between atoms: C_19  and  C_20
REMARK    7  A    between atoms: C_19  and  N_21
REMARK    8  A    between atoms: N_21  and  C_22
REMARK    9  A    between atoms: C_31  and  C_32
REMARK                            x       y       z     vdW  Elec       q    Type
REMARK                         _______ _______ _______ _____ _____    ______ ____
ROOT
ATOM      1  C   UNL     1      -4.292  14.079  21.777  0.00  0.00    +0.000 A 
ATOM      2  C   UNL     1      -4.270  14.655  23.051  0.00  0.00    +0.000 A 
ATOM      3  C   UNL     1      -3.095  14.660  23.839  0.00  0.00    +0.000 A 
ATOM      4  C   UNL     1      -3.177  15.103  25.282  0.00  0.00    +0.000 C 
ATOM      5  C   UNL     1      -1.909  14.079  23.316  0.00  0.00    +0.000 A 
ATOM      6  C   UNL     1      -1.934  13.396  22.099  0.00  0.00    +0.000 A 
ATOM      7  C   UNL     1      -3.146  13.405  21.377  0.00  0.00    +0.000 A 
ATOM      8  O   UNL     1      -3.176  12.454  20.388  0.00  0.00    +0.000 OA
ATOM      9  C   UNL     1      -1.964  11.781  20.411  0.00  0.00    +0.000 C 
ATOM     10  C   UNL     1      -1.562  11.188  19.274  0.00  0.00    +0.000 C 
ATOM     11  C   UNL     1      -0.166  10.732  19.121  0.00  0.00    +0.000 C 
ATOM     12  O   UNL     1       0.279  10.377  18.040  0.00  0.00    +0.000 OA
ATOM     13  C   UNL     1       0.563  10.762  20.411  0.00  0.00    +0.000 C 
ATOM     14  C   UNL     1       0.953   9.537  20.886  0.00  0.00    +0.000 C 
ATOM     15  C   UNL     1       1.499   9.302  22.279  0.00  0.00    +0.000 C 
ATOM     16  C   UNL     1       0.310  12.065  21.167  0.00  0.00    +0.000 C 
ATOM     17  O   UNL     1       1.162  12.941  21.240  0.00  0.00    +0.000 OA
ATOM     18  C   UNL     1      -1.132  12.158  21.667  0.00  0.00    +0.000 C 
ATOM     19  C   UNL     1      -1.146  11.248  22.912  0.00  0.00    +0.000 C 
ENDROOT
BRANCH   1  21
ATOM     20  C   UNL     1      -5.817  15.114  19.960  0.00  0.00    +0.000 C 
ATOM     21  C   UNL     1      -5.553  14.048  20.992  0.00  0.00    +0.000 C 
ATOM     22  O   UNL     1      -6.402  13.204  21.287  0.00  0.00    +0.000 OA
ENDBRANCH   1  21
BRANCH   2  23
ATOM     23  O   UNL     1      -5.419  15.162  23.612  0.00  0.00    +0.000 OA
ATOM     24  H   UNL     1      -5.879  14.438  24.097  0.00  0.00    +0.000 HD
ENDBRANCH   2  23
BRANCH   5  25
ATOM     25  O   UNL     1      -0.766  14.015  24.059  0.00  0.00    +0.000 OA
ATOM     26  H   UNL     1      -0.837  13.300  24.713  0.00  0.00    +0.000 HD
ENDBRANCH   5  25
BRANCH  14  27
ATOM     27  N   UNL     1       0.810   8.344  20.158  0.00  0.00    +0.000 N 
ATOM     28  H   UNL     1       0.037   8.371  19.492  0.00  0.00    +0.000 HD
BRANCH  27  29
ATOM     29  C   UNL     1       1.877   7.578  19.611  0.00  0.00    +0.000 A 
ATOM     30  C   UNL     1       2.312   6.357  20.145  0.00  0.00    +0.000 A 
ATOM     31  C   UNL     1       3.302   5.598  19.515  0.00  0.00    +0.000 A 
ATOM     32  C   UNL     1       3.870   6.043  18.328  0.00  0.00    +0.000 A 
ATOM     33 CL   UNL     1       5.056   5.093  17.527  0.00  0.00    +0.000 Cl
ATOM     34  C   UNL     1       3.462   7.253  17.781  0.00  0.00    +0.000 A 
ATOM     35  C   UNL     1       2.469   8.011  18.415  0.00  0.00    +0.000 A 
ENDBRANCH  27  29
ENDBRANCH  14  27
TORSDOF 5
ENDMDL
MODEL 5
REMARK VINA RESULT:      -7.0      2.424      3.715
REMARK  Name = 
REMARK  9 active torsions:
REMARK  status: ('A' for Active; 'I' for Inactive)
REMARK    1  A    between atoms: C_1  and  C_2
REMARK    2  A    between atoms: C_2  and  C_4
REMARK    3  A    between atoms: C_5  and  O_6
REMARK    4  A    between atoms: C_7  and  C_8
REMARK    5  A    between atoms: C_9  and  O_10
REMARK    6  A    between atoms: C_19  and  C_20
REMARK    7  A    between atoms: C_19  and  N_21
REMARK    8  A    between atoms: N_21  and  C_22
REMARK    9  A    between atoms: C_31  and  C_32
REMARK                            x       y       z     vdW  Elec       q    Type
REMARK                         _______ _______ _______ _____ _____    ______ ____
ROOT
ATOM      1  C   UNL     1      -4.141  13.934  21.450  0.00  0.00    +0.000 A 
ATOM      2  C   UNL     1      -4.150  14.535  22.713  0.00  0.00    +0.000 A 
ATOM      3  C   UNL     1      -3.000  14.537  23.538  0.00  0.00    +0.000 A 
ATOM      4  C   UNL     1      -3.119  15.010  24.968  0.00  0.00    +0.000 C 
ATOM      5  C   UNL     1      -1.808  13.927  23.064  0.00  0.00    +0.000 A 
ATOM      6  C   UNL     1      -1.806  13.220  21.860  0.00  0.00    +0.000 A 
ATOM      7  C   UNL     1      -2.995  13.235  21.100  0.00  0.00    +0.000 A 
ATOM      8  O   UNL     1      -3.010  12.265  20.129  0.00  0.00    +0.000 OA
ATOM      9  C   UNL     1      -1.811  11.573  20.203  0.00  0.00    +0.000 C 
ATOM     10  C   UNL     1      -1.383  10.951  19.091  0.00  0.00    +0.000 C 
ATOM     11  C   UNL     1       0.010  10.469  18.991  0.00  0.00    +0.000 C 
ATOM     12  O   UNL     1       0.482  10.086  17.932  0.00  0.00    +0.000 OA
ATOM     13  C   UNL     1       0.698  10.513  20.303  0.00  0.00    +0.000 C 
ATOM     14  C   UNL     1       1.052   9.292  20.814  0.00  0.00    +0.000 C 
ATOM     15  C   UNL     1       1.550   9.076  22.228  0.00  0.00    +0.000 C 
ATOM     16  C   UNL     1       0.443  11.835  21.025  0.00  0.00    +0.000 C 
ATOM     17  O   UNL     1       1.307  12.699  21.108  0.00  0.00    +0.000 OA
ATOM     18  C   UNL     1      -1.012  11.961  21.478  0.00  0.00    +0.000 C 
ATOM     19  C   UNL     1      -1.080  11.076  22.738  0.00  0.00    +0.000 C 
ENDROOT
BRANCH   1  21
ATOM     20  C   UNL     1      -6.196  12.645  20.548  0.00  0.00    +0.000 C 
ATOM     21  C   UNL     1      -5.377  13.908  20.626  0.00  0.00    +0.000 C 
ATOM     22  O   UNL     1      -5.639  14.896  19.939  0.00  0.00    +0.000 OA
ENDBRANCH   1  21
BRANCH   2  23
ATOM     23  O   UNL     1      -5.307  15.072  23.228  0.00  0.00    +0.000 OA
ATOM     24  H   UNL     1      -5.066  15.754  23.898  0.00  0.00    +0.000 HD
ENDBRANCH   2  23
BRANCH   5  25
ATOM     25  O   UNL     1      -0.690  13.859  23.843  0.00  0.00    +0.000 OA
ATOM     26  H   UNL     1      -0.697  14.579  24.495  0.00  0.00    +0.000 HD
ENDBRANCH   5  25
BRANCH  14  27
ATOM     27  N   UNL     1       0.912   8.087  20.105  0.00  0.00    +0.000 N 
ATOM     28  H   UNL     1       0.085   8.068  19.507  0.00  0.00    +0.000 HD
BRANCH  27  29
ATOM     29  C   UNL     1       1.969   7.374  19.472  0.00  0.00    +0.000 A 
ATOM     30  C   UNL     1       2.604   7.806  18.299  0.00  0.00    +0.000 A 
ATOM     31  C   UNL     1       3.700   7.119  17.768  0.00  0.00    +0.000 A 
ATOM     32  C   UNL     1       4.189   5.989  18.411  0.00  0.00    +0.000 A 
ATOM     33 CL   UNL     1       5.561   5.166  17.788  0.00  0.00    +0.000 Cl
ATOM     34  C   UNL     1       3.573   5.536  19.571  0.00  0.00    +0.000 A 
ATOM     35  C   UNL     1       2.475   6.226  20.100  0.00  0.00    +0.000 A 
ENDBRANCH  27  29
ENDBRANCH  14  27
TORSDOF 5
ENDMDL
MODEL 6
REMARK VINA RESULT:      -7.0      6.938      9.403
REMARK  Name = 
REMARK  9 active torsions:
REMARK  status: ('A' for Active; 'I' for Inactive)
REMARK    1  A    between atoms: C_1  and  C_2
REMARK    2  A    between atoms: C_2  and  C_4
REMARK    3  A    between atoms: C_5  and  O_6
REMARK    4  A    between atoms: C_7  and  C_8
REMARK    5  A    between atoms: C_9  and  O_10
REMARK    6  A    between atoms: C_19  and  C_20
REMARK    7  A    between atoms: C_19  and  N_21
REMARK    8  A    between atoms: N_21  and  C_22
REMARK    9  A    between atoms: C_31  and  C_32
REMARK                            x       y       z     vdW  Elec       q    Type
REMARK                         _______ _______ _______ _____ _____    ______ ____
ROOT
ATOM      1  C   UNL     1       8.923  13.297  20.697  0.00  0.00    +0.000 A 
ATOM      2  C   UNL     1       9.878  13.203  19.679  0.00  0.00    +0.000 A 
ATOM      3  C   UNL     1       9.837  14.051  18.547  0.00  0.00    +0.000 A 
ATOM      4  C   UNL     1      10.760  13.772  17.383  0.00  0.00    +0.000 C 
ATOM      5  C   UNL     1       8.811  15.028  18.452  0.00  0.00    +0.000 A 
ATOM      6  C   UNL     1       7.780  15.065  19.393  0.00  0.00    +0.000 A 
ATOM      7  C   UNL     1       7.867  14.173  20.483  0.00  0.00    +0.000 A 
ATOM      8  O   UNL     1       6.678  14.047  21.155  0.00  0.00    +0.000 OA
ATOM      9  C   UNL     1       5.752  14.873  20.537  0.00  0.00    +0.000 C 
ATOM     10  C   UNL     1       4.714  15.304  21.273  0.00  0.00    +0.000 C 
ATOM     11  C   UNL     1       3.871  16.420  20.799  0.00  0.00    +0.000 C 
ATOM     12  O   UNL     1       3.055  16.962  21.527  0.00  0.00    +0.000 OA
ATOM     13  C   UNL     1       4.149  16.749  19.381  0.00  0.00    +0.000 C 
ATOM     14  C   UNL     1       3.110  16.520  18.517  0.00  0.00    +0.000 C 
ATOM     15  C   UNL     1       3.236  16.562  17.008  0.00  0.00    +0.000 C 
ATOM     16  C   UNL     1       5.650  16.813  19.105  0.00  0.00    +0.000 C 
ATOM     17  O   UNL     1       6.229  17.880  18.944  0.00  0.00    +0.000 OA
ATOM     18  C   UNL     1       6.301  15.432  19.195  0.00  0.00    +0.000 C 
ATOM     19  C   UNL     1       5.922  14.762  17.859  0.00  0.00    +0.000 C 
ENDROOT
BRANCH   1  21
ATOM     20  C   UNL     1       8.963  12.909  23.255  0.00  0.00    +0.000 C 
ATOM     21  C   UNL     1       8.965  12.362  21.850  0.00  0.00    +0.000 C 
ATOM     22  O   UNL     1       9.111  11.160  21.621  0.00  0.00    +0.000 OA
ENDBRANCH   1  21
BRANCH   2  23
ATOM     23  O   UNL     1      10.842  12.222  19.709  0.00  0.00    +0.000 OA
ATOM     24  H   UNL     1      10.661  11.626  20.473  0.00  0.00    +0.000 HD
ENDBRANCH   2  23
BRANCH   5  25
ATOM     25  O   UNL     1       8.700  15.834  17.356  0.00  0.00    +0.000 OA
ATOM     26  H   UNL     1       9.210  15.460  16.619  0.00  0.00    +0.000 HD
ENDBRANCH   5  25
BRANCH  14  27
ATOM     27  N   UNL     1       1.825  16.137  18.937  0.00  0.00    +0.000 N 
ATOM     28  H   UNL     1       1.100  16.802  18.665  0.00  0.00    +0.000 HD
BRANCH  27  29
ATOM     29  C   UNL     1       1.298  14.817  18.881  0.00  0.00    +0.000 A 
ATOM     30  C   UNL     1       2.075  13.662  19.050  0.00  0.00    +0.000 A 
ATOM     31  C   UNL     1       1.494  12.391  19.080  0.00  0.00    +0.000 A 
ATOM     32  C   UNL     1       0.117  12.252  18.952  0.00  0.00    +0.000 A 
ATOM     33 CL   UNL     1      -0.607  10.698  19.032  0.00  0.00    +0.000 Cl
ATOM     34  C   UNL     1      -0.675  13.381  18.777  0.00  0.00    +0.000 A 
ATOM     35  C   UNL     1      -0.089  14.653  18.747  0.00  0.00    +0.000 A 
ENDBRANCH  27  29
ENDBRANCH  14  27
TORSDOF 5
ENDMDL
MODEL 7
REMARK VINA RESULT:      -6.9      2.610      4.116
REMARK  Name = 
REMARK  9 active torsions:
REMARK  status: ('A' for Active; 'I' for Inactive)
REMARK    1  A    between atoms: C_1  and  C_2
REMARK    2  A    between atoms: C_2  and  C_4
REMARK    3  A    between atoms: C_5  and  O_6
REMARK    4  A    between atoms: C_7  and  C_8
REMARK    5  A    between atoms: C_9  and  O_10
REMARK    6  A    between atoms: C_19  and  C_20
REMARK    7  A    between atoms: C_19  and  N_21
REMARK    8  A    between atoms: N_21  and  C_22
REMARK    9  A    between atoms: C_31  and  C_32
REMARK                            x       y       z     vdW  Elec       q    Type
REMARK                         _______ _______ _______ _____ _____    ______ ____
ROOT
ATOM      1  C   UNL     1      -3.994  12.649  20.412  0.00  0.00    +0.000 A 
ATOM      2  C   UNL     1      -4.299  13.020  21.725  0.00  0.00    +0.000 A 
ATOM      3  C   UNL     1      -3.331  12.954  22.755  0.00  0.00    +0.000 A 
ATOM      4  C   UNL     1      -3.763  13.164  24.188  0.00  0.00    +0.000 C 
ATOM      5  C   UNL     1      -2.017  12.514  22.443  0.00  0.00    +0.000 A 
ATOM      6  C   UNL     1      -1.719  12.028  21.168  0.00  0.00    +0.000 A 
ATOM      7  C   UNL     1      -2.739  12.096  20.195  0.00  0.00    +0.000 A 
ATOM      8  O   UNL     1      -2.475  11.310  19.102  0.00  0.00    +0.000 OA
ATOM      9  C   UNL     1      -1.250  10.696  19.307  0.00  0.00    +0.000 C 
ATOM     10  C   UNL     1      -0.561  10.304  18.221  0.00  0.00    +0.000 C 
ATOM     11  C   UNL     1       0.866   9.939  18.330  0.00  0.00    +0.000 C 
ATOM     12  O   UNL     1       1.564   9.776  17.342  0.00  0.00    +0.000 OA
ATOM     13  C   UNL     1       1.286   9.800  19.745  0.00  0.00    +0.000 C 
ATOM     14  C   UNL     1       1.656   8.535  20.119  0.00  0.00    +0.000 C 
ATOM     15  C   UNL     1       1.897   8.110  21.552  0.00  0.00    +0.000 C 
ATOM     16  C   UNL     1       0.772  10.957  20.599  0.00  0.00    +0.000 C 
ATOM     17  O   UNL     1       1.516  11.848  20.988  0.00  0.00    +0.000 OA
ATOM     18  C   UNL     1      -0.748  10.908  20.762  0.00  0.00    +0.000 C 
ATOM     19  C   UNL     1      -0.965   9.816  21.828  0.00  0.00    +0.000 C 
ENDROOT
BRANCH   1  21
ATOM     20  C   UNL     1      -5.323  11.451  18.541  0.00  0.00    +0.000 C 
ATOM     21  C   UNL     1      -5.043  12.685  19.362  0.00  0.00    +0.000 C 
ATOM     22  O   UNL     1      -5.585  13.764  19.117  0.00  0.00    +0.000 OA
ENDBRANCH   1  21
BRANCH   2  23
ATOM     23  O   UNL     1      -5.579  13.383  22.073  0.00  0.00    +0.000 OA
ATOM     24  H   UNL     1      -6.196  12.665  21.800  0.00  0.00    +0.000 HD
ENDBRANCH   2  23
BRANCH   5  25
ATOM     25  O   UNL     1      -1.064  12.386  23.411  0.00  0.00    +0.000 OA
ATOM     26  H   UNL     1      -0.475  11.644  23.198  0.00  0.00    +0.000 HD
ENDBRANCH   5  25
BRANCH  14  27
ATOM     27  N   UNL     1       1.771   7.464  19.216  0.00  0.00    +0.000 N 
ATOM     28  H   UNL     1       1.195   7.580  18.381  0.00  0.00    +0.000 HD
BRANCH  27  29
ATOM     29  C   UNL     1       2.983   6.807  18.865  0.00  0.00    +0.000 A 
ATOM     30  C   UNL     1       3.506   5.712  19.567  0.00  0.00    +0.000 A 
ATOM     31  C   UNL     1       4.651   5.042  19.126  0.00  0.00    +0.000 A 
ATOM     32  C   UNL     1       5.291   5.452  17.963  0.00  0.00    +0.000 A 
ATOM     33 CL   UNL     1       6.673   4.607  17.393  0.00  0.00    +0.000 Cl
ATOM     34  C   UNL     1       4.797   6.539  17.252  0.00  0.00    +0.000 A 
ATOM     35  C   UNL     1       3.650   7.207  17.697  0.00  0.00    +0.000 A 
ENDBRANCH  27  29
ENDBRANCH  14  27
TORSDOF 5
ENDMDL
MODEL 8
REMARK VINA RESULT:      -6.8      2.421      3.949
REMARK  Name = 
REMARK  9 active torsions:
REMARK  status: ('A' for Active; 'I' for Inactive)
REMARK    1  A    between atoms: C_1  and  C_2
REMARK    2  A    between atoms: C_2  and  C_4
REMARK    3  A    between atoms: C_5  and  O_6
REMARK    4  A    between atoms: C_7  and  C_8
REMARK    5  A    between atoms: C_9  and  O_10
REMARK    6  A    between atoms: C_19  and  C_20
REMARK    7  A    between atoms: C_19  and  N_21
REMARK    8  A    between atoms: N_21  and  C_22
REMARK    9  A    between atoms: C_31  and  C_32
REMARK                            x       y       z     vdW  Elec       q    Type
REMARK                         _______ _______ _______ _____ _____    ______ ____
ROOT
ATOM      1  C   UNL     1      -4.019  12.631  20.332  0.00  0.00    +0.000 A 
ATOM      2  C   UNL     1      -4.364  12.997  21.636  0.00  0.00    +0.000 A 
ATOM      3  C   UNL     1      -3.424  12.942  22.692  0.00  0.00    +0.000 A 
ATOM      4  C   UNL     1      -3.898  13.144  24.113  0.00  0.00    +0.000 C 
ATOM      5  C   UNL     1      -2.097  12.519  22.415  0.00  0.00    +0.000 A 
ATOM      6  C   UNL     1      -1.758  12.037  21.149  0.00  0.00    +0.000 A 
ATOM      7  C   UNL     1      -2.751  12.095  20.149  0.00  0.00    +0.000 A 
ATOM      8  O   UNL     1      -2.449  11.313  19.062  0.00  0.00    +0.000 OA
ATOM      9  C   UNL     1      -1.222  10.713  19.301  0.00  0.00    +0.000 C 
ATOM     10  C   UNL     1      -0.499  10.332  18.234  0.00  0.00    +0.000 C 
ATOM     11  C   UNL     1       0.929   9.984  18.382  0.00  0.00    +0.000 C 
ATOM     12  O   UNL     1       1.656   9.831  17.413  0.00  0.00    +0.000 OA
ATOM     13  C   UNL     1       1.313   9.849  19.807  0.00  0.00    +0.000 C 
ATOM     14  C   UNL     1       1.687   8.588  20.190  0.00  0.00    +0.000 C 
ATOM     15  C   UNL     1       1.894   8.164  21.629  0.00  0.00    +0.000 C 
ATOM     16  C   UNL     1       0.760  10.998  20.648  0.00  0.00    +0.000 C 
ATOM     17  O   UNL     1       1.483  11.898  21.058  0.00  0.00    +0.000 OA
ATOM     18  C   UNL     1      -0.762  10.931  20.769  0.00  0.00    +0.000 C 
ATOM     19  C   UNL     1      -0.995   9.834  21.828  0.00  0.00    +0.000 C 
ENDROOT
BRANCH   1  21
ATOM     20  C   UNL     1      -5.166  11.481  18.316  0.00  0.00    +0.000 C 
ATOM     21  C   UNL     1      -5.039  12.656  19.253  0.00  0.00    +0.000 C 
ATOM     22  O   UNL     1      -5.686  13.692  19.087  0.00  0.00    +0.000 OA
ENDBRANCH   1  21
BRANCH   2  23
ATOM     23  O   UNL     1      -5.658  13.344  21.949  0.00  0.00    +0.000 OA
ATOM     24  H   UNL     1      -5.921  12.868  22.771  0.00  0.00    +0.000 HD
ENDBRANCH   2  23
BRANCH   5  25
ATOM     25  O   UNL     1      -1.170  12.401  23.410  0.00  0.00    +0.000 OA
ATOM     26  H   UNL     1      -0.547  11.686  23.198  0.00  0.00    +0.000 HD
ENDBRANCH   5  25
BRANCH  14  27
ATOM     27  N   UNL     1       1.840   7.519  19.290  0.00  0.00    +0.000 N 
ATOM     28  H   UNL     1       2.135   7.819  18.360  0.00  0.00    +0.000 HD
BRANCH  27  29
ATOM     29  C   UNL     1       2.438   6.264  19.593  0.00  0.00    +0.000 A 
ATOM     30  C   UNL     1       1.781   5.237  20.285  0.00  0.00    +0.000 A 
ATOM     31  C   UNL     1       2.379   3.988  20.475  0.00  0.00    +0.000 A 
ATOM     32  C   UNL     1       3.647   3.739  19.964  0.00  0.00    +0.000 A 
ATOM     33 CL   UNL     1       4.370   2.194  20.157  0.00  0.00    +0.000 Cl
ATOM     34  C   UNL     1       4.323   4.743  19.280  0.00  0.00    +0.000 A 
ATOM     35  C   UNL     1       3.721   5.993  19.092  0.00  0.00    +0.000 A 
ENDBRANCH  27  29
ENDBRANCH  14  27
TORSDOF 5
ENDMDL
MODEL 9
REMARK VINA RESULT:      -6.8      4.115      7.743
REMARK  Name = 
REMARK  9 active torsions:
REMARK  status: ('A' for Active; 'I' for Inactive)
REMARK    1  A    between atoms: C_1  and  C_2
REMARK    2  A    between atoms: C_2  and  C_4
REMARK    3  A    between atoms: C_5  and  O_6
REMARK    4  A    between atoms: C_7  and  C_8
REMARK    5  A    between atoms: C_9  and  O_10
REMARK    6  A    between atoms: C_19  and  C_20
REMARK    7  A    between atoms: C_19  and  N_21
REMARK    8  A    between atoms: N_21  and  C_22
REMARK    9  A    between atoms: C_31  and  C_32
REMARK                            x       y       z     vdW  Elec       q    Type
REMARK                         _______ _______ _______ _____ _____    ______ ____
ROOT
ATOM      1  C   UNL     1       0.836  11.404  19.714  0.00  0.00    +0.000 A 
ATOM      2  C   UNL     1       1.696  12.183  18.934  0.00  0.00    +0.000 A 
ATOM      3  C   UNL     1       1.888  13.560  19.198  0.00  0.00    +0.000 A 
ATOM      4  C   UNL     1       2.658  14.401  18.206  0.00  0.00    +0.000 C 
ATOM      5  C   UNL     1       1.203  14.157  20.289  0.00  0.00    +0.000 A 
ATOM      6  C   UNL     1       0.253  13.431  21.009  0.00  0.00    +0.000 A 
ATOM      7  C   UNL     1       0.090  12.070  20.676  0.00  0.00    +0.000 A 
ATOM      8  O   UNL     1      -1.067  11.538  21.188  0.00  0.00    +0.000 OA
ATOM      9  C   UNL     1      -1.713  12.536  21.900  0.00  0.00    +0.000 C 
ATOM     10  C   UNL     1      -2.556  12.157  22.875  0.00  0.00    +0.000 C 
ATOM     11  C   UNL     1      -3.033  13.134  23.875  0.00  0.00    +0.000 C 
ATOM     12  O   UNL     1      -3.631  12.785  24.880  0.00  0.00    +0.000 OA
ATOM     13  C   UNL     1      -2.699  14.524  23.482  0.00  0.00    +0.000 C 
ATOM     14  C   UNL     1      -3.777  15.326  23.214  0.00  0.00    +0.000 C 
ATOM     15  C   UNL     1      -3.677  16.697  22.578  0.00  0.00    +0.000 C 
ATOM     16  C   UNL     1      -1.256  14.637  22.995  0.00  0.00    +0.000 C 
ATOM     17  O   UNL     1      -0.385  15.156  23.684  0.00  0.00    +0.000 OA
ATOM     18  C   UNL     1      -1.050  13.921  21.660  0.00  0.00    +0.000 C 
ATOM     19  C   UNL     1      -1.643  14.899  20.627  0.00  0.00    +0.000 C 
ENDROOT
BRANCH   1  21
ATOM     20  C   UNL     1       1.022   8.907  20.372  0.00  0.00    +0.000 C 
ATOM     21  C   UNL     1       0.619   9.972  19.383  0.00  0.00    +0.000 C 
ATOM     22  O   UNL     1       0.212   9.690  18.255  0.00  0.00    +0.000 OA
ENDBRANCH   1  21
BRANCH   2  23
ATOM     23  O   UNL     1       2.319  11.651  17.829  0.00  0.00    +0.000 OA
ATOM     24  H   UNL     1       2.822  12.368  17.375  0.00  0.00    +0.000 HD
ENDBRANCH   2  23
BRANCH   5  25
ATOM     25  O   UNL     1       1.318  15.491  20.552  0.00  0.00    +0.000 OA
ATOM     26  H   UNL     1       2.207  15.800  20.314  0.00  0.00    +0.000 HD
ENDBRANCH   5  25
BRANCH  14  27
ATOM     27  N   UNL     1      -5.109  14.929  23.424  0.00  0.00    +0.000 N 
ATOM     28  H   UNL     1      -5.732  15.711  23.630  0.00  0.00    +0.000 HD
BRANCH  27  29
ATOM     29  C   UNL     1      -5.810  13.956  22.660  0.00  0.00    +0.000 A 
ATOM     30  C   UNL     1      -5.507  13.648  21.326  0.00  0.00    +0.000 A 
ATOM     31  C   UNL     1      -6.164  12.618  20.648  0.00  0.00    +0.000 A 
ATOM     32  C   UNL     1      -7.133  11.864  21.299  0.00  0.00    +0.000 A 
ATOM     33 CL   UNL     1      -7.913  10.569  20.486  0.00  0.00    +0.000 Cl
ATOM     34  C   UNL     1      -7.457  12.152  22.620  0.00  0.00    +0.000 A 
ATOM     35  C   UNL     1      -6.797  13.186  23.295  0.00  0.00    +0.000 A 
ENDBRANCH  27  29
ENDBRANCH  14  27
TORSDOF 5
ENDMDL
