MODEL 1
REMARK VINA RESULT:      -7.6      0.000      0.000
REMARK  Name = 
REMARK  5 active torsions:
REMARK  status: ('A' for Active; 'I' for Inactive)
REMARK    1  A    between atoms: C_6  and  C_7
REMARK    2  A    between atoms: C_8  and  C_9
REMARK    3  A    between atoms: C_13  and  O_14
REMARK    4  A    between atoms: O_14  and  C_15
REMARK    5  A    between atoms: C_15  and  C_16
REMARK                            x       y       z     vdW  Elec       q    Type
REMARK                         _______ _______ _______ _____ _____    ______ ____
ROOT
ATOM      1  C   UNL     1       7.835   7.255  18.118  0.00  0.00    +0.000 A 
ATOM      2  C   UNL     1       7.869   6.143  18.946  0.00  0.00    +0.000 A 
ATOM      3  N   UNL     1       7.302   4.953  18.631  0.00  0.00    +0.000 NA
ATOM      4  C   UNL     1       6.674   4.883  17.429  0.00  0.00    +0.000 A 
ATOM      5  C   UNL     1       6.579   5.936  16.524  0.00  0.00    +0.000 A 
ATOM      6  C   UNL     1       7.181   7.143  16.890  0.00  0.00    +0.000 A 
ENDROOT
BRANCH   1   8
ATOM      7  C   UNL     1       8.992   9.523  18.790  0.00  0.00    +0.000 C 
ATOM      8  C   UNL     1       8.459   8.487  18.499  0.00  0.00    +0.000 C 
BRANCH   7  14
ATOM      9 CL   UNL     1      11.706  13.592  17.169  0.00  0.00    +0.000 Cl
ATOM     10  C   UNL     1      10.954  12.671  18.415  0.00  0.00    +0.000 A 
ATOM     11  C   UNL     1      11.066  13.087  19.741  0.00  0.00    +0.000 A 
ATOM     12  C   UNL     1      10.463  12.341  20.753  0.00  0.00    +0.000 A 
ATOM     13  C   UNL     1       9.766  11.171  20.436  0.00  0.00    +0.000 A 
ATOM     14  C   UNL     1       9.665  10.750  19.108  0.00  0.00    +0.000 A 
ATOM     15  C   UNL     1      10.251  11.510  18.092  0.00  0.00    +0.000 A 
ENDBRANCH   7  14
ENDBRANCH   1   8
BRANCH   5  16
ATOM     16  O   UNL     1       5.896   5.693  15.360  0.00  0.00    +0.000 OA
BRANCH  16  17
ATOM     17  C   UNL     1       5.494   4.333  15.149  0.00  0.00    +0.000 C 
BRANCH  17  18
ATOM     18  C   UNL     1       6.302   3.725  14.006  0.00  0.00    +0.000 C 
ATOM     19  C   UNL     1       7.256   4.616  13.169  0.00  0.00    +0.000 C 
ATOM     20  C   UNL     1       6.744   3.775  11.982  0.00  0.00    +0.000 C 
ATOM     21  N   UNL     1       5.489   3.581  12.751  0.00  0.00    +0.000 NA
ATOM     22  H   UNL     1       5.040   2.677  12.619  0.00  0.00    +0.000 HD
ENDBRANCH  17  18
ENDBRANCH  16  17
ENDBRANCH   5  16
TORSDOF 5
ENDMDL
MODEL 2
REMARK VINA RESULT:      -7.6      2.426      3.503
REMARK  Name = 
REMARK  5 active torsions:
REMARK  status: ('A' for Active; 'I' for Inactive)
REMARK    1  A    between atoms: C_6  and  C_7
REMARK    2  A    between atoms: C_8  and  C_9
REMARK    3  A    between atoms: C_13  and  O_14
REMARK    4  A    between atoms: O_14  and  C_15
REMARK    5  A    between atoms: C_15  and  C_16
REMARK                            x       y       z     vdW  Elec       q    Type
REMARK                         _______ _______ _______ _____ _____    ______ ____
ROOT
ATOM      1  C   UNL     1       7.517   7.135  17.749  0.00  0.00    +0.000 A 
ATOM      2  C   UNL     1       7.293   6.920  16.397  0.00  0.00    +0.000 A 
ATOM      3  N   UNL     1       6.663   5.827  15.904  0.00  0.00    +0.000 NA
ATOM      4  C   UNL     1       6.240   4.912  16.814  0.00  0.00    +0.000 A 
ATOM      5  C   UNL     1       6.414   5.027  18.190  0.00  0.00    +0.000 A 
ATOM      6  C   UNL     1       7.066   6.172  18.653  0.00  0.00    +0.000 A 
ENDROOT
BRANCH   1   8
ATOM      7  C   UNL     1       8.737   9.317  18.579  0.00  0.00    +0.000 C 
ATOM      8  C   UNL     1       8.183   8.315  18.215  0.00  0.00    +0.000 C 
BRANCH   7  14
ATOM      9 CL   UNL     1      11.387  13.512  17.194  0.00  0.00    +0.000 Cl
ATOM     10  C   UNL     1      10.678  12.493  18.388  0.00  0.00    +0.000 A 
ATOM     11  C   UNL     1      10.833  12.806  19.738  0.00  0.00    +0.000 A 
ATOM     12  C   UNL     1      10.264  11.980  20.708  0.00  0.00    +0.000 A 
ATOM     13  C   UNL     1       9.560  10.835  20.322  0.00  0.00    +0.000 A 
ATOM     14  C   UNL     1       9.417  10.519  18.970  0.00  0.00    +0.000 A 
ATOM     15  C   UNL     1       9.968  11.358  17.998  0.00  0.00    +0.000 A 
ENDBRANCH   7  14
ENDBRANCH   1   8
BRANCH   5  16
ATOM     16  O   UNL     1       5.933   4.001  18.962  0.00  0.00    +0.000 OA
BRANCH  16  17
ATOM     17  C   UNL     1       4.572   4.132  19.394  0.00  0.00    +0.000 C 
BRANCH  17  18
ATOM     18  C   UNL     1       3.697   3.118  18.665  0.00  0.00    +0.000 C 
ATOM     19  C   UNL     1       2.501   3.600  17.802  0.00  0.00    +0.000 C 
ATOM     20  C   UNL     1       1.787   2.365  18.386  0.00  0.00    +0.000 C 
ATOM     21  N   UNL     1       2.671   2.499  19.571  0.00  0.00    +0.000 NA
ATOM     22  H   UNL     1       2.942   1.620  20.007  0.00  0.00    +0.000 HD
ENDBRANCH  17  18
ENDBRANCH  16  17
ENDBRANCH   5  16
TORSDOF 5
ENDMDL
MODEL 3
REMARK VINA RESULT:      -7.5      2.627      3.959
REMARK  Name = 
REMARK  5 active torsions:
REMARK  status: ('A' for Active; 'I' for Inactive)
REMARK    1  A    between atoms: C_6  and  C_7
REMARK    2  A    between atoms: C_8  and  C_9
REMARK    3  A    between atoms: C_13  and  O_14
REMARK    4  A    between atoms: O_14  and  C_15
REMARK    5  A    between atoms: C_15  and  C_16
REMARK                            x       y       z     vdW  Elec       q    Type
REMARK                         _______ _______ _______ _____ _____    ______ ____
ROOT
ATOM      1  C   UNL     1       7.435   7.025  17.762  0.00  0.00    +0.000 A 
ATOM      2  C   UNL     1       7.232   6.738  16.420  0.00  0.00    +0.000 A 
ATOM      3  N   UNL     1       6.603   5.623  15.976  0.00  0.00    +0.000 NA
ATOM      4  C   UNL     1       6.160   4.761  16.927  0.00  0.00    +0.000 A 
ATOM      5  C   UNL     1       6.313   4.949  18.298  0.00  0.00    +0.000 A 
ATOM      6  C   UNL     1       6.964   6.114  18.709  0.00  0.00    +0.000 A 
ENDROOT
BRANCH   1   8
ATOM      7  C   UNL     1       8.680   9.226  18.499  0.00  0.00    +0.000 C 
ATOM      8  C   UNL     1       8.101   8.224  18.175  0.00  0.00    +0.000 C 
BRANCH   7  14
ATOM      9 CL   UNL     1      11.572  13.244  17.072  0.00  0.00    +0.000 Cl
ATOM     10  C   UNL     1      10.786  12.294  18.274  0.00  0.00    +0.000 A 
ATOM     11  C   UNL     1      10.927  12.632  19.619  0.00  0.00    +0.000 A 
ATOM     12  C   UNL     1      10.296  11.862  20.596  0.00  0.00    +0.000 A 
ATOM     13  C   UNL     1       9.542  10.744  20.223  0.00  0.00    +0.000 A 
ATOM     14  C   UNL     1       9.412  10.401  18.875  0.00  0.00    +0.000 A 
ATOM     15  C   UNL     1      10.027  11.186  17.896  0.00  0.00    +0.000 A 
ENDBRANCH   7  14
ENDBRANCH   1   8
BRANCH   5  16
ATOM     16  O   UNL     1       5.814   3.969  19.117  0.00  0.00    +0.000 OA
BRANCH  16  17
ATOM     17  C   UNL     1       4.484   3.525  18.816  0.00  0.00    +0.000 C 
BRANCH  17  18
ATOM     18  C   UNL     1       3.504   4.099  19.836  0.00  0.00    +0.000 C 
ATOM     19  C   UNL     1       2.391   3.201  20.436  0.00  0.00    +0.000 C 
ATOM     20  C   UNL     1       1.521   4.468  20.312  0.00  0.00    +0.000 C 
ATOM     21  N   UNL     1       2.395   4.873  19.181  0.00  0.00    +0.000 NA
ATOM     22  H   UNL     1       2.549   5.875  19.096  0.00  0.00    +0.000 HD
ENDBRANCH  17  18
ENDBRANCH  16  17
ENDBRANCH   5  16
TORSDOF 5
ENDMDL
MODEL 4
REMARK VINA RESULT:      -7.5      2.370      3.164
REMARK  Name = 
REMARK  5 active torsions:
REMARK  status: ('A' for Active; 'I' for Inactive)
REMARK    1  A    between atoms: C_6  and  C_7
REMARK    2  A    between atoms: C_8  and  C_9
REMARK    3  A    between atoms: C_13  and  O_14
REMARK    4  A    between atoms: O_14  and  C_15
REMARK    5  A    between atoms: C_15  and  C_16
REMARK                            x       y       z     vdW  Elec       q    Type
REMARK                         _______ _______ _______ _____ _____    ______ ____
ROOT
ATOM      1  C   UNL     1       7.457   6.918  18.158  0.00  0.00    +0.000 A 
ATOM      2  C   UNL     1       8.026   5.696  18.486  0.00  0.00    +0.000 A 
ATOM      3  N   UNL     1       7.407   4.505  18.302  0.00  0.00    +0.000 NA
ATOM      4  C   UNL     1       6.161   4.549  17.764  0.00  0.00    +0.000 A 
ATOM      5  C   UNL     1       5.497   5.718  17.401  0.00  0.00    +0.000 A 
ATOM      6  C   UNL     1       6.176   6.922  17.606  0.00  0.00    +0.000 A 
ENDROOT
BRANCH   1   8
ATOM      7  C   UNL     1       8.742   9.180  18.572  0.00  0.00    +0.000 C 
ATOM      8  C   UNL     1       8.162   8.147  18.368  0.00  0.00    +0.000 C 
BRANCH   7  14
ATOM      9 CL   UNL     1      11.220  13.320  16.765  0.00  0.00    +0.000 Cl
ATOM     10  C   UNL     1      10.579  12.383  18.060  0.00  0.00    +0.000 A 
ATOM     11  C   UNL     1      10.767  12.808  19.375  0.00  0.00    +0.000 A 
ATOM     12  C   UNL     1      10.254  12.049  20.427  0.00  0.00    +0.000 A 
ATOM     13  C   UNL     1       9.573  10.857  20.159  0.00  0.00    +0.000 A 
ATOM     14  C   UNL     1       9.397  10.428  18.842  0.00  0.00    +0.000 A 
ATOM     15  C   UNL     1       9.892  11.200  17.787  0.00  0.00    +0.000 A 
ENDBRANCH   7  14
ENDBRANCH   1   8
BRANCH   5  16
ATOM     16  O   UNL     1       4.236   5.577  16.882  0.00  0.00    +0.000 OA
BRANCH  16  17
ATOM     17  C   UNL     1       3.157   5.833  17.792  0.00  0.00    +0.000 C 
BRANCH  17  18
ATOM     18  C   UNL     1       2.203   4.643  17.810  0.00  0.00    +0.000 C 
ATOM     19  C   UNL     1       2.069   3.773  19.088  0.00  0.00    +0.000 C 
ATOM     20  C   UNL     1       1.989   2.601  18.090  0.00  0.00    +0.000 C 
ATOM     21  N   UNL     1       2.800   3.427  17.160  0.00  0.00    +0.000 NA
ATOM     22  H   UNL     1       2.581   3.304  16.174  0.00  0.00    +0.000 HD
ENDBRANCH  17  18
ENDBRANCH  16  17
ENDBRANCH   5  16
TORSDOF 5
ENDMDL
MODEL 5
REMARK VINA RESULT:      -7.5      2.820      3.629
REMARK  Name = 
REMARK  5 active torsions:
REMARK  status: ('A' for Active; 'I' for Inactive)
REMARK    1  A    between atoms: C_6  and  C_7
REMARK    2  A    between atoms: C_8  and  C_9
REMARK    3  A    between atoms: C_13  and  O_14
REMARK    4  A    between atoms: O_14  and  C_15
REMARK    5  A    between atoms: C_15  and  C_16
REMARK                            x       y       z     vdW  Elec       q    Type
REMARK                         _______ _______ _______ _____ _____    ______ ____
ROOT
ATOM      1  C   UNL     1       7.077   6.886  17.303  0.00  0.00    +0.000 A 
ATOM      2  C   UNL     1       7.696   5.993  16.441  0.00  0.00    +0.000 A 
ATOM      3  N   UNL     1       7.086   4.896  15.929  0.00  0.00    +0.000 NA
ATOM      4  C   UNL     1       5.796   4.693  16.304  0.00  0.00    +0.000 A 
ATOM      5  C   UNL     1       5.082   5.524  17.163  0.00  0.00    +0.000 A 
ATOM      6  C   UNL     1       5.751   6.644  17.663  0.00  0.00    +0.000 A 
ENDROOT
BRANCH   1   8
ATOM      7  C   UNL     1       8.355   9.006  18.202  0.00  0.00    +0.000 C 
ATOM      8  C   UNL     1       7.769   8.034  17.808  0.00  0.00    +0.000 C 
BRANCH   7  14
ATOM      9 CL   UNL     1      11.139  13.163  16.970  0.00  0.00    +0.000 Cl
ATOM     10  C   UNL     1      10.410  12.116  18.127  0.00  0.00    +0.000 A 
ATOM     11  C   UNL     1      10.597  12.358  19.487  0.00  0.00    +0.000 A 
ATOM     12  C   UNL     1      10.012  11.509  20.427  0.00  0.00    +0.000 A 
ATOM     13  C   UNL     1       9.261  10.409  20.001  0.00  0.00    +0.000 A 
ATOM     14  C   UNL     1       9.085  10.163  18.637  0.00  0.00    +0.000 A 
ATOM     15  C   UNL     1       9.653  11.026  17.696  0.00  0.00    +0.000 A 
ENDBRANCH   7  14
ENDBRANCH   1   8
BRANCH   5  16
ATOM     16  O   UNL     1       3.790   5.160  17.443  0.00  0.00    +0.000 OA
BRANCH  16  17
ATOM     17  C   UNL     1       3.472   3.779  17.226  0.00  0.00    +0.000 C 
BRANCH  17  18
ATOM     18  C   UNL     1       2.026   3.511  17.631  0.00  0.00    +0.000 C 
ATOM     19  C   UNL     1       1.559   3.797  19.083  0.00  0.00    +0.000 C 
ATOM     20  C   UNL     1       0.747   2.498  18.909  0.00  0.00    +0.000 C 
ATOM     21  N   UNL     1       1.784   2.061  17.940  0.00  0.00    +0.000 NA
ATOM     22  H   UNL     1       1.438   1.498  17.166  0.00  0.00    +0.000 HD
ENDBRANCH  17  18
ENDBRANCH  16  17
ENDBRANCH   5  16
TORSDOF 5
ENDMDL
MODEL 6
REMARK VINA RESULT:      -7.5      2.727      3.336
REMARK  Name = 
REMARK  5 active torsions:
REMARK  status: ('A' for Active; 'I' for Inactive)
REMARK    1  A    between atoms: C_6  and  C_7
REMARK    2  A    between atoms: C_8  and  C_9
REMARK    3  A    between atoms: C_13  and  O_14
REMARK    4  A    between atoms: O_14  and  C_15
REMARK    5  A    between atoms: C_15  and  C_16
REMARK                            x       y       z     vdW  Elec       q    Type
REMARK                         _______ _______ _______ _____ _____    ______ ____
ROOT
ATOM      1  C   UNL     1       7.639   7.417  18.089  0.00  0.00    +0.000 A 
ATOM      2  C   UNL     1       8.216   6.396  18.829  0.00  0.00    +0.000 A 
ATOM      3  N   UNL     1       7.731   5.131  18.872  0.00  0.00    +0.000 NA
ATOM      4  C   UNL     1       6.616   4.888  18.137  0.00  0.00    +0.000 A 
ATOM      5  C   UNL     1       5.957   5.837  17.361  0.00  0.00    +0.000 A 
ATOM      6  C   UNL     1       6.495   7.126  17.344  0.00  0.00    +0.000 A 
ENDROOT
BRANCH   1   8
ATOM      7  C   UNL     1       8.683   9.835  18.034  0.00  0.00    +0.000 C 
ATOM      8  C   UNL     1       8.201   8.735  18.074  0.00  0.00    +0.000 C 
BRANCH   7  14
ATOM      9 CL   UNL     1       8.134  14.955  17.894  0.00  0.00    +0.000 Cl
ATOM     10  C   UNL     1       9.107  13.535  17.878  0.00  0.00    +0.000 A 
ATOM     11  C   UNL     1      10.488  13.649  17.723  0.00  0.00    +0.000 A 
ATOM     12  C   UNL     1      11.280  12.501  17.704  0.00  0.00    +0.000 A 
ATOM     13  C   UNL     1      10.683  11.241  17.821  0.00  0.00    +0.000 A 
ATOM     14  C   UNL     1       9.298  11.129  17.964  0.00  0.00    +0.000 A 
ATOM     15  C   UNL     1       8.508  12.281  18.005  0.00  0.00    +0.000 A 
ENDBRANCH   7  14
ENDBRANCH   1   8
BRANCH   5  16
ATOM     16  O   UNL     1       4.836   5.419  16.691  0.00  0.00    +0.000 OA
BRANCH  16  17
ATOM     17  C   UNL     1       3.648   5.296  17.483  0.00  0.00    +0.000 C 
BRANCH  17  18
ATOM     18  C   UNL     1       3.027   3.918  17.275  0.00  0.00    +0.000 C 
ATOM     19  C   UNL     1       1.685   3.557  17.965  0.00  0.00    +0.000 C 
ATOM     20  C   UNL     1       2.342   2.177  18.166  0.00  0.00    +0.000 C 
ATOM     21  N   UNL     1       3.652   2.876  18.159  0.00  0.00    +0.000 NA
ATOM     22  H   UNL     1       4.418   2.349  17.745  0.00  0.00    +0.000 HD
ENDBRANCH  17  18
ENDBRANCH  16  17
ENDBRANCH   5  16
TORSDOF 5
ENDMDL
MODEL 7
REMARK VINA RESULT:      -7.4      2.415      3.493
REMARK  Name = 
REMARK  5 active torsions:
REMARK  status: ('A' for Active; 'I' for Inactive)
REMARK    1  A    between atoms: C_6  and  C_7
REMARK    2  A    between atoms: C_8  and  C_9
REMARK    3  A    between atoms: C_13  and  O_14
REMARK    4  A    between atoms: O_14  and  C_15
REMARK    5  A    between atoms: C_15  and  C_16
REMARK                            x       y       z     vdW  Elec       q    Type
REMARK                         _______ _______ _______ _____ _____    ______ ____
ROOT
ATOM      1  C   UNL     1       7.552   6.926  18.202  0.00  0.00    +0.000 A 
ATOM      2  C   UNL     1       8.078   5.710  18.610  0.00  0.00    +0.000 A 
ATOM      3  N   UNL     1       7.465   4.519  18.405  0.00  0.00    +0.000 NA
ATOM      4  C   UNL     1       6.270   4.558  17.761  0.00  0.00    +0.000 A 
ATOM      5  C   UNL     1       5.652   5.721  17.311  0.00  0.00    +0.000 A 
ATOM      6  C   UNL     1       6.323   6.925  17.542  0.00  0.00    +0.000 A 
ENDROOT
BRANCH   1   8
ATOM      7  C   UNL     1       8.807   9.198  18.652  0.00  0.00    +0.000 C 
ATOM      8  C   UNL     1       8.248   8.156  18.439  0.00  0.00    +0.000 C 
BRANCH   7  14
ATOM      9 CL   UNL     1      11.161  13.374  16.765  0.00  0.00    +0.000 Cl
ATOM     10  C   UNL     1      10.558  12.439  18.079  0.00  0.00    +0.000 A 
ATOM     11  C   UNL     1      10.748  12.886  19.386  0.00  0.00    +0.000 A 
ATOM     12  C   UNL     1      10.265  12.128  20.453  0.00  0.00    +0.000 A 
ATOM     13  C   UNL     1       9.612  10.916  20.208  0.00  0.00    +0.000 A 
ATOM     14  C   UNL     1       9.434  10.465  18.898  0.00  0.00    +0.000 A 
ATOM     15  C   UNL     1       9.898  11.235  17.829  0.00  0.00    +0.000 A 
ENDBRANCH   7  14
ENDBRANCH   1   8
BRANCH   5  16
ATOM     16  O   UNL     1       4.439   5.577  16.689  0.00  0.00    +0.000 OA
BRANCH  16  17
ATOM     17  C   UNL     1       3.583   4.558  17.224  0.00  0.00    +0.000 C 
BRANCH  17  18
ATOM     18  C   UNL     1       2.617   5.171  18.234  0.00  0.00    +0.000 C 
ATOM     19  C   UNL     1       3.112   5.548  19.654  0.00  0.00    +0.000 C 
ATOM     20  C   UNL     1       1.738   5.012  20.103  0.00  0.00    +0.000 C 
ATOM     21  N   UNL     1       1.769   4.131  18.909  0.00  0.00    +0.000 NA
ATOM     22  H   UNL     1       0.862   3.956  18.480  0.00  0.00    +0.000 HD
ENDBRANCH  17  18
ENDBRANCH  16  17
ENDBRANCH   5  16
TORSDOF 5
ENDMDL
MODEL 8
REMARK VINA RESULT:      -7.4      8.626     10.580
REMARK  Name = 
REMARK  5 active torsions:
REMARK  status: ('A' for Active; 'I' for Inactive)
REMARK    1  A    between atoms: C_6  and  C_7
REMARK    2  A    between atoms: C_8  and  C_9
REMARK    3  A    between atoms: C_13  and  O_14
REMARK    4  A    between atoms: O_14  and  C_15
REMARK    5  A    between atoms: C_15  and  C_16
REMARK                            x       y       z     vdW  Elec       q    Type
REMARK                         _______ _______ _______ _____ _____    ______ ____
ROOT
ATOM      1  C   UNL     1       0.429   9.044  21.479  0.00  0.00    +0.000 A 
ATOM      2  C   UNL     1       0.270   9.396  22.811  0.00  0.00    +0.000 A 
ATOM      3  N   UNL     1      -0.307  10.552  23.220  0.00  0.00    +0.000 NA
ATOM      4  C   UNL     1      -0.742  11.388  22.242  0.00  0.00    +0.000 A 
ATOM      5  C   UNL     1      -0.632  11.134  20.878  0.00  0.00    +0.000 A 
ATOM      6  C   UNL     1      -0.034   9.929  20.504  0.00  0.00    +0.000 A 
ENDROOT
BRANCH   1   8
ATOM      7  C   UNL     1       1.525   6.751  20.789  0.00  0.00    +0.000 C 
ATOM      8  C   UNL     1       1.040   7.804  21.104  0.00  0.00    +0.000 C 
BRANCH   7  14
ATOM      9 CL   UNL     1       5.370   4.043  18.684  0.00  0.00    +0.000 Cl
ATOM     10  C   UNL     1       3.832   4.145  19.453  0.00  0.00    +0.000 A 
ATOM     11  C   UNL     1       3.092   2.983  19.667  0.00  0.00    +0.000 A 
ATOM     12  C   UNL     1       1.843   3.063  20.284  0.00  0.00    +0.000 A 
ATOM     13  C   UNL     1       1.333   4.307  20.667  0.00  0.00    +0.000 A 
ATOM     14  C   UNL     1       2.072   5.470  20.441  0.00  0.00    +0.000 A 
ATOM     15  C   UNL     1       3.332   5.388  19.842  0.00  0.00    +0.000 A 
ENDBRANCH   7  14
ENDBRANCH   1   8
BRANCH   5  16
ATOM     16  O   UNL     1      -1.117  12.096  20.029  0.00  0.00    +0.000 OA
BRANCH  16  17
ATOM     17  C   UNL     1      -0.805  11.914  18.642  0.00  0.00    +0.000 C 
BRANCH  17  18
ATOM     18  C   UNL     1      -2.025  11.374  17.903  0.00  0.00    +0.000 C 
ATOM     19  C   UNL     1      -2.026   9.920  17.361  0.00  0.00    +0.000 C 
ATOM     20  C   UNL     1      -2.759  10.539  16.154  0.00  0.00    +0.000 C 
ATOM     21  N   UNL     1      -2.055  11.809  16.465  0.00  0.00    +0.000 NA
ATOM     22  H   UNL     1      -2.589  12.654  16.272  0.00  0.00    +0.000 HD
ENDBRANCH  17  18
ENDBRANCH  16  17
ENDBRANCH   5  16
TORSDOF 5
ENDMDL
MODEL 9
REMARK VINA RESULT:      -7.4      2.422      3.356
REMARK  Name = 
REMARK  5 active torsions:
REMARK  status: ('A' for Active; 'I' for Inactive)
REMARK    1  A    between atoms: C_6  and  C_7
REMARK    2  A    between atoms: C_8  and  C_9
REMARK    3  A    between atoms: C_13  and  O_14
REMARK    4  A    between atoms: O_14  and  C_15
REMARK    5  A    between atoms: C_15  and  C_16
REMARK                            x       y       z     vdW  Elec       q    Type
REMARK                         _______ _______ _______ _____ _____    ______ ____
ROOT
ATOM      1  C   UNL     1       7.706   7.160  18.163  0.00  0.00    +0.000 A 
ATOM      2  C   UNL     1       8.159   6.039  18.841  0.00  0.00    +0.000 A 
ATOM      3  N   UNL     1       7.636   4.799  18.680  0.00  0.00    +0.000 NA
ATOM      4  C   UNL     1       6.612   4.687  17.795  0.00  0.00    +0.000 A 
ATOM      5  C   UNL     1       6.080   5.744  17.063  0.00  0.00    +0.000 A 
ATOM      6  C   UNL     1       6.653   7.003  17.260  0.00  0.00    +0.000 A 
ENDROOT
BRANCH   1   8
ATOM      7  C   UNL     1       8.829   9.514  18.529  0.00  0.00    +0.000 C 
ATOM      8  C   UNL     1       8.302   8.446  18.367  0.00  0.00    +0.000 C 
BRANCH   7  14
ATOM      9 CL   UNL     1       9.835  13.493  21.644  0.00  0.00    +0.000 Cl
ATOM     10  C   UNL     1       9.994  12.667  20.141  0.00  0.00    +0.000 A 
ATOM     11  C   UNL     1      10.716  13.258  19.104  0.00  0.00    +0.000 A 
ATOM     12  C   UNL     1      10.842  12.594  17.884  0.00  0.00    +0.000 A 
ATOM     13  C   UNL     1      10.230  11.351  17.700  0.00  0.00    +0.000 A 
ATOM     14  C   UNL     1       9.498  10.766  18.736  0.00  0.00    +0.000 A 
ATOM     15  C   UNL     1       9.390  11.422  19.966  0.00  0.00    +0.000 A 
ENDBRANCH   7  14
ENDBRANCH   1   8
BRANCH   5  16
ATOM     16  O   UNL     1       5.038   5.452  16.222  0.00  0.00    +0.000 OA
BRANCH  16  17
ATOM     17  C   UNL     1       4.259   4.301  16.574  0.00  0.00    +0.000 C 
BRANCH  17  18
ATOM     18  C   UNL     1       3.165   4.697  17.561  0.00  0.00    +0.000 C 
ATOM     19  C   UNL     1       3.170   4.120  19.000  0.00  0.00    +0.000 C 
ATOM     20  C   UNL     1       1.642   4.049  18.807  0.00  0.00    +0.000 C 
ATOM     21  N   UNL     1       1.902   3.911  17.352  0.00  0.00    +0.000 NA
ATOM     22  H   UNL     1       1.207   4.347  16.749  0.00  0.00    +0.000 HD
ENDBRANCH  17  18
ENDBRANCH  16  17
ENDBRANCH   5  16
TORSDOF 5
ENDMDL
