MODEL 1
REMARK VINA RESULT:      -8.5      0.000      0.000
REMARK  Name = 
REMARK  2 active torsions:
REMARK  status: ('A' for Active; 'I' for Inactive)
REMARK    1  A    between atoms: N_3  and  C_4
REMARK    2  A    between atoms: C_9  and  C_10
REMARK                            x       y       z     vdW  Elec       q    Type
REMARK                         _______ _______ _______ _____ _____    ______ ____
ROOT
ATOM      1  C   UNL     1       2.355   6.338  19.776  0.00  0.00    +0.000 A 
ATOM      2  C   UNL     1       2.128   4.993  20.057  0.00  0.00    +0.000 A 
ATOM      3  C   UNL     1       2.686   3.977  19.282  0.00  0.00    +0.000 A 
ATOM      4  C   UNL     1       3.473   4.341  18.186  0.00  0.00    +0.000 A 
ATOM      5  S   UNL     1       4.306   3.325  17.092  0.00  0.00    +0.000 S 
ATOM      6  C   UNL     1       4.873   4.702  16.225  0.00  0.00    +0.000 A 
ATOM      7  N   UNL     1       4.464   5.863  16.700  0.00  0.00    +0.000 NA
ATOM      8  C   UNL     1       3.681   5.673  17.833  0.00  0.00    +0.000 A 
ATOM      9  C   UNL     1       3.102   6.684  18.636  0.00  0.00    +0.000 A 
ENDROOT
BRANCH   1  12
ATOM     10  O   UNL     1       1.384   8.952  18.974  0.00  0.00    +0.000 OA
ATOM     11  C   UNL     1       1.460   8.633  20.159  0.00  0.00    +0.000 C 
ATOM     12  N   UNL     1       1.873   7.389  20.594  0.00  0.00    +0.000 N 
ATOM     13  N   UNL     1       1.099   9.531  21.153  0.00  0.00    +0.000 N 
ATOM     14  C   UNL     1       1.204   9.361  22.602  0.00  0.00    +0.000 C 
ATOM     15  C   UNL     1      -0.172   9.524  23.247  0.00  0.00    +0.000 C 
ATOM     16  C   UNL     1      -0.812  10.858  22.854  0.00  0.00    +0.000 C 
ATOM     17  C   UNL     1      -0.823  11.047  21.338  0.00  0.00    +0.000 C 
ATOM     18  C   UNL     1       0.566  10.831  20.743  0.00  0.00    +0.000 C 
ATOM     19  H   UNL     1       1.586   7.121  21.518  0.00  0.00    +0.000 HD
ENDBRANCH   1  12
BRANCH   6  20
ATOM     20  C   UNL     1       5.683   4.521  15.004  0.00  0.00    +0.000 A 
ATOM     21  C   UNL     1       6.909   5.191  14.886  0.00  0.00    +0.000 A 
ATOM     22  C   UNL     1       7.664   5.105  13.711  0.00  0.00    +0.000 A 
ATOM     23  C   UNL     1       7.208   4.335  12.643  0.00  0.00    +0.000 A 
ATOM     24  C   UNL     1       6.011   3.634  12.754  0.00  0.00    +0.000 A 
ATOM     25  C   UNL     1       5.259   3.720  13.928  0.00  0.00    +0.000 A 
ENDBRANCH   6  20
TORSDOF 2
ENDMDL
MODEL 2
REMARK VINA RESULT:      -7.7      0.922      1.053
REMARK  Name = 
REMARK  2 active torsions:
REMARK  status: ('A' for Active; 'I' for Inactive)
REMARK    1  A    between atoms: N_3  and  C_4
REMARK    2  A    between atoms: C_9  and  C_10
REMARK                            x       y       z     vdW  Elec       q    Type
REMARK                         _______ _______ _______ _____ _____    ______ ____
ROOT
ATOM      1  C   UNL     1       2.511   7.069  19.121  0.00  0.00    +0.000 A 
ATOM      2  C   UNL     1       2.456   5.791  19.673  0.00  0.00    +0.000 A 
ATOM      3  C   UNL     1       3.115   4.709  19.088  0.00  0.00    +0.000 A 
ATOM      4  C   UNL     1       3.825   4.933  17.905  0.00  0.00    +0.000 A 
ATOM      5  S   UNL     1       4.749   3.818  16.994  0.00  0.00    +0.000 S 
ATOM      6  C   UNL     1       5.123   5.046  15.846  0.00  0.00    +0.000 A 
ATOM      7  N   UNL     1       4.587   6.225  16.102  0.00  0.00    +0.000 NA
ATOM      8  C   UNL     1       3.861   6.180  17.286  0.00  0.00    +0.000 A 
ATOM      9  C   UNL     1       3.183   7.259  17.900  0.00  0.00    +0.000 A 
ENDROOT
BRANCH   1  12
ATOM     10  O   UNL     1       1.047   9.244  17.880  0.00  0.00    +0.000 OA
ATOM     11  C   UNL     1       1.272   9.231  19.089  0.00  0.00    +0.000 C 
ATOM     12  N   UNL     1       1.925   8.201  19.736  0.00  0.00    +0.000 N 
ATOM     13  N   UNL     1       0.845  10.276  19.895  0.00  0.00    +0.000 N 
ATOM     14  C   UNL     1       1.094  10.473  21.323  0.00  0.00    +0.000 C 
ATOM     15  C   UNL     1      -0.232  10.580  22.073  0.00  0.00    +0.000 C 
ATOM     16  C   UNL     1      -1.120  11.673  21.474  0.00  0.00    +0.000 C 
ATOM     17  C   UNL     1      -1.286  11.493  19.966  0.00  0.00    +0.000 C 
ATOM     18  C   UNL     1       0.066  11.349  19.273  0.00  0.00    +0.000 C 
ATOM     19  H   UNL     1       1.764   8.121  20.724  0.00  0.00    +0.000 HD
ENDBRANCH   1  12
BRANCH   6  20
ATOM     20  C   UNL     1       5.918   4.717  14.648  0.00  0.00    +0.000 A 
ATOM     21  C   UNL     1       7.153   5.350  14.445  0.00  0.00    +0.000 A 
ATOM     22  C   UNL     1       7.896   5.120  13.281  0.00  0.00    +0.000 A 
ATOM     23  C   UNL     1       7.419   4.241  12.311  0.00  0.00    +0.000 A 
ATOM     24  C   UNL     1       6.213   3.575  12.510  0.00  0.00    +0.000 A 
ATOM     25  C   UNL     1       5.473   3.806  13.672  0.00  0.00    +0.000 A 
ENDBRANCH   6  20
TORSDOF 2
ENDMDL
MODEL 3
REMARK VINA RESULT:      -7.7      3.627      9.664
REMARK  Name = 
REMARK  2 active torsions:
REMARK  status: ('A' for Active; 'I' for Inactive)
REMARK    1  A    between atoms: N_3  and  C_4
REMARK    2  A    between atoms: C_9  and  C_10
REMARK                            x       y       z     vdW  Elec       q    Type
REMARK                         _______ _______ _______ _____ _____    ______ ____
ROOT
ATOM      1  C   UNL     1       2.118   7.782  19.052  0.00  0.00    +0.000 A 
ATOM      2  C   UNL     1       2.201   8.657  17.971  0.00  0.00    +0.000 A 
ATOM      3  C   UNL     1       1.717   9.963  18.045  0.00  0.00    +0.000 A 
ATOM      4  C   UNL     1       1.117  10.376  19.238  0.00  0.00    +0.000 A 
ATOM      5  S   UNL     1       0.474  11.912  19.627  0.00  0.00    +0.000 S 
ATOM      6  C   UNL     1       0.026  11.344  21.190  0.00  0.00    +0.000 A 
ATOM      7  N   UNL     1       0.318  10.078  21.423  0.00  0.00    +0.000 NA
ATOM      8  C   UNL     1       0.961   9.519  20.325  0.00  0.00    +0.000 A 
ATOM      9  C   UNL     1       1.459   8.199  20.222  0.00  0.00    +0.000 A 
ENDROOT
BRANCH   1  12
ATOM     10  O   UNL     1       1.269   5.433  20.528  0.00  0.00    +0.000 OA
ATOM     11  C   UNL     1       2.254   5.406  19.793  0.00  0.00    +0.000 C 
ATOM     12  N   UNL     1       2.675   6.480  19.035  0.00  0.00    +0.000 N 
ATOM     13  N   UNL     1       3.005   4.246  19.666  0.00  0.00    +0.000 N 
ATOM     14  C   UNL     1       4.244   4.052  18.914  0.00  0.00    +0.000 C 
ATOM     15  C   UNL     1       4.060   2.941  17.883  0.00  0.00    +0.000 C 
ATOM     16  C   UNL     1       3.563   1.652  18.541  0.00  0.00    +0.000 C 
ATOM     17  C   UNL     1       2.320   1.904  19.394  0.00  0.00    +0.000 C 
ATOM     18  C   UNL     1       2.546   3.051  20.376  0.00  0.00    +0.000 C 
ATOM     19  H   UNL     1       3.255   6.269  18.243  0.00  0.00    +0.000 HD
ENDBRANCH   1  12
BRANCH   6  20
ATOM     20  C   UNL     1      -0.700  12.233  22.117  0.00  0.00    +0.000 A 
ATOM     21  C   UNL     1      -1.835  11.751  22.786  0.00  0.00    +0.000 A 
ATOM     22  C   UNL     1      -2.592  12.591  23.611  0.00  0.00    +0.000 A 
ATOM     23  C   UNL     1      -2.216  13.920  23.789  0.00  0.00    +0.000 A 
ATOM     24  C   UNL     1      -1.073  14.407  23.163  0.00  0.00    +0.000 A 
ATOM     25  C   UNL     1      -0.317  13.569  22.339  0.00  0.00    +0.000 A 
ENDBRANCH   6  20
TORSDOF 2
ENDMDL
MODEL 4
REMARK VINA RESULT:      -7.7      3.484      5.512
REMARK  Name = 
REMARK  2 active torsions:
REMARK  status: ('A' for Active; 'I' for Inactive)
REMARK    1  A    between atoms: N_3  and  C_4
REMARK    2  A    between atoms: C_9  and  C_10
REMARK                            x       y       z     vdW  Elec       q    Type
REMARK                         _______ _______ _______ _____ _____    ______ ____
ROOT
ATOM      1  C   UNL     1      -0.034  10.544  20.724  0.00  0.00    +0.000 A 
ATOM      2  C   UNL     1       0.372  11.033  19.484  0.00  0.00    +0.000 A 
ATOM      3  C   UNL     1       1.168  10.279  18.622  0.00  0.00    +0.000 A 
ATOM      4  C   UNL     1       1.577   9.011  19.044  0.00  0.00    +0.000 A 
ATOM      5  S   UNL     1       2.515   7.861  18.195  0.00  0.00    +0.000 S 
ATOM      6  C   UNL     1       2.429   6.782  19.535  0.00  0.00    +0.000 A 
ATOM      7  N   UNL     1       1.755   7.240  20.573  0.00  0.00    +0.000 NA
ATOM      8  C   UNL     1       1.244   8.504  20.298  0.00  0.00    +0.000 A 
ATOM      9  C   UNL     1       0.436   9.290  21.153  0.00  0.00    +0.000 A 
ENDROOT
BRANCH   1  12
ATOM     10  O   UNL     1       0.402  13.081  22.062  0.00  0.00    +0.000 OA
ATOM     11  C   UNL     1      -0.633  12.439  22.228  0.00  0.00    +0.000 C 
ATOM     12  N   UNL     1      -0.910  11.250  21.583  0.00  0.00    +0.000 N 
ATOM     13  N   UNL     1      -1.621  12.906  23.083  0.00  0.00    +0.000 N 
ATOM     14  C   UNL     1      -2.867  12.245  23.468  0.00  0.00    +0.000 C 
ATOM     15  C   UNL     1      -4.059  13.130  23.107  0.00  0.00    +0.000 C 
ATOM     16  C   UNL     1      -3.918  14.525  23.722  0.00  0.00    +0.000 C 
ATOM     17  C   UNL     1      -2.568  15.152  23.379  0.00  0.00    +0.000 C 
ATOM     18  C   UNL     1      -1.417  14.209  23.720  0.00  0.00    +0.000 C 
ATOM     19  H   UNL     1      -1.878  10.990  21.521  0.00  0.00    +0.000 HD
ENDBRANCH   1  12
BRANCH   6  20
ATOM     20  C   UNL     1       3.147   5.493  19.491  0.00  0.00    +0.000 A 
ATOM     21  C   UNL     1       2.561   4.358  20.069  0.00  0.00    +0.000 A 
ATOM     22  C   UNL     1       3.248   3.140  20.115  0.00  0.00    +0.000 A 
ATOM     23  C   UNL     1       4.525   3.037  19.568  0.00  0.00    +0.000 A 
ATOM     24  C   UNL     1       5.109   4.142  18.956  0.00  0.00    +0.000 A 
ATOM     25  C   UNL     1       4.422   5.358  18.912  0.00  0.00    +0.000 A 
ENDBRANCH   6  20
TORSDOF 2
ENDMDL
MODEL 5
REMARK VINA RESULT:      -7.7      1.813      2.748
REMARK  Name = 
REMARK  2 active torsions:
REMARK  status: ('A' for Active; 'I' for Inactive)
REMARK    1  A    between atoms: N_3  and  C_4
REMARK    2  A    between atoms: C_9  and  C_10
REMARK                            x       y       z     vdW  Elec       q    Type
REMARK                         _______ _______ _______ _____ _____    ______ ____
ROOT
ATOM      1  C   UNL     1       1.151   8.669  20.400  0.00  0.00    +0.000 A 
ATOM      2  C   UNL     1       0.967   7.526  21.175  0.00  0.00    +0.000 A 
ATOM      3  C   UNL     1       1.594   6.320  20.863  0.00  0.00    +0.000 A 
ATOM      4  C   UNL     1       2.405   6.274  19.726  0.00  0.00    +0.000 A 
ATOM      5  S   UNL     1       3.317   4.959  19.124  0.00  0.00    +0.000 S 
ATOM      6  C   UNL     1       3.860   5.922  17.803  0.00  0.00    +0.000 A 
ATOM      7  N   UNL     1       3.387   7.155  17.785  0.00  0.00    +0.000 NA
ATOM      8  C   UNL     1       2.572   7.376  18.889  0.00  0.00    +0.000 A 
ATOM      9  C   UNL     1       1.924   8.587  19.229  0.00  0.00    +0.000 A 
ENDROOT
BRANCH   1  12
ATOM     10  O   UNL     1      -1.093  10.045  19.180  0.00  0.00    +0.000 OA
ATOM     11  C   UNL     1      -0.450  10.556  20.095  0.00  0.00    +0.000 C 
ATOM     12  N   UNL     1       0.597   9.928  20.740  0.00  0.00    +0.000 N 
ATOM     13  N   UNL     1      -0.770  11.824  20.558  0.00  0.00    +0.000 N 
ATOM     14  C   UNL     1      -0.072  12.618  21.567  0.00  0.00    +0.000 C 
ATOM     15  C   UNL     1      -1.028  12.973  22.705  0.00  0.00    +0.000 C 
ATOM     16  C   UNL     1      -2.285  13.667  22.175  0.00  0.00    +0.000 C 
ATOM     17  C   UNL     1      -2.941  12.857  21.058  0.00  0.00    +0.000 C 
ATOM     18  C   UNL     1      -1.932  12.495  19.971  0.00  0.00    +0.000 C 
ATOM     19  H   UNL     1       0.825  10.267  21.657  0.00  0.00    +0.000 HD
ENDBRANCH   1  12
BRANCH   6  20
ATOM     20  C   UNL     1       4.720   5.328  16.761  0.00  0.00    +0.000 A 
ATOM     21  C   UNL     1       5.209   6.138  15.727  0.00  0.00    +0.000 A 
ATOM     22  C   UNL     1       5.961   5.591  14.681  0.00  0.00    +0.000 A 
ATOM     23  C   UNL     1       6.247   4.228  14.664  0.00  0.00    +0.000 A 
ATOM     24  C   UNL     1       5.801   3.413  15.701  0.00  0.00    +0.000 A 
ATOM     25  C   UNL     1       5.051   3.960  16.745  0.00  0.00    +0.000 A 
ENDBRANCH   6  20
TORSDOF 2
ENDMDL
MODEL 6
REMARK VINA RESULT:      -7.6      2.173      3.257
REMARK  Name = 
REMARK  2 active torsions:
REMARK  status: ('A' for Active; 'I' for Inactive)
REMARK    1  A    between atoms: N_3  and  C_4
REMARK    2  A    between atoms: C_9  and  C_10
REMARK                            x       y       z     vdW  Elec       q    Type
REMARK                         _______ _______ _______ _____ _____    ______ ____
ROOT
ATOM      1  C   UNL     1       0.980   9.079  19.859  0.00  0.00    +0.000 A 
ATOM      2  C   UNL     1       0.909   8.071  20.819  0.00  0.00    +0.000 A 
ATOM      3  C   UNL     1       1.702   6.927  20.742  0.00  0.00    +0.000 A 
ATOM      4  C   UNL     1       2.569   6.799  19.653  0.00  0.00    +0.000 A 
ATOM      5  S   UNL     1       3.675   5.538  19.318  0.00  0.00    +0.000 S 
ATOM      6  C   UNL     1       4.153   6.325  17.863  0.00  0.00    +0.000 A 
ATOM      7  N   UNL     1       3.524   7.459  17.614  0.00  0.00    +0.000 NA
ATOM      8  C   UNL     1       2.633   7.753  18.639  0.00  0.00    +0.000 A 
ATOM      9  C   UNL     1       1.816   8.903  18.742  0.00  0.00    +0.000 A 
ENDROOT
BRANCH   1  12
ATOM     10  O   UNL     1      -1.583   9.742  18.672  0.00  0.00    +0.000 OA
ATOM     11  C   UNL     1      -0.951  10.564  19.333  0.00  0.00    +0.000 C 
ATOM     12  N   UNL     1       0.250  10.288  19.955  0.00  0.00    +0.000 N 
ATOM     13  N   UNL     1      -1.442  11.849  19.511  0.00  0.00    +0.000 N 
ATOM     14  C   UNL     1      -0.796  12.976  20.184  0.00  0.00    +0.000 C 
ATOM     15  C   UNL     1      -1.680  13.477  21.325  0.00  0.00    +0.000 C 
ATOM     16  C   UNL     1      -3.087  13.817  20.827  0.00  0.00    +0.000 C 
ATOM     17  C   UNL     1      -3.699  12.654  20.048  0.00  0.00    +0.000 C 
ATOM     18  C   UNL     1      -2.757  12.166  18.950  0.00  0.00    +0.000 C 
ATOM     19  H   UNL     1       0.506  10.887  20.719  0.00  0.00    +0.000 HD
ENDBRANCH   1  12
BRANCH   6  20
ATOM     20  C   UNL     1       5.135   5.684  16.966  0.00  0.00    +0.000 A 
ATOM     21  C   UNL     1       6.223   4.994  17.518  0.00  0.00    +0.000 A 
ATOM     22  C   UNL     1       7.214   4.443  16.698  0.00  0.00    +0.000 A 
ATOM     23  C   UNL     1       7.121   4.562  15.313  0.00  0.00    +0.000 A 
ATOM     24  C   UNL     1       6.030   5.212  14.745  0.00  0.00    +0.000 A 
ATOM     25  C   UNL     1       5.041   5.762  15.564  0.00  0.00    +0.000 A 
ENDBRANCH   6  20
TORSDOF 2
ENDMDL
MODEL 7
REMARK VINA RESULT:      -7.6      3.641      9.570
REMARK  Name = 
REMARK  2 active torsions:
REMARK  status: ('A' for Active; 'I' for Inactive)
REMARK    1  A    between atoms: N_3  and  C_4
REMARK    2  A    between atoms: C_9  and  C_10
REMARK                            x       y       z     vdW  Elec       q    Type
REMARK                         _______ _______ _______ _____ _____    ______ ____
ROOT
ATOM      1  C   UNL     1       2.166   7.796  18.964  0.00  0.00    +0.000 A 
ATOM      2  C   UNL     1       2.248   8.645  17.862  0.00  0.00    +0.000 A 
ATOM      3  C   UNL     1       1.778   9.958  17.910  0.00  0.00    +0.000 A 
ATOM      4  C   UNL     1       1.193  10.404  19.098  0.00  0.00    +0.000 A 
ATOM      5  S   UNL     1       0.568  11.955  19.457  0.00  0.00    +0.000 S 
ATOM      6  C   UNL     1       0.127  11.427  21.036  0.00  0.00    +0.000 A 
ATOM      7  N   UNL     1       0.408  10.164  21.296  0.00  0.00    +0.000 NA
ATOM      8  C   UNL     1       1.037   9.573  20.206  0.00  0.00    +0.000 A 
ATOM      9  C   UNL     1       1.521   8.247  20.129  0.00  0.00    +0.000 A 
ENDROOT
BRANCH   1  12
ATOM     10  O   UNL     1       1.340   5.505  20.540  0.00  0.00    +0.000 OA
ATOM     11  C   UNL     1       2.302   5.444  19.777  0.00  0.00    +0.000 C 
ATOM     12  N   UNL     1       2.710   6.489  18.972  0.00  0.00    +0.000 N 
ATOM     13  N   UNL     1       3.037   4.273  19.664  0.00  0.00    +0.000 N 
ATOM     14  C   UNL     1       4.251   4.042  18.883  0.00  0.00    +0.000 C 
ATOM     15  C   UNL     1       4.025   2.900  17.893  0.00  0.00    +0.000 C 
ATOM     16  C   UNL     1       3.536   1.638  18.608  0.00  0.00    +0.000 C 
ATOM     17  C   UNL     1       2.323   1.930  19.489  0.00  0.00    +0.000 C 
ATOM     18  C   UNL     1       2.589   3.106  20.426  0.00  0.00    +0.000 C 
ATOM     19  H   UNL     1       3.263   6.246  18.170  0.00  0.00    +0.000 HD
ENDBRANCH   1  12
BRANCH   6  20
ATOM     20  C   UNL     1      -0.583  12.344  21.948  0.00  0.00    +0.000 A 
ATOM     21  C   UNL     1      -0.119  13.659  22.102  0.00  0.00    +0.000 A 
ATOM     22  C   UNL     1      -0.720  14.530  23.017  0.00  0.00    +0.000 A 
ATOM     23  C   UNL     1      -1.804  14.102  23.780  0.00  0.00    +0.000 A 
ATOM     24  C   UNL     1      -2.302  12.813  23.616  0.00  0.00    +0.000 A 
ATOM     25  C   UNL     1      -1.701  11.944  22.702  0.00  0.00    +0.000 A 
ENDBRANCH   6  20
TORSDOF 2
ENDMDL
MODEL 8
REMARK VINA RESULT:      -7.5      2.305      3.576
REMARK  Name = 
REMARK  2 active torsions:
REMARK  status: ('A' for Active; 'I' for Inactive)
REMARK    1  A    between atoms: N_3  and  C_4
REMARK    2  A    between atoms: C_9  and  C_10
REMARK                            x       y       z     vdW  Elec       q    Type
REMARK                         _______ _______ _______ _____ _____    ______ ____
ROOT
ATOM      1  C   UNL     1       0.811   9.356  20.231  0.00  0.00    +0.000 A 
ATOM      2  C   UNL     1       0.730   8.350  21.191  0.00  0.00    +0.000 A 
ATOM      3  C   UNL     1       1.420   7.146  21.052  0.00  0.00    +0.000 A 
ATOM      4  C   UNL     1       2.189   6.957  19.901  0.00  0.00    +0.000 A 
ATOM      5  S   UNL     1       3.161   5.613  19.481  0.00  0.00    +0.000 S 
ATOM      6  C   UNL     1       3.591   6.372  17.995  0.00  0.00    +0.000 A 
ATOM      7  N   UNL     1       3.040   7.555  17.798  0.00  0.00    +0.000 NA
ATOM      8  C   UNL     1       2.254   7.911  18.887  0.00  0.00    +0.000 A 
ATOM      9  C   UNL     1       1.543   9.123  19.053  0.00  0.00    +0.000 A 
ENDROOT
BRANCH   1  12
ATOM     10  O   UNL     1       0.229  10.798  22.680  0.00  0.00    +0.000 OA
ATOM     11  C   UNL     1      -0.100  11.243  21.582  0.00  0.00    +0.000 C 
ATOM     12  N   UNL     1       0.191  10.620  20.384  0.00  0.00    +0.000 N 
ATOM     13  N   UNL     1      -0.782  12.447  21.486  0.00  0.00    +0.000 N 
ATOM     14  C   UNL     1      -1.324  13.083  20.286  0.00  0.00    +0.000 C 
ATOM     15  C   UNL     1      -0.721  14.476  20.117  0.00  0.00    +0.000 C 
ATOM     16  C   UNL     1      -0.925  15.323  21.375  0.00  0.00    +0.000 C 
ATOM     17  C   UNL     1      -0.433  14.594  22.624  0.00  0.00    +0.000 C 
ATOM     18  C   UNL     1      -1.033  13.193  22.720  0.00  0.00    +0.000 C 
ATOM     19  H   UNL     1       0.187  11.201  19.565  0.00  0.00    +0.000 HD
ENDBRANCH   1  12
BRANCH   6  20
ATOM     20  C   UNL     1       4.447   5.661  17.026  0.00  0.00    +0.000 A 
ATOM     21  C   UNL     1       5.073   6.384  16.000  0.00  0.00    +0.000 A 
ATOM     22  C   UNL     1       5.827   5.731  15.019  0.00  0.00    +0.000 A 
ATOM     23  C   UNL     1       5.979   4.347  15.060  0.00  0.00    +0.000 A 
ATOM     24  C   UNL     1       5.396   3.615  16.091  0.00  0.00    +0.000 A 
ATOM     25  C   UNL     1       4.643   4.268  17.070  0.00  0.00    +0.000 A 
ENDBRANCH   6  20
TORSDOF 2
ENDMDL
MODEL 9
REMARK VINA RESULT:      -7.4      3.507      5.312
REMARK  Name = 
REMARK  2 active torsions:
REMARK  status: ('A' for Active; 'I' for Inactive)
REMARK    1  A    between atoms: N_3  and  C_4
REMARK    2  A    between atoms: C_9  and  C_10
REMARK                            x       y       z     vdW  Elec       q    Type
REMARK                         _______ _______ _______ _____ _____    ______ ____
ROOT
ATOM      1  C   UNL     1       0.200  10.471  20.170  0.00  0.00    +0.000 A 
ATOM      2  C   UNL     1       0.721  10.832  18.929  0.00  0.00    +0.000 A 
ATOM      3  C   UNL     1       1.543   9.972  18.201  0.00  0.00    +0.000 A 
ATOM      4  C   UNL     1       1.857   8.731  18.760  0.00  0.00    +0.000 A 
ATOM      5  S   UNL     1       2.800   7.472  18.089  0.00  0.00    +0.000 S 
ATOM      6  C   UNL     1       2.561   6.520  19.504  0.00  0.00    +0.000 A 
ATOM      7  N   UNL     1       1.833   7.096  20.443  0.00  0.00    +0.000 NA
ATOM      8  C   UNL     1       1.406   8.350  20.022  0.00  0.00    +0.000 A 
ATOM      9  C   UNL     1       0.576   9.242  20.740  0.00  0.00    +0.000 A 
ENDROOT
BRANCH   1  12
ATOM     10  O   UNL     1      -2.260  11.700  19.247  0.00  0.00    +0.000 OA
ATOM     11  C   UNL     1      -1.844  11.881  20.390  0.00  0.00    +0.000 C 
ATOM     12  N   UNL     1      -0.704  11.287  20.894  0.00  0.00    +0.000 N 
ATOM     13  N   UNL     1      -2.535  12.703  21.269  0.00  0.00    +0.000 N 
ATOM     14  C   UNL     1      -2.150  13.101  22.622  0.00  0.00    +0.000 C 
ATOM     15  C   UNL     1      -3.235  12.688  23.615  0.00  0.00    +0.000 C 
ATOM     16  C   UNL     1      -4.601  13.241  23.204  0.00  0.00    +0.000 C 
ATOM     17  C   UNL     1      -4.934  12.887  21.756  0.00  0.00    +0.000 C 
ATOM     18  C   UNL     1      -3.800  13.283  20.814  0.00  0.00    +0.000 C 
ATOM     19  H   UNL     1      -0.636  11.225  21.893  0.00  0.00    +0.000 HD
ENDBRANCH   1  12
BRANCH   6  20
ATOM     20  C   UNL     1       3.217   5.204  19.627  0.00  0.00    +0.000 A 
ATOM     21  C   UNL     1       4.443   4.983  18.983  0.00  0.00    +0.000 A 
ATOM     22  C   UNL     1       5.053   3.724  19.013  0.00  0.00    +0.000 A 
ATOM     23  C   UNL     1       4.452   2.672  19.702  0.00  0.00    +0.000 A 
ATOM     24  C   UNL     1       3.254   2.881  20.378  0.00  0.00    +0.000 A 
ATOM     25  C   UNL     1       2.646   4.138  20.347  0.00  0.00    +0.000 A 
ENDBRANCH   6  20
TORSDOF 2
ENDMDL
