MODEL 1
REMARK VINA RESULT:      -8.2      0.000      0.000
REMARK  Name = 
REMARK  8 active torsions:
REMARK  status: ('A' for Active; 'I' for Inactive)
REMARK    1  A    between atoms: C_1  and  O_2
REMARK    2  A    between atoms: O_2  and  C_3
REMARK    3  A    between atoms: C_6  and  C_7
REMARK    4  A    between atoms: C_9  and  N_10
REMARK    5  A    between atoms: C_11  and  C_13
REMARK    6  A    between atoms: N_15  and  C_16
REMARK    7  A    between atoms: C_16  and  C_17
REMARK    8  A    between atoms: C_17  and  C_18
REMARK                            x       y       z     vdW  Elec       q    Type
REMARK                         _______ _______ _______ _____ _____    ______ ____
ROOT
ATOM      1  C   UNL     1       2.140   7.374  19.646  0.00  0.00    +0.000 C 
ATOM      2  O   UNL     1       1.655   7.097  20.729  0.00  0.00    +0.000 OA
ATOM      3  N   UNL     1       3.086   6.623  18.940  0.00  0.00    +0.000 N 
ATOM      4  H   UNL     1       3.451   7.075  18.102  0.00  0.00    +0.000 HD
ENDROOT
BRANCH   1   6
ATOM      5  N   UNL     1       1.063   9.646  19.629  0.00  0.00    +0.000 N 
ATOM      6  C   UNL     1       1.742   8.676  18.891  0.00  0.00    +0.000 C 
ATOM      7  O   UNL     1       2.070   8.727  17.709  0.00  0.00    +0.000 OA
ATOM      8  H   UNL     1       0.868   9.445  20.608  0.00  0.00    +0.000 HD
BRANCH   5  15
ATOM      9  C   UNL     1      -0.700  11.119  18.697  0.00  0.00    +0.000 A 
ATOM     10  C   UNL     1      -1.112  12.396  18.265  0.00  0.00    +0.000 A 
ATOM     11  C   UNL     1      -0.224  13.470  18.226  0.00  0.00    +0.000 A 
ATOM     12  C   UNL     1       1.093  13.287  18.626  0.00  0.00    +0.000 A 
ATOM     13  C   UNL     1       2.084  14.413  18.572  0.00  0.00    +0.000 C 
ATOM     14  C   UNL     1       1.501  12.023  19.086  0.00  0.00    +0.000 A 
ATOM     15  C   UNL     1       0.629  10.923  19.144  0.00  0.00    +0.000 A 
BRANCH   9  17
ATOM     16  C   UNL     1      -2.408   9.919  17.568  0.00  0.00    +0.000 C 
ATOM     17  O   UNL     1      -1.550  10.034  18.709  0.00  0.00    +0.000 OA
ENDBRANCH   9  17
ENDBRANCH   5  15
ENDBRANCH   1   6
BRANCH   3  18
ATOM     18  C   UNL     1       3.750   5.422  19.444  0.00  0.00    +0.000 C 
BRANCH  18  19
ATOM     19  C   UNL     1       3.820   4.220  18.426  0.00  0.00    +0.000 C 
ATOM     20  C   UNL     1       4.070   2.885  19.188  0.00  0.00    +0.000 C 
ATOM     21  C   UNL     1       3.409   1.819  18.321  0.00  0.00    +0.000 C 
ATOM     22  C   UNL     1       2.096   2.477  17.941  0.00  0.00    +0.000 C 
ATOM     23  C   UNL     1       2.404   3.977  17.808  0.00  0.00    +0.000 C 
BRANCH  19  24
ATOM     24  C   UNL     1       4.960   4.376  17.388  0.00  0.00    +0.000 A 
ATOM     25  C   UNL     1       6.295   4.507  17.816  0.00  0.00    +0.000 A 
ATOM     26  C   UNL     1       7.344   4.663  16.905  0.00  0.00    +0.000 A 
ATOM     27  C   UNL     1       7.089   4.667  15.538  0.00  0.00    +0.000 A 
ATOM     28  C   UNL     1       5.788   4.487  15.085  0.00  0.00    +0.000 A 
ATOM     29  C   UNL     1       4.738   4.336  15.999  0.00  0.00    +0.000 A 
ENDBRANCH  19  24
ENDBRANCH  18  19
ENDBRANCH   3  18
TORSDOF 6
ENDMDL
MODEL 2
REMARK VINA RESULT:      -8.0      2.086      3.013
REMARK  Name = 
REMARK  8 active torsions:
REMARK  status: ('A' for Active; 'I' for Inactive)
REMARK    1  A    between atoms: C_1  and  O_2
REMARK    2  A    between atoms: O_2  and  C_3
REMARK    3  A    between atoms: C_6  and  C_7
REMARK    4  A    between atoms: C_9  and  N_10
REMARK    5  A    between atoms: C_11  and  C_13
REMARK    6  A    between atoms: N_15  and  C_16
REMARK    7  A    between atoms: C_16  and  C_17
REMARK    8  A    between atoms: C_17  and  C_18
REMARK                            x       y       z     vdW  Elec       q    Type
REMARK                         _______ _______ _______ _____ _____    ______ ____
ROOT
ATOM      1  C   UNL     1       1.708   9.607  18.058  0.00  0.00    +0.000 C 
ATOM      2  O   UNL     1       2.394  10.470  17.536  0.00  0.00    +0.000 OA
ATOM      3  N   UNL     1       2.056   8.263  18.237  0.00  0.00    +0.000 N 
ATOM      4  H   UNL     1       1.306   7.673  18.595  0.00  0.00    +0.000 HD
ENDROOT
BRANCH   1   6
ATOM      5  N   UNL     1      -0.570  10.625  17.754  0.00  0.00    +0.000 N 
ATOM      6  C   UNL     1       0.286   9.923  18.604  0.00  0.00    +0.000 C 
ATOM      7  O   UNL     1       0.049   9.518  19.738  0.00  0.00    +0.000 OA
ATOM      8  H   UNL     1      -0.214  10.888  16.836  0.00  0.00    +0.000 HD
BRANCH   5  15
ATOM      9  C   UNL     1      -2.992  10.537  17.232  0.00  0.00    +0.000 A 
ATOM     10  C   UNL     1      -4.319  10.881  17.562  0.00  0.00    +0.000 A 
ATOM     11  C   UNL     1      -4.604  11.706  18.649  0.00  0.00    +0.000 A 
ATOM     12  C   UNL     1      -3.567  12.196  19.431  0.00  0.00    +0.000 A 
ATOM     13  C   UNL     1      -3.834  13.108  20.592  0.00  0.00    +0.000 C 
ATOM     14  C   UNL     1      -2.245  11.831  19.124  0.00  0.00    +0.000 A 
ATOM     15  C   UNL     1      -1.925  10.996  18.040  0.00  0.00    +0.000 A 
BRANCH   9  17
ATOM     16  C   UNL     1      -3.084  10.286  14.873  0.00  0.00    +0.000 C 
ATOM     17  O   UNL     1      -2.683   9.753  16.141  0.00  0.00    +0.000 OA
ENDBRANCH   9  17
ENDBRANCH   5  15
ENDBRANCH   1   6
BRANCH   3  18
ATOM     18  C   UNL     1       3.267   7.632  17.717  0.00  0.00    +0.000 C 
BRANCH  18  19
ATOM     19  C   UNL     1       3.443   6.112  18.093  0.00  0.00    +0.000 C 
ATOM     20  C   UNL     1       3.524   5.946  19.639  0.00  0.00    +0.000 C 
ATOM     21  C   UNL     1       2.961   4.554  19.906  0.00  0.00    +0.000 C 
ATOM     22  C   UNL     1       1.747   4.515  18.997  0.00  0.00    +0.000 C 
ATOM     23  C   UNL     1       2.128   5.335  17.754  0.00  0.00    +0.000 C 
BRANCH  19  24
ATOM     24  C   UNL     1       4.732   5.490  17.498  0.00  0.00    +0.000 A 
ATOM     25  C   UNL     1       5.997   5.937  17.925  0.00  0.00    +0.000 A 
ATOM     26  C   UNL     1       7.179   5.407  17.398  0.00  0.00    +0.000 A 
ATOM     27  C   UNL     1       7.127   4.395  16.446  0.00  0.00    +0.000 A 
ATOM     28  C   UNL     1       5.894   3.898  16.043  0.00  0.00    +0.000 A 
ATOM     29  C   UNL     1       4.712   4.434  16.568  0.00  0.00    +0.000 A 
ENDBRANCH  19  24
ENDBRANCH  18  19
ENDBRANCH   3  18
TORSDOF 6
ENDMDL
MODEL 3
REMARK VINA RESULT:      -8.0      1.777      2.328
REMARK  Name = 
REMARK  8 active torsions:
REMARK  status: ('A' for Active; 'I' for Inactive)
REMARK    1  A    between atoms: C_1  and  O_2
REMARK    2  A    between atoms: O_2  and  C_3
REMARK    3  A    between atoms: C_6  and  C_7
REMARK    4  A    between atoms: C_9  and  N_10
REMARK    5  A    between atoms: C_11  and  C_13
REMARK    6  A    between atoms: N_15  and  C_16
REMARK    7  A    between atoms: C_16  and  C_17
REMARK    8  A    between atoms: C_17  and  C_18
REMARK                            x       y       z     vdW  Elec       q    Type
REMARK                         _______ _______ _______ _____ _____    ______ ____
ROOT
ATOM      1  C   UNL     1       3.305   7.455  18.365  0.00  0.00    +0.000 C 
ATOM      2  O   UNL     1       4.277   7.459  17.629  0.00  0.00    +0.000 OA
ATOM      3  N   UNL     1       3.032   6.530  19.379  0.00  0.00    +0.000 N 
ATOM      4  H   UNL     1       2.115   6.631  19.812  0.00  0.00    +0.000 HD
ENDROOT
BRANCH   1   6
ATOM      5  N   UNL     1       1.465   8.823  19.397  0.00  0.00    +0.000 N 
ATOM      6  C   UNL     1       2.192   8.536  18.241  0.00  0.00    +0.000 C 
ATOM      7  O   UNL     1       2.063   9.041  17.129  0.00  0.00    +0.000 OA
ATOM      8  H   UNL     1       1.702   8.310  20.244  0.00  0.00    +0.000 HD
BRANCH   5  15
ATOM      9  C   UNL     1       0.216  10.504  20.725  0.00  0.00    +0.000 A 
ATOM     10  C   UNL     1      -0.790  11.487  20.800  0.00  0.00    +0.000 A 
ATOM     11  C   UNL     1      -1.626  11.753  19.717  0.00  0.00    +0.000 A 
ATOM     12  C   UNL     1      -1.465  11.044  18.534  0.00  0.00    +0.000 A 
ATOM     13  C   UNL     1      -2.363  11.284  17.357  0.00  0.00    +0.000 C 
ATOM     14  C   UNL     1      -0.443  10.084  18.445  0.00  0.00    +0.000 A 
ATOM     15  C   UNL     1       0.421   9.798  19.515  0.00  0.00    +0.000 A 
BRANCH   9  17
ATOM     16  C   UNL     1       0.411   9.430  22.833  0.00  0.00    +0.000 C 
ATOM     17  O   UNL     1       1.031  10.198  21.795  0.00  0.00    +0.000 OA
ENDBRANCH   9  17
ENDBRANCH   5  15
ENDBRANCH   1   6
BRANCH   3  18
ATOM     18  C   UNL     1       3.818   5.329  19.654  0.00  0.00    +0.000 C 
BRANCH  18  19
ATOM     19  C   UNL     1       3.737   4.210  18.546  0.00  0.00    +0.000 C 
ATOM     20  C   UNL     1       3.873   2.800  19.195  0.00  0.00    +0.000 C 
ATOM     21  C   UNL     1       3.084   1.876  18.273  0.00  0.00    +0.000 C 
ATOM     22  C   UNL     1       1.834   2.688  17.991  0.00  0.00    +0.000 C 
ATOM     23  C   UNL     1       2.287   4.157  17.961  0.00  0.00    +0.000 C 
BRANCH  19  24
ATOM     24  C   UNL     1       4.858   4.334  17.484  0.00  0.00    +0.000 A 
ATOM     25  C   UNL     1       6.201   4.477  17.882  0.00  0.00    +0.000 A 
ATOM     26  C   UNL     1       7.233   4.606  16.948  0.00  0.00    +0.000 A 
ATOM     27  C   UNL     1       6.953   4.569  15.587  0.00  0.00    +0.000 A 
ATOM     28  C   UNL     1       5.644   4.377  15.163  0.00  0.00    +0.000 A 
ATOM     29  C   UNL     1       4.611   4.254  16.100  0.00  0.00    +0.000 A 
ENDBRANCH  19  24
ENDBRANCH  18  19
ENDBRANCH   3  18
TORSDOF 6
ENDMDL
MODEL 4
REMARK VINA RESULT:      -7.8      2.153      3.318
REMARK  Name = 
REMARK  8 active torsions:
REMARK  status: ('A' for Active; 'I' for Inactive)
REMARK    1  A    between atoms: C_1  and  O_2
REMARK    2  A    between atoms: O_2  and  C_3
REMARK    3  A    between atoms: C_6  and  C_7
REMARK    4  A    between atoms: C_9  and  N_10
REMARK    5  A    between atoms: C_11  and  C_13
REMARK    6  A    between atoms: N_15  and  C_16
REMARK    7  A    between atoms: C_16  and  C_17
REMARK    8  A    between atoms: C_17  and  C_18
REMARK                            x       y       z     vdW  Elec       q    Type
REMARK                         _______ _______ _______ _____ _____    ______ ____
ROOT
ATOM      1  C   UNL     1       1.577   9.775  18.136  0.00  0.00    +0.000 C 
ATOM      2  O   UNL     1       2.369  10.678  17.923  0.00  0.00    +0.000 OA
ATOM      3  N   UNL     1       1.838   8.403  18.058  0.00  0.00    +0.000 N 
ATOM      4  H   UNL     1       1.018   7.806  18.165  0.00  0.00    +0.000 HD
ENDROOT
BRANCH   1   6
ATOM      5  N   UNL     1      -0.659  10.800  17.616  0.00  0.00    +0.000 N 
ATOM      6  C   UNL     1       0.101  10.071  18.531  0.00  0.00    +0.000 C 
ATOM      7  O   UNL     1      -0.258   9.627  19.618  0.00  0.00    +0.000 OA
ATOM      8  H   UNL     1      -0.206  11.095  16.753  0.00  0.00    +0.000 HD
BRANCH   5  15
ATOM      9  C   UNL     1      -2.960  10.961  16.706  0.00  0.00    +0.000 A 
ATOM     10  C   UNL     1      -4.320  11.283  16.893  0.00  0.00    +0.000 A 
ATOM     11  C   UNL     1      -4.776  11.837  18.088  0.00  0.00    +0.000 A 
ATOM     12  C   UNL     1      -3.880  12.072  19.123  0.00  0.00    +0.000 A 
ATOM     13  C   UNL     1      -4.330  12.691  20.412  0.00  0.00    +0.000 C 
ATOM     14  C   UNL     1      -2.529  11.725  18.952  0.00  0.00    +0.000 A 
ATOM     15  C   UNL     1      -2.039  11.159  17.763  0.00  0.00    +0.000 A 
BRANCH   9  17
ATOM     16  C   UNL     1      -3.480  10.109  14.553  0.00  0.00    +0.000 C 
ATOM     17  O   UNL     1      -2.480  10.447  15.520  0.00  0.00    +0.000 OA
ENDBRANCH   9  17
ENDBRANCH   5  15
ENDBRANCH   1   6
BRANCH   3  18
ATOM     18  C   UNL     1       3.088   7.811  17.587  0.00  0.00    +0.000 C 
BRANCH  18  19
ATOM     19  C   UNL     1       3.334   6.321  18.038  0.00  0.00    +0.000 C 
ATOM     20  C   UNL     1       3.476   6.243  19.587  0.00  0.00    +0.000 C 
ATOM     21  C   UNL     1       2.975   4.849  19.949  0.00  0.00    +0.000 C 
ATOM     22  C   UNL     1       1.731   4.718  19.090  0.00  0.00    +0.000 C 
ATOM     23  C   UNL     1       2.037   5.481  17.791  0.00  0.00    +0.000 C 
BRANCH  19  24
ATOM     24  C   UNL     1       4.623   5.713  17.429  0.00  0.00    +0.000 A 
ATOM     25  C   UNL     1       4.553   4.550  16.638  0.00  0.00    +0.000 A 
ATOM     26  C   UNL     1       5.699   3.969  16.087  0.00  0.00    +0.000 A 
ATOM     27  C   UNL     1       6.945   4.551  16.291  0.00  0.00    +0.000 A 
ATOM     28  C   UNL     1       7.039   5.727  17.024  0.00  0.00    +0.000 A 
ATOM     29  C   UNL     1       5.891   6.304  17.579  0.00  0.00    +0.000 A 
ENDBRANCH  19  24
ENDBRANCH  18  19
ENDBRANCH   3  18
TORSDOF 6
ENDMDL
MODEL 5
REMARK VINA RESULT:      -7.8      1.154      2.639
REMARK  Name = 
REMARK  8 active torsions:
REMARK  status: ('A' for Active; 'I' for Inactive)
REMARK    1  A    between atoms: C_1  and  O_2
REMARK    2  A    between atoms: O_2  and  C_3
REMARK    3  A    between atoms: C_6  and  C_7
REMARK    4  A    between atoms: C_9  and  N_10
REMARK    5  A    between atoms: C_11  and  C_13
REMARK    6  A    between atoms: N_15  and  C_16
REMARK    7  A    between atoms: C_16  and  C_17
REMARK    8  A    between atoms: C_17  and  C_18
REMARK                            x       y       z     vdW  Elec       q    Type
REMARK                         _______ _______ _______ _____ _____    ______ ____
ROOT
ATOM      1  C   UNL     1       3.071   7.365  18.740  0.00  0.00    +0.000 C 
ATOM      2  O   UNL     1       3.773   7.565  17.763  0.00  0.00    +0.000 OA
ATOM      3  N   UNL     1       3.225   6.340  19.679  0.00  0.00    +0.000 N 
ATOM      4  H   UNL     1       2.472   6.272  20.364  0.00  0.00    +0.000 HD
ENDROOT
BRANCH   1   6
ATOM      5  N   UNL     1       1.426   9.135  18.045  0.00  0.00    +0.000 N 
ATOM      6  C   UNL     1       1.851   8.277  19.060  0.00  0.00    +0.000 C 
ATOM      7  O   UNL     1       1.372   8.149  20.183  0.00  0.00    +0.000 OA
ATOM      8  H   UNL     1       1.938   9.116  17.164  0.00  0.00    +0.000 HD
BRANCH   5  15
ATOM      9  C   UNL     1       0.469  11.349  18.618  0.00  0.00    +0.000 A 
ATOM     10  C   UNL     1      -0.633  12.228  18.634  0.00  0.00    +0.000 A 
ATOM     11  C   UNL     1      -1.894  11.818  18.203  0.00  0.00    +0.000 A 
ATOM     12  C   UNL     1      -2.074  10.521  17.739  0.00  0.00    +0.000 A 
ATOM     13  C   UNL     1      -3.421  10.037  17.292  0.00  0.00    +0.000 C 
ATOM     14  C   UNL     1      -0.971   9.651  17.693  0.00  0.00    +0.000 A 
ATOM     15  C   UNL     1       0.313  10.035  18.113  0.00  0.00    +0.000 A 
BRANCH   9  17
ATOM     16  C   UNL     1       2.244  12.919  18.496  0.00  0.00    +0.000 C 
ATOM     17  O   UNL     1       1.716  11.720  19.074  0.00  0.00    +0.000 OA
ENDBRANCH   9  17
ENDBRANCH   5  15
ENDBRANCH   1   6
BRANCH   3  18
ATOM     18  C   UNL     1       4.194   5.250  19.583  0.00  0.00    +0.000 C 
BRANCH  18  19
ATOM     19  C   UNL     1       3.938   4.230  18.409  0.00  0.00    +0.000 C 
ATOM     20  C   UNL     1       4.003   2.768  18.944  0.00  0.00    +0.000 C 
ATOM     21  C   UNL     1       3.074   1.981  18.026  0.00  0.00    +0.000 C 
ATOM     22  C   UNL     1       1.878   2.907  17.904  0.00  0.00    +0.000 C 
ATOM     23  C   UNL     1       2.449   4.334  17.942  0.00  0.00    +0.000 C 
BRANCH  19  24
ATOM     24  C   UNL     1       4.982   4.348  17.271  0.00  0.00    +0.000 A 
ATOM     25  C   UNL     1       4.566   4.364  15.926  0.00  0.00    +0.000 A 
ATOM     26  C   UNL     1       5.484   4.455  14.875  0.00  0.00    +0.000 A 
ATOM     27  C   UNL     1       6.845   4.558  15.143  0.00  0.00    +0.000 A 
ATOM     28  C   UNL     1       7.282   4.596  16.461  0.00  0.00    +0.000 A 
ATOM     29  C   UNL     1       6.361   4.499  17.511  0.00  0.00    +0.000 A 
ENDBRANCH  19  24
ENDBRANCH  18  19
ENDBRANCH   3  18
TORSDOF 6
ENDMDL
MODEL 6
REMARK VINA RESULT:      -7.8      5.315      7.213
REMARK  Name = 
REMARK  8 active torsions:
REMARK  status: ('A' for Active; 'I' for Inactive)
REMARK    1  A    between atoms: C_1  and  O_2
REMARK    2  A    between atoms: O_2  and  C_3
REMARK    3  A    between atoms: C_6  and  C_7
REMARK    4  A    between atoms: C_9  and  N_10
REMARK    5  A    between atoms: C_11  and  C_13
REMARK    6  A    between atoms: N_15  and  C_16
REMARK    7  A    between atoms: C_16  and  C_17
REMARK    8  A    between atoms: C_17  and  C_18
REMARK                            x       y       z     vdW  Elec       q    Type
REMARK                         _______ _______ _______ _____ _____    ______ ____
ROOT
ATOM      1  C   UNL     1       8.020   7.076  18.530  0.00  0.00    +0.000 C 
ATOM      2  O   UNL     1       8.485   6.488  19.492  0.00  0.00    +0.000 OA
ATOM      3  N   UNL     1       7.218   6.525  17.525  0.00  0.00    +0.000 N 
ATOM      4  H   UNL     1       7.019   7.152  16.746  0.00  0.00    +0.000 HD
ENDROOT
BRANCH   1   6
ATOM      5  N   UNL     1       9.145   9.220  19.209  0.00  0.00    +0.000 N 
ATOM      6  C   UNL     1       8.294   8.591  18.299  0.00  0.00    +0.000 C 
ATOM      7  O   UNL     1       7.734   9.090  17.328  0.00  0.00    +0.000 OA
ATOM      8  H   UNL     1       9.530   8.656  19.965  0.00  0.00    +0.000 HD
BRANCH   5  15
ATOM      9  C   UNL     1       9.398  11.432  20.300  0.00  0.00    +0.000 A 
ATOM     10  C   UNL     1       9.848  12.767  20.248  0.00  0.00    +0.000 A 
ATOM     11  C   UNL     1      10.404  13.300  19.087  0.00  0.00    +0.000 A 
ATOM     12  C   UNL     1      10.529  12.503  17.956  0.00  0.00    +0.000 A 
ATOM     13  C   UNL     1      11.099  13.050  16.681  0.00  0.00    +0.000 C 
ATOM     14  C   UNL     1      10.111  11.163  18.013  0.00  0.00    +0.000 A 
ATOM     15  C   UNL     1       9.553  10.594  19.170  0.00  0.00    +0.000 A 
BRANCH   9  17
ATOM     16  C   UNL     1       8.298  11.849  22.361  0.00  0.00    +0.000 C 
ATOM     17  O   UNL     1       8.811  10.894  21.426  0.00  0.00    +0.000 OA
ENDBRANCH   9  17
ENDBRANCH   5  15
ENDBRANCH   1   6
BRANCH   3  18
ATOM     18  C   UNL     1       6.895   5.106  17.391  0.00  0.00    +0.000 C 
BRANCH  18  19
ATOM     19  C   UNL     1       5.766   4.773  16.343  0.00  0.00    +0.000 C 
ATOM     20  C   UNL     1       5.688   5.893  15.263  0.00  0.00    +0.000 C 
ATOM     21  C   UNL     1       5.184   5.184  14.010  0.00  0.00    +0.000 C 
ATOM     22  C   UNL     1       6.000   3.905  14.011  0.00  0.00    +0.000 C 
ATOM     23  C   UNL     1       6.194   3.534  15.490  0.00  0.00    +0.000 C 
BRANCH  19  24
ATOM     24  C   UNL     1       4.361   4.661  16.987  0.00  0.00    +0.000 A 
ATOM     25  C   UNL     1       3.741   5.797  17.540  0.00  0.00    +0.000 A 
ATOM     26  C   UNL     1       2.481   5.725  18.141  0.00  0.00    +0.000 A 
ATOM     27  C   UNL     1       1.794   4.518  18.182  0.00  0.00    +0.000 A 
ATOM     28  C   UNL     1       2.357   3.390  17.599  0.00  0.00    +0.000 A 
ATOM     29  C   UNL     1       3.622   3.463  17.003  0.00  0.00    +0.000 A 
ENDBRANCH  19  24
ENDBRANCH  18  19
ENDBRANCH   3  18
TORSDOF 6
ENDMDL
MODEL 7
REMARK VINA RESULT:      -7.8      1.050      2.117
REMARK  Name = 
REMARK  8 active torsions:
REMARK  status: ('A' for Active; 'I' for Inactive)
REMARK    1  A    between atoms: C_1  and  O_2
REMARK    2  A    between atoms: O_2  and  C_3
REMARK    3  A    between atoms: C_6  and  C_7
REMARK    4  A    between atoms: C_9  and  N_10
REMARK    5  A    between atoms: C_11  and  C_13
REMARK    6  A    between atoms: N_15  and  C_16
REMARK    7  A    between atoms: C_16  and  C_17
REMARK    8  A    between atoms: C_17  and  C_18
REMARK                            x       y       z     vdW  Elec       q    Type
REMARK                         _______ _______ _______ _____ _____    ______ ____
ROOT
ATOM      1  C   UNL     1       2.146   7.293  19.801  0.00  0.00    +0.000 C 
ATOM      2  O   UNL     1       1.846   7.071  20.962  0.00  0.00    +0.000 OA
ATOM      3  N   UNL     1       3.013   6.535  19.006  0.00  0.00    +0.000 N 
ATOM      4  H   UNL     1       3.223   6.943  18.095  0.00  0.00    +0.000 HD
ENDROOT
BRANCH   1   6
ATOM      5  N   UNL     1       0.652   9.314  19.727  0.00  0.00    +0.000 N 
ATOM      6  C   UNL     1       1.570   8.520  19.037  0.00  0.00    +0.000 C 
ATOM      7  O   UNL     1       1.985   8.676  17.893  0.00  0.00    +0.000 OA
ATOM      8  H   UNL     1       0.414   9.043  20.679  0.00  0.00    +0.000 HD
BRANCH   5  15
ATOM      9  C   UNL     1       0.492  11.784  19.593  0.00  0.00    +0.000 A 
ATOM     10  C   UNL     1      -0.120  12.934  19.053  0.00  0.00    +0.000 A 
ATOM     11  C   UNL     1      -1.214  12.837  18.195  0.00  0.00    +0.000 A 
ATOM     12  C   UNL     1      -1.712  11.587  17.855  0.00  0.00    +0.000 A 
ATOM     13  C   UNL     1      -2.904  11.445  16.955  0.00  0.00    +0.000 C 
ATOM     14  C   UNL     1      -1.087  10.437  18.366  0.00  0.00    +0.000 A 
ATOM     15  C   UNL     1       0.022  10.500  19.227  0.00  0.00    +0.000 A 
BRANCH   9  17
ATOM     16  C   UNL     1       2.124  13.159  20.632  0.00  0.00    +0.000 C 
ATOM     17  O   UNL     1       1.551  11.856  20.473  0.00  0.00    +0.000 OA
ENDBRANCH   9  17
ENDBRANCH   5  15
ENDBRANCH   1   6
BRANCH   3  18
ATOM     18  C   UNL     1       3.809   5.403  19.475  0.00  0.00    +0.000 C 
BRANCH  18  19
ATOM     19  C   UNL     1       3.887   4.183  18.480  0.00  0.00    +0.000 C 
ATOM     20  C   UNL     1       4.148   2.863  19.266  0.00  0.00    +0.000 C 
ATOM     21  C   UNL     1       3.494   1.776  18.419  0.00  0.00    +0.000 C 
ATOM     22  C   UNL     1       2.176   2.417  18.030  0.00  0.00    +0.000 C 
ATOM     23  C   UNL     1       2.472   3.917  17.868  0.00  0.00    +0.000 C 
BRANCH  19  24
ATOM     24  C   UNL     1       5.024   4.327  17.438  0.00  0.00    +0.000 A 
ATOM     25  C   UNL     1       6.355   4.508  17.861  0.00  0.00    +0.000 A 
ATOM     26  C   UNL     1       7.401   4.656  16.945  0.00  0.00    +0.000 A 
ATOM     27  C   UNL     1       7.148   4.602  15.579  0.00  0.00    +0.000 A 
ATOM     28  C   UNL     1       5.853   4.374  15.132  0.00  0.00    +0.000 A 
ATOM     29  C   UNL     1       4.806   4.231  16.050  0.00  0.00    +0.000 A 
ENDBRANCH  19  24
ENDBRANCH  18  19
ENDBRANCH   3  18
TORSDOF 6
ENDMDL
MODEL 8
REMARK VINA RESULT:      -7.6      1.752      3.479
REMARK  Name = 
REMARK  8 active torsions:
REMARK  status: ('A' for Active; 'I' for Inactive)
REMARK    1  A    between atoms: C_1  and  O_2
REMARK    2  A    between atoms: O_2  and  C_3
REMARK    3  A    between atoms: C_6  and  C_7
REMARK    4  A    between atoms: C_9  and  N_10
REMARK    5  A    between atoms: C_11  and  C_13
REMARK    6  A    between atoms: N_15  and  C_16
REMARK    7  A    between atoms: C_16  and  C_17
REMARK    8  A    between atoms: C_17  and  C_18
REMARK                            x       y       z     vdW  Elec       q    Type
REMARK                         _______ _______ _______ _____ _____    ______ ____
ROOT
ATOM      1  C   UNL     1       3.150   7.168  18.740  0.00  0.00    +0.000 C 
ATOM      2  O   UNL     1       2.936   6.339  19.608  0.00  0.00    +0.000 OA
ATOM      3  N   UNL     1       4.270   7.227  17.904  0.00  0.00    +0.000 N 
ATOM      4  H   UNL     1       4.319   8.059  17.316  0.00  0.00    +0.000 HD
ENDROOT
BRANCH   1   6
ATOM      5  N   UNL     1       1.338   8.724  19.526  0.00  0.00    +0.000 N 
ATOM      6  C   UNL     1       2.146   8.323  18.461  0.00  0.00    +0.000 C 
ATOM      7  O   UNL     1       2.164   8.779  17.321  0.00  0.00    +0.000 OA
ATOM      8  H   UNL     1       1.451   8.238  20.414  0.00  0.00    +0.000 HD
BRANCH   5  15
ATOM      9  C   UNL     1       0.171  10.616  20.623  0.00  0.00    +0.000 A 
ATOM     10  C   UNL     1      -0.758  11.675  20.554  0.00  0.00    +0.000 A 
ATOM     11  C   UNL     1      -1.524  11.893  19.410  0.00  0.00    +0.000 A 
ATOM     12  C   UNL     1      -1.369  11.060  18.310  0.00  0.00    +0.000 A 
ATOM     13  C   UNL     1      -2.195  11.248  17.072  0.00  0.00    +0.000 C 
ATOM     14  C   UNL     1      -0.423  10.022  18.364  0.00  0.00    +0.000 A 
ATOM     15  C   UNL     1       0.369   9.780  19.498  0.00  0.00    +0.000 A 
BRANCH   9  17
ATOM     16  C   UNL     1       0.207   9.689  22.808  0.00  0.00    +0.000 C 
ATOM     17  O   UNL     1       0.913  10.359  21.757  0.00  0.00    +0.000 OA
ENDBRANCH   9  17
ENDBRANCH   5  15
ENDBRANCH   1   6
BRANCH   3  18
ATOM     18  C   UNL     1       5.444   6.363  18.009  0.00  0.00    +0.000 C 
BRANCH  18  19
ATOM     19  C   UNL     1       5.404   5.070  17.109  0.00  0.00    +0.000 C 
ATOM     20  C   UNL     1       4.902   5.425  15.678  0.00  0.00    +0.000 C 
ATOM     21  C   UNL     1       5.571   4.399  14.770  0.00  0.00    +0.000 C 
ATOM     22  C   UNL     1       6.989   4.364  15.310  0.00  0.00    +0.000 C 
ATOM     23  C   UNL     1       6.865   4.586  16.826  0.00  0.00    +0.000 C 
BRANCH  19  24
ATOM     24  C   UNL     1       4.459   3.976  17.668  0.00  0.00    +0.000 A 
ATOM     25  C   UNL     1       4.776   3.310  18.867  0.00  0.00    +0.000 A 
ATOM     26  C   UNL     1       3.951   2.309  19.389  0.00  0.00    +0.000 A 
ATOM     27  C   UNL     1       2.772   1.965  18.739  0.00  0.00    +0.000 A 
ATOM     28  C   UNL     1       2.406   2.641  17.581  0.00  0.00    +0.000 A 
ATOM     29  C   UNL     1       3.236   3.639  17.057  0.00  0.00    +0.000 A 
ENDBRANCH  19  24
ENDBRANCH  18  19
ENDBRANCH   3  18
TORSDOF 6
ENDMDL
MODEL 9
REMARK VINA RESULT:      -7.5      1.548      2.459
REMARK  Name = 
REMARK  8 active torsions:
REMARK  status: ('A' for Active; 'I' for Inactive)
REMARK    1  A    between atoms: C_1  and  O_2
REMARK    2  A    between atoms: O_2  and  C_3
REMARK    3  A    between atoms: C_6  and  C_7
REMARK    4  A    between atoms: C_9  and  N_10
REMARK    5  A    between atoms: C_11  and  C_13
REMARK    6  A    between atoms: N_15  and  C_16
REMARK    7  A    between atoms: C_16  and  C_17
REMARK    8  A    between atoms: C_17  and  C_18
REMARK                            x       y       z     vdW  Elec       q    Type
REMARK                         _______ _______ _______ _____ _____    ______ ____
ROOT
ATOM      1  C   UNL     1       2.928   7.692  18.473  0.00  0.00    +0.000 C 
ATOM      2  O   UNL     1       3.977   7.631  17.855  0.00  0.00    +0.000 OA
ATOM      3  N   UNL     1       2.513   6.832  19.496  0.00  0.00    +0.000 N 
ATOM      4  H   UNL     1       1.556   6.980  19.815  0.00  0.00    +0.000 HD
ENDROOT
BRANCH   1   6
ATOM      5  N   UNL     1       0.997   9.128  19.200  0.00  0.00    +0.000 N 
ATOM      6  C   UNL     1       1.871   8.793  18.166  0.00  0.00    +0.000 C 
ATOM      7  O   UNL     1       1.911   9.267  17.034  0.00  0.00    +0.000 OA
ATOM      8  H   UNL     1       1.099   8.635  20.085  0.00  0.00    +0.000 HD
BRANCH   5  15
ATOM      9  C   UNL     1       0.108  11.353  19.841  0.00  0.00    +0.000 A 
ATOM     10  C   UNL     1      -0.898  12.335  19.733  0.00  0.00    +0.000 A 
ATOM     11  C   UNL     1      -2.054  12.110  18.989  0.00  0.00    +0.000 A 
ATOM     12  C   UNL     1      -2.224  10.900  18.330  0.00  0.00    +0.000 A 
ATOM     13  C   UNL     1      -3.467  10.613  17.542  0.00  0.00    +0.000 C 
ATOM     14  C   UNL     1      -1.210   9.929  18.409  0.00  0.00    +0.000 A 
ATOM     15  C   UNL     1      -0.030  10.127  19.145  0.00  0.00    +0.000 A 
BRANCH   9  17
ATOM     16  C   UNL     1       1.753  12.876  20.618  0.00  0.00    +0.000 C 
ATOM     17  O   UNL     1       1.243  11.538  20.600  0.00  0.00    +0.000 OA
ENDBRANCH   9  17
ENDBRANCH   5  15
ENDBRANCH   1   6
BRANCH   3  18
ATOM     18  C   UNL     1       3.224   5.629  19.921  0.00  0.00    +0.000 C 
BRANCH  18  19
ATOM     19  C   UNL     1       3.186   4.432  18.896  0.00  0.00    +0.000 C 
ATOM     20  C   UNL     1       3.170   3.073  19.656  0.00  0.00    +0.000 C 
ATOM     21  C   UNL     1       2.423   2.122  18.727  0.00  0.00    +0.000 C 
ATOM     22  C   UNL     1       1.258   2.975  18.259  0.00  0.00    +0.000 C 
ATOM     23  C   UNL     1       1.801   4.411  18.169  0.00  0.00    +0.000 C 
BRANCH  19  24
ATOM     24  C   UNL     1       4.413   4.412  17.949  0.00  0.00    +0.000 A 
ATOM     25  C   UNL     1       5.710   4.597  18.465  0.00  0.00    +0.000 A 
ATOM     26  C   UNL     1       6.835   4.598  17.635  0.00  0.00    +0.000 A 
ATOM     27  C   UNL     1       6.696   4.390  16.267  0.00  0.00    +0.000 A 
ATOM     28  C   UNL     1       5.434   4.154  15.736  0.00  0.00    +0.000 A 
ATOM     29  C   UNL     1       4.308   4.158  16.568  0.00  0.00    +0.000 A 
ENDBRANCH  19  24
ENDBRANCH  18  19
ENDBRANCH   3  18
TORSDOF 6
ENDMDL
