MODEL 1
REMARK VINA RESULT:      -7.1      0.000      0.000
REMARK  Name = 
REMARK  7 active torsions:
REMARK  status: ('A' for Active; 'I' for Inactive)
REMARK    1  A    between atoms: C_1  and  O_2
REMARK    2  A    between atoms: O_2  and  C_3
REMARK    3  A    between atoms: C_6  and  C_7
REMARK    4  A    between atoms: C_7  and  N_8
REMARK    5  A    between atoms: C_12  and  C_13
REMARK    6  A    between atoms: C_18  and  S_19
REMARK    7  A    between atoms: S_19  and  C_20
REMARK                            x       y       z     vdW  Elec       q    Type
REMARK                         _______ _______ _______ _____ _____    ______ ____
ROOT
ATOM      1  C   UNL     1       0.748   8.837  20.610  0.00  0.00    +0.000 A 
ATOM      2  C   UNL     1       1.383   7.616  20.877  0.00  0.00    +0.000 A 
ATOM      3  C   UNL     1       2.236   7.027  19.939  0.00  0.00    +0.000 A 
ATOM      4  C   UNL     1       2.476   7.638  18.703  0.00  0.00    +0.000 A 
ATOM      5  C   UNL     1       1.908   8.910  18.483  0.00  0.00    +0.000 A 
ATOM      6  C   UNL     1       1.053   9.527  19.424  0.00  0.00    +0.000 A 
ENDROOT
BRANCH   1   8
ATOM      7  C   UNL     1       0.178   9.550  22.807  0.00  0.00    +0.000 C 
ATOM      8  O   UNL     1      -0.193   9.389  21.442  0.00  0.00    +0.000 OA
ENDBRANCH   1   8
BRANCH   4   9
ATOM      9  C   UNL     1       3.379   7.015  17.638  0.00  0.00    +0.000 C 
BRANCH   9  10
ATOM     10  N   UNL     1       4.251   5.934  18.125  0.00  0.00    +0.000 NA
ATOM     11  C   UNL     1       4.036   4.637  17.457  0.00  0.00    +0.000 C 
ATOM     12  C   UNL     1       4.629   4.478  16.041  0.00  0.00    +0.000 C 
ATOM     13  N   UNL     1       5.985   5.003  15.879  0.00  0.00    +0.000 N 
ATOM     14  C   UNL     1       6.753   4.783  14.734  0.00  0.00    +0.000 C 
ATOM     15  C   UNL     1       6.272   3.781  13.717  0.00  0.00    +0.000 C 
ATOM     16  O   UNL     1       7.819   5.375  14.546  0.00  0.00    +0.000 OA
ATOM     17  C   UNL     1       6.323   6.201  16.649  0.00  0.00    +0.000 C 
ATOM     18  C   UNL     1       5.682   6.276  18.045  0.00  0.00    +0.000 C 
ENDBRANCH   9  10
ENDBRANCH   4   9
BRANCH   6  19
ATOM     19  S   UNL     1       0.228  11.022  18.873  0.00  0.00    +0.000 S 
BRANCH  19  20
ATOM     20  C   UNL     1      -1.254  10.466  18.005  0.00  0.00    +0.000 C 
ATOM     21  F   UNL     1      -2.228   9.928  18.767  0.00  0.00    +0.000 F 
ATOM     22  F   UNL     1      -1.818  11.494  17.318  0.00  0.00    +0.000 F 
ATOM     23  F   UNL     1      -0.913   9.534  17.075  0.00  0.00    +0.000 F 
ENDBRANCH  19  20
ENDBRANCH   6  19
TORSDOF 5
ENDMDL
MODEL 2
REMARK VINA RESULT:      -7.0      3.556      4.471
REMARK  Name = 
REMARK  7 active torsions:
REMARK  status: ('A' for Active; 'I' for Inactive)
REMARK    1  A    between atoms: C_1  and  O_2
REMARK    2  A    between atoms: O_2  and  C_3
REMARK    3  A    between atoms: C_6  and  C_7
REMARK    4  A    between atoms: C_7  and  N_8
REMARK    5  A    between atoms: C_12  and  C_13
REMARK    6  A    between atoms: C_18  and  S_19
REMARK    7  A    between atoms: S_19  and  C_20
REMARK                            x       y       z     vdW  Elec       q    Type
REMARK                         _______ _______ _______ _____ _____    ______ ____
ROOT
ATOM      1  C   UNL     1       2.055   6.982  19.785  0.00  0.00    +0.000 A 
ATOM      2  C   UNL     1       2.230   7.960  18.796  0.00  0.00    +0.000 A 
ATOM      3  C   UNL     1       3.151   7.782  17.760  0.00  0.00    +0.000 A 
ATOM      4  C   UNL     1       3.929   6.620  17.682  0.00  0.00    +0.000 A 
ATOM      5  C   UNL     1       3.678   5.604  18.626  0.00  0.00    +0.000 A 
ATOM      6  C   UNL     1       2.743   5.761  19.674  0.00  0.00    +0.000 A 
ENDROOT
BRANCH   1   8
ATOM      7  C   UNL     1       1.207   8.484  21.423  0.00  0.00    +0.000 C 
ATOM      8  O   UNL     1       1.261   7.165  20.888  0.00  0.00    +0.000 OA
ENDBRANCH   1   8
BRANCH   4   9
ATOM      9  C   UNL     1       4.967   6.396  16.582  0.00  0.00    +0.000 C 
BRANCH   9  10
ATOM     10  N   UNL     1       5.724   5.139  16.697  0.00  0.00    +0.000 NA
ATOM     11  C   UNL     1       5.006   3.953  16.194  0.00  0.00    +0.000 C 
ATOM     12  C   UNL     1       4.945   3.777  14.661  0.00  0.00    +0.000 C 
ATOM     13  N   UNL     1       6.202   4.043  13.961  0.00  0.00    +0.000 N 
ATOM     14  C   UNL     1       6.392   3.756  12.608  0.00  0.00    +0.000 C 
ATOM     15  C   UNL     1       5.357   2.932  11.887  0.00  0.00    +0.000 C 
ATOM     16  O   UNL     1       7.392   4.145  11.998  0.00  0.00    +0.000 OA
ATOM     17  C   UNL     1       7.050   5.102  14.510  0.00  0.00    +0.000 C 
ATOM     18  C   UNL     1       7.044   5.207  16.044  0.00  0.00    +0.000 C 
ENDBRANCH   9  10
ENDBRANCH   4   9
BRANCH   6  19
ATOM     19  S   UNL     1       2.735   4.469  20.920  0.00  0.00    +0.000 S 
BRANCH  19  20
ATOM     20  C   UNL     1       1.561   3.232  20.329  0.00  0.00    +0.000 C 
ATOM     21  F   UNL     1       0.690   3.638  19.382  0.00  0.00    +0.000 F 
ATOM     22  F   UNL     1       2.218   2.155  19.821  0.00  0.00    +0.000 F 
ATOM     23  F   UNL     1       0.826   2.766  21.374  0.00  0.00    +0.000 F 
ENDBRANCH  19  20
ENDBRANCH   6  19
TORSDOF 5
ENDMDL
MODEL 3
REMARK VINA RESULT:      -7.0      1.122      1.476
REMARK  Name = 
REMARK  7 active torsions:
REMARK  status: ('A' for Active; 'I' for Inactive)
REMARK    1  A    between atoms: C_1  and  O_2
REMARK    2  A    between atoms: O_2  and  C_3
REMARK    3  A    between atoms: C_6  and  C_7
REMARK    4  A    between atoms: C_7  and  N_8
REMARK    5  A    between atoms: C_12  and  C_13
REMARK    6  A    between atoms: C_18  and  S_19
REMARK    7  A    between atoms: S_19  and  C_20
REMARK                            x       y       z     vdW  Elec       q    Type
REMARK                         _______ _______ _______ _____ _____    ______ ____
ROOT
ATOM      1  C   UNL     1       0.386   9.525  20.916  0.00  0.00    +0.000 A 
ATOM      2  C   UNL     1       0.878   8.285  21.344  0.00  0.00    +0.000 A 
ATOM      3  C   UNL     1       1.686   7.503  20.512  0.00  0.00    +0.000 A 
ATOM      4  C   UNL     1       2.024   7.937  19.225  0.00  0.00    +0.000 A 
ATOM      5  C   UNL     1       1.602   9.226  18.840  0.00  0.00    +0.000 A 
ATOM      6  C   UNL     1       0.795  10.035  19.671  0.00  0.00    +0.000 A 
ENDROOT
BRANCH   1   8
ATOM      7  C   UNL     1      -0.587   9.989  23.036  0.00  0.00    +0.000 C 
ATOM      8  O   UNL     1      -0.511  10.267  21.641  0.00  0.00    +0.000 OA
ENDBRANCH   1   8
BRANCH   4   9
ATOM      9  C   UNL     1       2.881   7.103  18.273  0.00  0.00    +0.000 C 
BRANCH   9  10
ATOM     10  N   UNL     1       3.188   5.745  18.751  0.00  0.00    +0.000 NA
ATOM     11  C   UNL     1       3.008   4.691  17.734  0.00  0.00    +0.000 C 
ATOM     12  C   UNL     1       4.113   4.565  16.662  0.00  0.00    +0.000 C 
ATOM     13  N   UNL     1       5.480   4.659  17.174  0.00  0.00    +0.000 N 
ATOM     14  C   UNL     1       6.604   4.381  16.393  0.00  0.00    +0.000 C 
ATOM     15  C   UNL     1       6.410   3.739  15.044  0.00  0.00    +0.000 C 
ATOM     16  O   UNL     1       7.745   4.632  16.788  0.00  0.00    +0.000 OA
ATOM     17  C   UNL     1       5.700   5.566  18.302  0.00  0.00    +0.000 C 
ATOM     18  C   UNL     1       4.545   5.632  19.315  0.00  0.00    +0.000 C 
ENDBRANCH   9  10
ENDBRANCH   4   9
BRANCH   6  19
ATOM     19  S   UNL     1       0.151  11.534  18.922  0.00  0.00    +0.000 S 
BRANCH  19  20
ATOM     20  C   UNL     1      -1.507  11.114  18.345  0.00  0.00    +0.000 C 
ATOM     21  F   UNL     1      -1.875  11.629  17.154  0.00  0.00    +0.000 F 
ATOM     22  F   UNL     1      -1.651   9.765  18.249  0.00  0.00    +0.000 F 
ATOM     23  F   UNL     1      -2.425  11.527  19.260  0.00  0.00    +0.000 F 
ENDBRANCH  19  20
ENDBRANCH   6  19
TORSDOF 5
ENDMDL
MODEL 4
REMARK VINA RESULT:      -6.9      3.497      4.282
REMARK  Name = 
REMARK  7 active torsions:
REMARK  status: ('A' for Active; 'I' for Inactive)
REMARK    1  A    between atoms: C_1  and  O_2
REMARK    2  A    between atoms: O_2  and  C_3
REMARK    3  A    between atoms: C_6  and  C_7
REMARK    4  A    between atoms: C_7  and  N_8
REMARK    5  A    between atoms: C_12  and  C_13
REMARK    6  A    between atoms: C_18  and  S_19
REMARK    7  A    between atoms: S_19  and  C_20
REMARK                            x       y       z     vdW  Elec       q    Type
REMARK                         _______ _______ _______ _____ _____    ______ ____
ROOT
ATOM      1  C   UNL     1       1.828   7.103  20.148  0.00  0.00    +0.000 A 
ATOM      2  C   UNL     1       1.975   8.082  19.156  0.00  0.00    +0.000 A 
ATOM      3  C   UNL     1       2.804   7.869  18.049  0.00  0.00    +0.000 A 
ATOM      4  C   UNL     1       3.512   6.671  17.903  0.00  0.00    +0.000 A 
ATOM      5  C   UNL     1       3.283   5.657  18.856  0.00  0.00    +0.000 A 
ATOM      6  C   UNL     1       2.441   5.850  19.974  0.00  0.00    +0.000 A 
ENDROOT
BRANCH   1   8
ATOM      7  C   UNL     1       0.707   8.648  21.567  0.00  0.00    +0.000 C 
ATOM      8  O   UNL     1       1.131   7.313  21.310  0.00  0.00    +0.000 OA
ENDBRANCH   1   8
BRANCH   4   9
ATOM      9  C   UNL     1       4.449   6.408  16.724  0.00  0.00    +0.000 C 
BRANCH   9  10
ATOM     10  N   UNL     1       5.319   5.231  16.880  0.00  0.00    +0.000 NA
ATOM     11  C   UNL     1       5.078   4.165  15.889  0.00  0.00    +0.000 C 
ATOM     12  C   UNL     1       5.643   4.395  14.471  0.00  0.00    +0.000 C 
ATOM     13  N   UNL     1       7.001   4.938  14.430  0.00  0.00    +0.000 N 
ATOM     14  C   UNL     1       7.745   5.034  13.252  0.00  0.00    +0.000 C 
ATOM     15  C   UNL     1       7.234   4.349  12.011  0.00  0.00    +0.000 C 
ATOM     16  O   UNL     1       8.813   5.650  13.210  0.00  0.00    +0.000 OA
ATOM     17  C   UNL     1       7.366   5.879  15.490  0.00  0.00    +0.000 C 
ATOM     18  C   UNL     1       6.752   5.575  16.866  0.00  0.00    +0.000 C 
ENDBRANCH   9  10
ENDBRANCH   4   9
BRANCH   6  19
ATOM     19  S   UNL     1       2.463   4.546  21.207  0.00  0.00    +0.000 S 
BRANCH  19  20
ATOM     20  C   UNL     1       1.312   3.291  20.607  0.00  0.00    +0.000 C 
ATOM     21  F   UNL     1       1.813   2.384  19.743  0.00  0.00    +0.000 F 
ATOM     22  F   UNL     1       0.785   2.592  21.647  0.00  0.00    +0.000 F 
ATOM     23  F   UNL     1       0.263   3.896  19.989  0.00  0.00    +0.000 F 
ENDBRANCH  19  20
ENDBRANCH   6  19
TORSDOF 5
ENDMDL
MODEL 5
REMARK VINA RESULT:      -6.8      0.560      1.010
REMARK  Name = 
REMARK  7 active torsions:
REMARK  status: ('A' for Active; 'I' for Inactive)
REMARK    1  A    between atoms: C_1  and  O_2
REMARK    2  A    between atoms: O_2  and  C_3
REMARK    3  A    between atoms: C_6  and  C_7
REMARK    4  A    between atoms: C_7  and  N_8
REMARK    5  A    between atoms: C_12  and  C_13
REMARK    6  A    between atoms: C_18  and  S_19
REMARK    7  A    between atoms: S_19  and  C_20
REMARK                            x       y       z     vdW  Elec       q    Type
REMARK                         _______ _______ _______ _____ _____    ______ ____
ROOT
ATOM      1  C   UNL     1       0.902   9.158  20.766  0.00  0.00    +0.000 A 
ATOM      2  C   UNL     1       1.346   7.865  21.075  0.00  0.00    +0.000 A 
ATOM      3  C   UNL     1       2.034   7.094  20.132  0.00  0.00    +0.000 A 
ATOM      4  C   UNL     1       2.295   7.592  18.851  0.00  0.00    +0.000 A 
ATOM      5  C   UNL     1       1.928   8.927  18.583  0.00  0.00    +0.000 A 
ATOM      6  C   UNL     1       1.243   9.725  19.526  0.00  0.00    +0.000 A 
ENDROOT
BRANCH   1   8
ATOM      7  C   UNL     1      -0.147   9.344  22.893  0.00  0.00    +0.000 C 
ATOM      8  O   UNL     1       0.115   9.901  21.609  0.00  0.00    +0.000 OA
ENDBRANCH   1   8
BRANCH   4   9
ATOM      9  C   UNL     1       3.020   6.775  17.781  0.00  0.00    +0.000 C 
BRANCH   9  10
ATOM     10  N   UNL     1       4.029   5.838  18.301  0.00  0.00    +0.000 NA
ATOM     11  C   UNL     1       3.975   4.494  17.695  0.00  0.00    +0.000 C 
ATOM     12  C   UNL     1       4.568   4.348  16.277  0.00  0.00    +0.000 C 
ATOM     13  N   UNL     1       5.844   5.034  16.069  0.00  0.00    +0.000 N 
ATOM     14  C   UNL     1       6.621   4.862  14.923  0.00  0.00    +0.000 C 
ATOM     15  C   UNL     1       6.261   3.761  13.959  0.00  0.00    +0.000 C 
ATOM     16  O   UNL     1       7.600   5.577  14.691  0.00  0.00    +0.000 OA
ATOM     17  C   UNL     1       6.033   6.300  16.780  0.00  0.00    +0.000 C 
ATOM     18  C   UNL     1       5.403   6.356  18.182  0.00  0.00    +0.000 C 
ENDBRANCH   9  10
ENDBRANCH   4   9
BRANCH   6  19
ATOM     19  S   UNL     1       0.639  11.306  18.927  0.00  0.00    +0.000 S 
BRANCH  19  20
ATOM     20  C   UNL     1      -1.120  11.062  18.605  0.00  0.00    +0.000 C 
ATOM     21  F   UNL     1      -1.654  11.800  17.610  0.00  0.00    +0.000 F 
ATOM     22  F   UNL     1      -1.375   9.760  18.306  0.00  0.00    +0.000 F 
ATOM     23  F   UNL     1      -1.831  11.336  19.732  0.00  0.00    +0.000 F 
ENDBRANCH  19  20
ENDBRANCH   6  19
TORSDOF 5
ENDMDL
MODEL 6
REMARK VINA RESULT:      -6.6      1.615      1.787
REMARK  Name = 
REMARK  7 active torsions:
REMARK  status: ('A' for Active; 'I' for Inactive)
REMARK    1  A    between atoms: C_1  and  O_2
REMARK    2  A    between atoms: O_2  and  C_3
REMARK    3  A    between atoms: C_6  and  C_7
REMARK    4  A    between atoms: C_7  and  N_8
REMARK    5  A    between atoms: C_12  and  C_13
REMARK    6  A    between atoms: C_18  and  S_19
REMARK    7  A    between atoms: S_19  and  C_20
REMARK                            x       y       z     vdW  Elec       q    Type
REMARK                         _______ _______ _______ _____ _____    ______ ____
ROOT
ATOM      1  C   UNL     1       0.758   8.610  20.602  0.00  0.00    +0.000 A 
ATOM      2  C   UNL     1       1.456   7.422  20.857  0.00  0.00    +0.000 A 
ATOM      3  C   UNL     1       2.343   6.890  19.915  0.00  0.00    +0.000 A 
ATOM      4  C   UNL     1       2.556   7.529  18.688  0.00  0.00    +0.000 A 
ATOM      5  C   UNL     1       1.921   8.771  18.481  0.00  0.00    +0.000 A 
ATOM      6  C   UNL     1       1.031   9.330  19.425  0.00  0.00    +0.000 A 
ENDROOT
BRANCH   1   8
ATOM      7  C   UNL     1       0.232   9.780  22.605  0.00  0.00    +0.000 C 
ATOM      8  O   UNL     1      -0.214   9.102  21.435  0.00  0.00    +0.000 OA
ENDBRANCH   1   8
BRANCH   4   9
ATOM      9  C   UNL     1       3.495   6.968  17.620  0.00  0.00    +0.000 C 
BRANCH   9  10
ATOM     10  N   UNL     1       4.326   5.837  18.063  0.00  0.00    +0.000 NA
ATOM     11  C   UNL     1       4.080   4.582  17.329  0.00  0.00    +0.000 C 
ATOM     12  C   UNL     1       4.687   4.475  15.913  0.00  0.00    +0.000 C 
ATOM     13  N   UNL     1       6.061   4.964  15.795  0.00  0.00    +0.000 N 
ATOM     14  C   UNL     1       6.838   4.778  14.650  0.00  0.00    +0.000 C 
ATOM     15  C   UNL     1       6.339   3.843  13.578  0.00  0.00    +0.000 C 
ATOM     16  O   UNL     1       7.924   5.344  14.505  0.00  0.00    +0.000 OA
ATOM     17  C   UNL     1       6.426   6.111  16.628  0.00  0.00    +0.000 C 
ATOM     18  C   UNL     1       5.768   6.137  18.018  0.00  0.00    +0.000 C 
ENDBRANCH   9  10
ENDBRANCH   4   9
BRANCH   6  19
ATOM     19  S   UNL     1       0.130  10.786  18.888  0.00  0.00    +0.000 S 
BRANCH  19  20
ATOM     20  C   UNL     1       1.277  12.166  19.082  0.00  0.00    +0.000 C 
ATOM     21  F   UNL     1       1.759  12.374  20.324  0.00  0.00    +0.000 F 
ATOM     22  F   UNL     1       2.353  12.009  18.266  0.00  0.00    +0.000 F 
ATOM     23  F   UNL     1       0.672  13.319  18.690  0.00  0.00    +0.000 F 
ENDBRANCH  19  20
ENDBRANCH   6  19
TORSDOF 5
ENDMDL
MODEL 7
REMARK VINA RESULT:      -6.6      4.169      8.086
REMARK  Name = 
REMARK  7 active torsions:
REMARK  status: ('A' for Active; 'I' for Inactive)
REMARK    1  A    between atoms: C_1  and  O_2
REMARK    2  A    between atoms: O_2  and  C_3
REMARK    3  A    between atoms: C_6  and  C_7
REMARK    4  A    between atoms: C_7  and  N_8
REMARK    5  A    between atoms: C_12  and  C_13
REMARK    6  A    between atoms: C_18  and  S_19
REMARK    7  A    between atoms: S_19  and  C_20
REMARK                            x       y       z     vdW  Elec       q    Type
REMARK                         _______ _______ _______ _____ _____    ______ ____
ROOT
ATOM      1  C   UNL     1       3.836   5.500  17.945  0.00  0.00    +0.000 A 
ATOM      2  C   UNL     1       4.000   6.759  17.352  0.00  0.00    +0.000 A 
ATOM      3  C   UNL     1       3.261   7.864  17.788  0.00  0.00    +0.000 A 
ATOM      4  C   UNL     1       2.333   7.741  18.829  0.00  0.00    +0.000 A 
ATOM      5  C   UNL     1       2.246   6.494  19.481  0.00  0.00    +0.000 A 
ATOM      6  C   UNL     1       2.992   5.370  19.062  0.00  0.00    +0.000 A 
ENDROOT
BRANCH   1   8
ATOM      7  C   UNL     1       5.111   4.473  16.219  0.00  0.00    +0.000 C 
ATOM      8  O   UNL     1       4.440   4.364  17.471  0.00  0.00    +0.000 OA
ENDBRANCH   1   8
BRANCH   4   9
ATOM      9  C   UNL     1       1.486   8.915  19.318  0.00  0.00    +0.000 C 
BRANCH   9  10
ATOM     10  N   UNL     1       1.128   9.893  18.278  0.00  0.00    +0.000 NA
ATOM     11  C   UNL     1      -0.314   9.951  17.972  0.00  0.00    +0.000 C 
ATOM     12  C   UNL     1      -1.208  10.700  18.984  0.00  0.00    +0.000 C 
ATOM     13  N   UNL     1      -0.660  11.966  19.470  0.00  0.00    +0.000 N 
ATOM     14  C   UNL     1      -1.399  12.869  20.237  0.00  0.00    +0.000 C 
ATOM     15  C   UNL     1      -2.884  12.654  20.383  0.00  0.00    +0.000 C 
ATOM     16  O   UNL     1      -0.870  13.843  20.780  0.00  0.00    +0.000 OA
ATOM     17  C   UNL     1       0.793  12.034  19.636  0.00  0.00    +0.000 C 
ATOM     18  C   UNL     1       1.602  11.254  18.587  0.00  0.00    +0.000 C 
ENDBRANCH   9  10
ENDBRANCH   4   9
BRANCH   6  19
ATOM     19  S   UNL     1       2.570   3.811  19.845  0.00  0.00    +0.000 S 
BRANCH  19  20
ATOM     20  C   UNL     1       1.383   3.019  18.740  0.00  0.00    +0.000 C 
ATOM     21  F   UNL     1       1.820   1.931  18.073  0.00  0.00    +0.000 F 
ATOM     22  F   UNL     1       0.274   2.638  19.427  0.00  0.00    +0.000 F 
ATOM     23  F   UNL     1       0.960   3.916  17.809  0.00  0.00    +0.000 F 
ENDBRANCH  19  20
ENDBRANCH   6  19
TORSDOF 5
ENDMDL
MODEL 8
REMARK VINA RESULT:      -6.6      2.101      2.297
REMARK  Name = 
REMARK  7 active torsions:
REMARK  status: ('A' for Active; 'I' for Inactive)
REMARK    1  A    between atoms: C_1  and  O_2
REMARK    2  A    between atoms: O_2  and  C_3
REMARK    3  A    between atoms: C_6  and  C_7
REMARK    4  A    between atoms: C_7  and  N_8
REMARK    5  A    between atoms: C_12  and  C_13
REMARK    6  A    between atoms: C_18  and  S_19
REMARK    7  A    between atoms: S_19  and  C_20
REMARK                            x       y       z     vdW  Elec       q    Type
REMARK                         _______ _______ _______ _____ _____    ______ ____
ROOT
ATOM      1  C   UNL     1       0.695   9.668  21.008  0.00  0.00    +0.000 A 
ATOM      2  C   UNL     1       1.167   8.421  21.439  0.00  0.00    +0.000 A 
ATOM      3  C   UNL     1       1.815   7.550  20.557  0.00  0.00    +0.000 A 
ATOM      4  C   UNL     1       2.007   7.899  19.215  0.00  0.00    +0.000 A 
ATOM      5  C   UNL     1       1.613   9.192  18.816  0.00  0.00    +0.000 A 
ATOM      6  C   UNL     1       0.968  10.090  19.695  0.00  0.00    +0.000 A 
ENDROOT
BRANCH   1   8
ATOM      7  C   UNL     1      -0.624   9.923  22.971  0.00  0.00    +0.000 C 
ATOM      8  O   UNL     1      -0.056  10.499  21.799  0.00  0.00    +0.000 OA
ENDBRANCH   1   8
BRANCH   4   9
ATOM      9  C   UNL     1       2.685   6.967  18.211  0.00  0.00    +0.000 C 
BRANCH   9  10
ATOM     10  N   UNL     1       3.094   5.664  18.759  0.00  0.00    +0.000 NA
ATOM     11  C   UNL     1       2.962   4.541  17.812  0.00  0.00    +0.000 C 
ATOM     12  C   UNL     1       4.047   4.423  16.720  0.00  0.00    +0.000 C 
ATOM     13  N   UNL     1       5.417   4.638  17.187  0.00  0.00    +0.000 N 
ATOM     14  C   UNL     1       6.538   4.388  16.393  0.00  0.00    +0.000 C 
ATOM     15  C   UNL     1       6.357   3.654  15.090  0.00  0.00    +0.000 C 
ATOM     16  O   UNL     1       7.669   4.738  16.742  0.00  0.00    +0.000 OA
ATOM     17  C   UNL     1       5.601   5.624  18.253  0.00  0.00    +0.000 C 
ATOM     18  C   UNL     1       4.469   5.675  19.292  0.00  0.00    +0.000 C 
ENDBRANCH   9  10
ENDBRANCH   4   9
BRANCH   6  19
ATOM     19  S   UNL     1       0.319  11.589  18.950  0.00  0.00    +0.000 S 
BRANCH  19  20
ATOM     20  C   UNL     1       1.733  12.698  18.782  0.00  0.00    +0.000 C 
ATOM     21  F   UNL     1       1.467  13.944  18.337  0.00  0.00    +0.000 F 
ATOM     22  F   UNL     1       2.375  12.836  19.972  0.00  0.00    +0.000 F 
ATOM     23  F   UNL     1       2.639  12.153  17.926  0.00  0.00    +0.000 F 
ENDBRANCH  19  20
ENDBRANCH   6  19
TORSDOF 5
ENDMDL
MODEL 9
REMARK VINA RESULT:      -6.6      4.340      8.255
REMARK  Name = 
REMARK  7 active torsions:
REMARK  status: ('A' for Active; 'I' for Inactive)
REMARK    1  A    between atoms: C_1  and  O_2
REMARK    2  A    between atoms: O_2  and  C_3
REMARK    3  A    between atoms: C_6  and  C_7
REMARK    4  A    between atoms: C_7  and  N_8
REMARK    5  A    between atoms: C_12  and  C_13
REMARK    6  A    between atoms: C_18  and  S_19
REMARK    7  A    between atoms: S_19  and  C_20
REMARK                            x       y       z     vdW  Elec       q    Type
REMARK                         _______ _______ _______ _____ _____    ______ ____
ROOT
ATOM      1  C   UNL     1       3.435   6.167  17.927  0.00  0.00    +0.000 A 
ATOM      2  C   UNL     1       3.262   7.463  17.422  0.00  0.00    +0.000 A 
ATOM      3  C   UNL     1       2.527   8.420  18.128  0.00  0.00    +0.000 A 
ATOM      4  C   UNL     1       1.939   8.110  19.360  0.00  0.00    +0.000 A 
ATOM      5  C   UNL     1       2.199   6.835  19.903  0.00  0.00    +0.000 A 
ATOM      6  C   UNL     1       2.949   5.858  19.210  0.00  0.00    +0.000 A 
ENDROOT
BRANCH   1   8
ATOM      7  C   UNL     1       5.418   5.329  16.915  0.00  0.00    +0.000 C 
ATOM      8  O   UNL     1       4.036   5.160  17.217  0.00  0.00    +0.000 OA
ENDBRANCH   1   8
BRANCH   4   9
ATOM      9  C   UNL     1       1.105   9.117  20.151  0.00  0.00    +0.000 C 
BRANCH   9  10
ATOM     10  N   UNL     1       0.537  10.212  19.349  0.00  0.00    +0.000 NA
ATOM     11  C   UNL     1      -0.838  10.590  19.729  0.00  0.00    +0.000 C 
ATOM     12  C   UNL     1      -0.994  11.443  21.006  0.00  0.00    +0.000 C 
ATOM     13  N   UNL     1      -0.028  12.534  21.141  0.00  0.00    +0.000 N 
ATOM     14  C   UNL     1      -0.128  13.521  22.123  0.00  0.00    +0.000 C 
ATOM     15  C   UNL     1      -1.394  13.612  22.935  0.00  0.00    +0.000 C 
ATOM     16  O   UNL     1       0.785  14.325  22.328  0.00  0.00    +0.000 OA
ATOM     17  C   UNL     1       1.320  12.285  20.626  0.00  0.00    +0.000 C 
ATOM     18  C   UNL     1       1.380  11.421  19.356  0.00  0.00    +0.000 C 
ENDBRANCH   9  10
ENDBRANCH   4   9
BRANCH   6  19
ATOM     19  S   UNL     1       2.967   4.218  19.939  0.00  0.00    +0.000 S 
BRANCH  19  20
ATOM     20  C   UNL     1       1.369   3.487  19.528  0.00  0.00    +0.000 C 
ATOM     21  F   UNL     1       1.287   2.143  19.609  0.00  0.00    +0.000 F 
ATOM     22  F   UNL     1       0.394   3.988  20.333  0.00  0.00    +0.000 F 
ATOM     23  F   UNL     1       1.024   3.832  18.259  0.00  0.00    +0.000 F 
ENDBRANCH  19  20
ENDBRANCH   6  19
TORSDOF 5
ENDMDL
