MODEL 1
REMARK VINA RESULT:      -6.6      0.000      0.000
REMARK  Name = 
REMARK  8 active torsions:
REMARK  status: ('A' for Active; 'I' for Inactive)
REMARK    1  A    between atoms: C_1  and  O_2
REMARK    2  A    between atoms: O_2  and  C_3
REMARK    3  A    between atoms: C_5  and  O_6
REMARK    4  A    between atoms: C_9  and  C_10
REMARK    5  A    between atoms: C_15  and  C_16
REMARK    6  A    between atoms: C_16  and  O_17
REMARK    7  A    between atoms: C_23  and  C_24
REMARK    8  A    between atoms: C_26  and  C_27
REMARK                            x       y       z     vdW  Elec       q    Type
REMARK                         _______ _______ _______ _____ _____    ______ ____
ROOT
ATOM      1  C   UNL     1      -2.878  10.405  17.131  0.00  0.00    +0.000 A 
ATOM      2  C   UNL     1      -1.575   9.909  17.074  0.00  0.00    +0.000 A 
ATOM      3  C   UNL     1      -0.639  10.301  18.027  0.00  0.00    +0.000 A 
ATOM      4  C   UNL     1      -0.948  11.222  19.037  0.00  0.00    +0.000 A 
ATOM      5  C   UNL     1      -2.264  11.757  19.059  0.00  0.00    +0.000 A 
ATOM      6  C   UNL     1      -3.240  11.346  18.117  0.00  0.00    +0.000 A 
ATOM      7  C   UNL     1      -4.660  11.860  18.107  0.00  0.00    +0.000 C 
ATOM      8  C   UNL     1      -2.552  12.871  19.992  0.00  0.00    +0.000 C 
ATOM      9  O   UNL     1      -1.852  13.867  20.041  0.00  0.00    +0.000 OA
ATOM     10  O   UNL     1      -3.601  12.604  20.793  0.00  0.00    +0.000 OA
ATOM     11  C   UNL     1      -4.058  13.690  21.637  0.00  0.00    +0.000 C 
ATOM     12  C   UNL     1      -3.191  13.974  22.896  0.00  0.00    +0.000 C 
ATOM     13  C   UNL     1      -2.433  15.318  22.732  0.00  0.00    +0.000 C 
ATOM     14  C   UNL     1      -1.317  15.626  23.741  0.00  0.00    +0.000 C 
ATOM     15  C   UNL     1       0.057  15.827  23.090  0.00  0.00    +0.000 C 
ATOM     16  S   UNL     1       0.970  17.178  23.494  0.00  0.00    +0.000 S 
ATOM     17  N   UNL     1       0.467  14.797  22.251  0.00  0.00    +0.000 N 
ATOM     18  C   UNL     1       1.501  14.962  21.195  0.00  0.00    +0.000 C 
ATOM     19  C   UNL     1       2.068  13.589  20.742  0.00  0.00    +0.000 C 
ATOM     20  S   UNL     1       1.336  12.771  19.268  0.00  0.00    +0.000 S 
ATOM     21  C   UNL     1       0.131  11.632  20.024  0.00  0.00    +0.000 C 
ATOM     22  H   UNL     1      -0.281  14.191  21.936  0.00  0.00    +0.000 HD
ENDROOT
BRANCH  18  23
ATOM     23  C   UNL     1       0.895  15.778  20.091  0.00  0.00    +0.000 A 
ATOM     24  N   UNL     1       1.485  16.251  19.015  0.00  0.00    +0.000 NA
ATOM     25  C   UNL     1       0.531  17.073  18.499  0.00  0.00    +0.000 A 
ATOM     26  C   UNL     1       0.830  17.961  17.363  0.00  0.00    +0.000 C 
ATOM     27  N   UNL     1      -0.653  17.031  19.123  0.00  0.00    +0.000 NA
ATOM     28  O   UNL     1      -0.416  16.151  20.192  0.00  0.00    +0.000 OA
ENDBRANCH  18  23
BRANCH   1  30
ATOM     29  C   UNL     1      -3.518  10.221  14.849  0.00  0.00    +0.000 C 
ATOM     30  O   UNL     1      -3.853  10.072  16.225  0.00  0.00    +0.000 OA
ENDBRANCH   1  30
BRANCH   3  31
ATOM     31  O   UNL     1       0.625   9.779  17.967  0.00  0.00    +0.000 OA
ATOM     32  H   UNL     1       1.126  10.258  17.285  0.00  0.00    +0.000 HD
ENDBRANCH   3  31
BRANCH  12  33
ATOM     33  C   UNL     1      -2.341  12.769  23.309  0.00  0.00    +0.000 C 
BRANCH  33  34
ATOM     34  O   UNL     1      -3.160  11.663  23.664  0.00  0.00    +0.000 OA
ATOM     35  H   UNL     1      -2.785  10.869  23.247  0.00  0.00    +0.000 HD
ENDBRANCH  33  34
ENDBRANCH  12  33
TORSDOF 5
ENDMDL
MODEL 2
REMARK VINA RESULT:      -6.5      1.426      1.650
REMARK  Name = 
REMARK  8 active torsions:
REMARK  status: ('A' for Active; 'I' for Inactive)
REMARK    1  A    between atoms: C_1  and  O_2
REMARK    2  A    between atoms: O_2  and  C_3
REMARK    3  A    between atoms: C_5  and  O_6
REMARK    4  A    between atoms: C_9  and  C_10
REMARK    5  A    between atoms: C_15  and  C_16
REMARK    6  A    between atoms: C_16  and  O_17
REMARK    7  A    between atoms: C_23  and  C_24
REMARK    8  A    between atoms: C_26  and  C_27
REMARK                            x       y       z     vdW  Elec       q    Type
REMARK                         _______ _______ _______ _____ _____    ______ ____
ROOT
ATOM      1  C   UNL     1      -3.321  10.896  17.109  0.00  0.00    +0.000 A 
ATOM      2  C   UNL     1      -1.975  10.532  17.134  0.00  0.00    +0.000 A 
ATOM      3  C   UNL     1      -1.187  10.858  18.234  0.00  0.00    +0.000 A 
ATOM      4  C   UNL     1      -1.691  11.586  19.320  0.00  0.00    +0.000 A 
ATOM      5  C   UNL     1      -3.051  11.993  19.264  0.00  0.00    +0.000 A 
ATOM      6  C   UNL     1      -3.878  11.643  18.167  0.00  0.00    +0.000 A 
ATOM      7  C   UNL     1      -5.336  12.025  18.064  0.00  0.00    +0.000 C 
ATOM      8  C   UNL     1      -3.547  12.925  20.303  0.00  0.00    +0.000 C 
ATOM      9  O   UNL     1      -2.964  13.960  20.571  0.00  0.00    +0.000 OA
ATOM     10  O   UNL     1      -4.639  12.449  20.932  0.00  0.00    +0.000 OA
ATOM     11  C   UNL     1      -5.289  13.352  21.860  0.00  0.00    +0.000 C 
ATOM     12  C   UNL     1      -4.589  13.519  23.239  0.00  0.00    +0.000 C 
ATOM     13  C   UNL     1      -3.963  14.934  23.352  0.00  0.00    +0.000 C 
ATOM     14  C   UNL     1      -2.994  15.186  24.517  0.00  0.00    +0.000 C 
ATOM     15  C   UNL     1      -1.589  15.602  24.064  0.00  0.00    +0.000 C 
ATOM     16  S   UNL     1      -0.868  16.952  24.755  0.00  0.00    +0.000 S 
ATOM     17  N   UNL     1      -0.991  14.750  23.142  0.00  0.00    +0.000 N 
ATOM     18  C   UNL     1       0.122  15.162  22.247  0.00  0.00    +0.000 C 
ATOM     19  C   UNL     1       0.872  13.928  21.675  0.00  0.00    +0.000 C 
ATOM     20  S   UNL     1       0.384  13.278  20.027  0.00  0.00    +0.000 S 
ATOM     21  C   UNL     1      -0.767  11.937  20.473  0.00  0.00    +0.000 C 
ATOM     22  H   UNL     1      -1.636  14.134  22.661  0.00  0.00    +0.000 HD
ENDROOT
BRANCH  18  23
ATOM     23  C   UNL     1      -0.450  16.077  21.204  0.00  0.00    +0.000 A 
ATOM     24  N   UNL     1      -1.654  16.608  21.164  0.00  0.00    +0.000 NA
ATOM     25  C   UNL     1      -1.688  17.156  19.919  0.00  0.00    +0.000 A 
ATOM     26  C   UNL     1      -2.934  17.716  19.372  0.00  0.00    +0.000 C 
ATOM     27  N   UNL     1      -0.531  17.105  19.244  0.00  0.00    +0.000 NA
ATOM     28  O   UNL     1       0.309  16.388  20.112  0.00  0.00    +0.000 OA
ENDBRANCH  18  23
BRANCH   1  30
ATOM     29  C   UNL     1      -3.542  10.404  14.793  0.00  0.00    +0.000 C 
ATOM     30  O   UNL     1      -4.160  10.618  16.058  0.00  0.00    +0.000 OA
ENDBRANCH   1  30
BRANCH   3  31
ATOM     31  O   UNL     1       0.124  10.464  18.249  0.00  0.00    +0.000 OA
ATOM     32  H   UNL     1       0.478  10.531  17.345  0.00  0.00    +0.000 HD
ENDBRANCH   3  31
BRANCH  12  33
ATOM     33  C   UNL     1      -3.664  12.346  23.575  0.00  0.00    +0.000 C 
BRANCH  33  34
ATOM     34  O   UNL     1      -4.198  11.562  24.634  0.00  0.00    +0.000 OA
ATOM     35  H   UNL     1      -4.972  11.085  24.289  0.00  0.00    +0.000 HD
ENDBRANCH  33  34
ENDBRANCH  12  33
TORSDOF 5
ENDMDL
MODEL 3
REMARK VINA RESULT:      -6.2      2.736      3.537
REMARK  Name = 
REMARK  8 active torsions:
REMARK  status: ('A' for Active; 'I' for Inactive)
REMARK    1  A    between atoms: C_1  and  O_2
REMARK    2  A    between atoms: O_2  and  C_3
REMARK    3  A    between atoms: C_5  and  O_6
REMARK    4  A    between atoms: C_9  and  C_10
REMARK    5  A    between atoms: C_15  and  C_16
REMARK    6  A    between atoms: C_16  and  O_17
REMARK    7  A    between atoms: C_23  and  C_24
REMARK    8  A    between atoms: C_26  and  C_27
REMARK                            x       y       z     vdW  Elec       q    Type
REMARK                         _______ _______ _______ _____ _____    ______ ____
ROOT
ATOM      1  C   UNL     1      -3.079  10.968  17.548  0.00  0.00    +0.000 A 
ATOM      2  C   UNL     1      -1.730  11.285  17.714  0.00  0.00    +0.000 A 
ATOM      3  C   UNL     1      -1.325  12.055  18.800  0.00  0.00    +0.000 A 
ATOM      4  C   UNL     1      -2.240  12.568  19.730  0.00  0.00    +0.000 A 
ATOM      5  C   UNL     1      -3.616  12.279  19.527  0.00  0.00    +0.000 A 
ATOM      6  C   UNL     1      -4.045  11.471  18.444  0.00  0.00    +0.000 A 
ATOM      7  C   UNL     1      -5.489  11.109  18.192  0.00  0.00    +0.000 C 
ATOM      8  C   UNL     1      -4.611  12.970  20.380  0.00  0.00    +0.000 C 
ATOM      9  O   UNL     1      -4.604  14.179  20.526  0.00  0.00    +0.000 OA
ATOM     10  O   UNL     1      -5.433  12.105  21.002  0.00  0.00    +0.000 OA
ATOM     11  C   UNL     1      -6.537  12.686  21.741  0.00  0.00    +0.000 C 
ATOM     12  C   UNL     1      -6.171  13.304  23.121  0.00  0.00    +0.000 C 
ATOM     13  C   UNL     1      -6.282  14.851  23.059  0.00  0.00    +0.000 C 
ATOM     14  C   UNL     1      -5.692  15.647  24.232  0.00  0.00    +0.000 C 
ATOM     15  C   UNL     1      -4.588  16.626  23.812  0.00  0.00    +0.000 C 
ATOM     16  S   UNL     1      -4.659  18.220  24.336  0.00  0.00    +0.000 S 
ATOM     17  N   UNL     1      -3.555  16.065  23.069  0.00  0.00    +0.000 N 
ATOM     18  C   UNL     1      -2.650  16.858  22.195  0.00  0.00    +0.000 C 
ATOM     19  C   UNL     1      -1.354  16.070  21.864  0.00  0.00    +0.000 C 
ATOM     20  S   UNL     1      -1.278  15.101  20.305  0.00  0.00    +0.000 S 
ATOM     21  C   UNL     1      -1.733  13.430  20.873  0.00  0.00    +0.000 C 
ATOM     22  H   UNL     1      -3.780  15.173  22.646  0.00  0.00    +0.000 HD
ENDROOT
BRANCH  18  23
ATOM     23  C   UNL     1      -3.441  17.283  20.992  0.00  0.00    +0.000 A 
ATOM     24  N   UNL     1      -4.683  16.972  20.687  0.00  0.00    +0.000 NA
ATOM     25  C   UNL     1      -4.796  17.444  19.415  0.00  0.00    +0.000 A 
ATOM     26  C   UNL     1      -5.989  17.154  18.603  0.00  0.00    +0.000 C 
ATOM     27  N   UNL     1      -3.740  18.140  18.972  0.00  0.00    +0.000 NA
ATOM     28  O   UNL     1      -2.828  18.043  20.036  0.00  0.00    +0.000 OA
ENDBRANCH  18  23
BRANCH   1  30
ATOM     29  C   UNL     1      -3.081  10.571  15.204  0.00  0.00    +0.000 C 
ATOM     30  O   UNL     1      -3.556  10.222  16.500  0.00  0.00    +0.000 OA
ENDBRANCH   1  30
BRANCH   3  31
ATOM     31  O   UNL     1       0.007  12.329  18.957  0.00  0.00    +0.000 OA
ATOM     32  H   UNL     1       0.159  12.615  19.875  0.00  0.00    +0.000 HD
ENDBRANCH   3  31
BRANCH  12  33
ATOM     33  C   UNL     1      -4.864  12.746  23.687  0.00  0.00    +0.000 C 
BRANCH  33  34
ATOM     34  O   UNL     1      -5.109  11.913  24.813  0.00  0.00    +0.000 OA
ATOM     35  H   UNL     1      -6.045  11.650  24.789  0.00  0.00    +0.000 HD
ENDBRANCH  33  34
ENDBRANCH  12  33
TORSDOF 5
ENDMDL
MODEL 4
REMARK VINA RESULT:      -6.2      2.832      4.366
REMARK  Name = 
REMARK  8 active torsions:
REMARK  status: ('A' for Active; 'I' for Inactive)
REMARK    1  A    between atoms: C_1  and  O_2
REMARK    2  A    between atoms: O_2  and  C_3
REMARK    3  A    between atoms: C_5  and  O_6
REMARK    4  A    between atoms: C_9  and  C_10
REMARK    5  A    between atoms: C_15  and  C_16
REMARK    6  A    between atoms: C_16  and  O_17
REMARK    7  A    between atoms: C_23  and  C_24
REMARK    8  A    between atoms: C_26  and  C_27
REMARK                            x       y       z     vdW  Elec       q    Type
REMARK                         _______ _______ _______ _____ _____    ______ ____
ROOT
ATOM      1  C   UNL     1      -0.521  10.642  19.366  0.00  0.00    +0.000 A 
ATOM      2  C   UNL     1       0.045  10.490  20.632  0.00  0.00    +0.000 A 
ATOM      3  C   UNL     1      -0.602  11.007  21.750  0.00  0.00    +0.000 A 
ATOM      4  C   UNL     1      -1.803  11.723  21.649  0.00  0.00    +0.000 A 
ATOM      5  C   UNL     1      -2.347  11.913  20.351  0.00  0.00    +0.000 A 
ATOM      6  C   UNL     1      -1.719  11.367  19.203  0.00  0.00    +0.000 A 
ATOM      7  C   UNL     1      -2.265  11.515  17.803  0.00  0.00    +0.000 C 
ATOM      8  C   UNL     1      -3.503  12.828  20.203  0.00  0.00    +0.000 C 
ATOM      9  O   UNL     1      -3.495  13.955  20.664  0.00  0.00    +0.000 OA
ATOM     10  O   UNL     1      -4.543  12.235  19.586  0.00  0.00    +0.000 OA
ATOM     11  C   UNL     1      -5.666  13.091  19.258  0.00  0.00    +0.000 C 
ATOM     12  C   UNL     1      -6.602  13.456  20.445  0.00  0.00    +0.000 C 
ATOM     13  C   UNL     1      -6.437  14.955  20.813  0.00  0.00    +0.000 C 
ATOM     14  C   UNL     1      -7.064  15.431  22.132  0.00  0.00    +0.000 C 
ATOM     15  C   UNL     1      -6.045  16.024  23.113  0.00  0.00    +0.000 C 
ATOM     16  S   UNL     1      -6.359  17.513  23.824  0.00  0.00    +0.000 S 
ATOM     17  N   UNL     1      -4.951  15.211  23.389  0.00  0.00    +0.000 N 
ATOM     18  C   UNL     1      -3.661  15.726  23.921  0.00  0.00    +0.000 C 
ATOM     19  C   UNL     1      -2.815  14.584  24.546  0.00  0.00    +0.000 C 
ATOM     20  S   UNL     1      -1.541  13.756  23.511  0.00  0.00    +0.000 S 
ATOM     21  C   UNL     1      -2.438  12.289  22.907  0.00  0.00    +0.000 C 
ATOM     22  H   UNL     1      -4.797  14.473  22.712  0.00  0.00    +0.000 HD
ENDROOT
BRANCH  18  23
ATOM     23  C   UNL     1      -2.978  16.469  22.812  0.00  0.00    +0.000 A 
ATOM     24  N   UNL     1      -3.421  16.696  21.594  0.00  0.00    +0.000 NA
ATOM     25  C   UNL     1      -2.323  17.210  20.976  0.00  0.00    +0.000 A 
ATOM     26  C   UNL     1      -2.314  17.452  19.524  0.00  0.00    +0.000 C 
ATOM     27  N   UNL     1      -1.273  17.433  21.777  0.00  0.00    +0.000 NA
ATOM     28  O   UNL     1      -1.713  16.944  23.018  0.00  0.00    +0.000 OA
ENDBRANCH  18  23
BRANCH   1  30
ATOM     29  C   UNL     1       1.373   9.631  18.344  0.00  0.00    +0.000 C 
ATOM     30  O   UNL     1       0.061  10.168  18.216  0.00  0.00    +0.000 OA
ENDBRANCH   1  30
BRANCH   3  31
ATOM     31  O   UNL     1      -0.042  10.819  22.985  0.00  0.00    +0.000 OA
ATOM     32  H   UNL     1       0.885  11.114  22.952  0.00  0.00    +0.000 HD
ENDBRANCH   3  31
BRANCH  12  33
ATOM     33  C   UNL     1      -6.496  12.464  21.605  0.00  0.00    +0.000 C 
BRANCH  33  34
ATOM     34  O   UNL     1      -6.792  11.142  21.175  0.00  0.00    +0.000 OA
ATOM     35  H   UNL     1      -7.269  10.695  21.895  0.00  0.00    +0.000 HD
ENDBRANCH  33  34
ENDBRANCH  12  33
TORSDOF 5
ENDMDL
MODEL 5
REMARK VINA RESULT:      -6.1      3.770      6.315
REMARK  Name = 
REMARK  8 active torsions:
REMARK  status: ('A' for Active; 'I' for Inactive)
REMARK    1  A    between atoms: C_1  and  O_2
REMARK    2  A    between atoms: O_2  and  C_3
REMARK    3  A    between atoms: C_5  and  O_6
REMARK    4  A    between atoms: C_9  and  C_10
REMARK    5  A    between atoms: C_15  and  C_16
REMARK    6  A    between atoms: C_16  and  O_17
REMARK    7  A    between atoms: C_23  and  C_24
REMARK    8  A    between atoms: C_26  and  C_27
REMARK                            x       y       z     vdW  Elec       q    Type
REMARK                         _______ _______ _______ _____ _____    ______ ____
ROOT
ATOM      1  C   UNL     1       0.425   9.390  20.673  0.00  0.00    +0.000 A 
ATOM      2  C   UNL     1       0.351   9.224  19.290  0.00  0.00    +0.000 A 
ATOM      3  C   UNL     1      -0.479  10.047  18.535  0.00  0.00    +0.000 A 
ATOM      4  C   UNL     1      -1.289  11.028  19.124  0.00  0.00    +0.000 A 
ATOM      5  C   UNL     1      -1.242  11.157  20.538  0.00  0.00    +0.000 A 
ATOM      6  C   UNL     1      -0.379  10.350  21.321  0.00  0.00    +0.000 A 
ATOM      7  C   UNL     1      -0.267  10.460  22.823  0.00  0.00    +0.000 C 
ATOM      8  C   UNL     1      -2.228  12.047  21.194  0.00  0.00    +0.000 C 
ATOM      9  O   UNL     1      -3.422  11.962  20.967  0.00  0.00    +0.000 OA
ATOM     10  O   UNL     1      -1.637  12.969  21.977  0.00  0.00    +0.000 OA
ATOM     11  C   UNL     1      -2.521  13.790  22.781  0.00  0.00    +0.000 C 
ATOM     12  C   UNL     1      -3.255  14.931  22.021  0.00  0.00    +0.000 C 
ATOM     13  C   UNL     1      -4.768  14.607  21.902  0.00  0.00    +0.000 C 
ATOM     14  C   UNL     1      -5.601  15.472  20.945  0.00  0.00    +0.000 C 
ATOM     15  C   UNL     1      -6.279  14.668  19.828  0.00  0.00    +0.000 C 
ATOM     16  S   UNL     1      -7.916  14.892  19.530  0.00  0.00    +0.000 S 
ATOM     17  N   UNL     1      -5.427  13.854  19.090  0.00  0.00    +0.000 N 
ATOM     18  C   UNL     1      -5.894  12.686  18.296  0.00  0.00    +0.000 C 
ATOM     19  C   UNL     1      -4.834  12.258  17.246  0.00  0.00    +0.000 C 
ATOM     20  S   UNL     1      -3.648  10.922  17.676  0.00  0.00    +0.000 S 
ATOM     21  C   UNL     1      -2.198  11.868  18.244  0.00  0.00    +0.000 C 
ATOM     22  H   UNL     1      -4.542  13.656  19.540  0.00  0.00    +0.000 HD
ENDROOT
BRANCH  18  23
ATOM     23  C   UNL     1      -6.280  11.606  19.263  0.00  0.00    +0.000 A 
ATOM     24  N   UNL     1      -6.495  10.332  19.013  0.00  0.00    +0.000 NA
ATOM     25  C   UNL     1      -7.012   9.888  20.191  0.00  0.00    +0.000 A 
ATOM     26  C   UNL     1      -7.567   8.530  20.311  0.00  0.00    +0.000 C 
ATOM     27  N   UNL     1      -7.006  10.784  21.187  0.00  0.00    +0.000 NA
ATOM     28  O   UNL     1      -6.503  11.941  20.569  0.00  0.00    +0.000 OA
ENDBRANCH  18  23
BRANCH   1  30
ATOM     29  C   UNL     1       1.462   7.282  21.045  0.00  0.00    +0.000 C 
ATOM     30  O   UNL     1       1.214   8.613  21.486  0.00  0.00    +0.000 OA
ENDBRANCH   1  30
BRANCH   3  31
ATOM     31  O   UNL     1      -0.514   9.885  17.176  0.00  0.00    +0.000 OA
ATOM     32  H   UNL     1      -0.271   8.966  16.967  0.00  0.00    +0.000 HD
ENDBRANCH   3  31
BRANCH  12  33
ATOM     33  C   UNL     1      -2.547  15.322  20.721  0.00  0.00    +0.000 C 
BRANCH  33  34
ATOM     34  O   UNL     1      -1.167  15.575  20.947  0.00  0.00    +0.000 OA
ATOM     35  H   UNL     1      -0.731  15.641  20.080  0.00  0.00    +0.000 HD
ENDBRANCH  33  34
ENDBRANCH  12  33
TORSDOF 5
ENDMDL
MODEL 6
REMARK VINA RESULT:      -6.1      3.064      3.996
REMARK  Name = 
REMARK  8 active torsions:
REMARK  status: ('A' for Active; 'I' for Inactive)
REMARK    1  A    between atoms: C_1  and  O_2
REMARK    2  A    between atoms: O_2  and  C_3
REMARK    3  A    between atoms: C_5  and  O_6
REMARK    4  A    between atoms: C_9  and  C_10
REMARK    5  A    between atoms: C_15  and  C_16
REMARK    6  A    between atoms: C_16  and  O_17
REMARK    7  A    between atoms: C_23  and  C_24
REMARK    8  A    between atoms: C_26  and  C_27
REMARK                            x       y       z     vdW  Elec       q    Type
REMARK                         _______ _______ _______ _____ _____    ______ ____
ROOT
ATOM      1  C   UNL     1      -3.839  11.241  17.097  0.00  0.00    +0.000 A 
ATOM      2  C   UNL     1      -2.572  11.064  17.653  0.00  0.00    +0.000 A 
ATOM      3  C   UNL     1      -2.315  11.497  18.950  0.00  0.00    +0.000 A 
ATOM      4  C   UNL     1      -3.284  12.153  19.721  0.00  0.00    +0.000 A 
ATOM      5  C   UNL     1      -4.557  12.370  19.129  0.00  0.00    +0.000 A 
ATOM      6  C   UNL     1      -4.849  11.908  17.821  0.00  0.00    +0.000 A 
ATOM      7  C   UNL     1      -6.190  12.087  17.151  0.00  0.00    +0.000 C 
ATOM      8  C   UNL     1      -5.527  13.229  19.849  0.00  0.00    +0.000 C 
ATOM      9  O   UNL     1      -5.225  14.334  20.261  0.00  0.00    +0.000 OA
ATOM     10  O   UNL     1      -6.707  12.610  20.040  0.00  0.00    +0.000 OA
ATOM     11  C   UNL     1      -7.772  13.419  20.600  0.00  0.00    +0.000 C 
ATOM     12  C   UNL     1      -7.683  13.683  22.130  0.00  0.00    +0.000 C 
ATOM     13  C   UNL     1      -7.330  15.171  22.395  0.00  0.00    +0.000 C 
ATOM     14  C   UNL     1      -6.923  15.556  23.825  0.00  0.00    +0.000 C 
ATOM     15  C   UNL     1      -5.515  16.159  23.918  0.00  0.00    +0.000 C 
ATOM     16  S   UNL     1      -5.290  17.597  24.756  0.00  0.00    +0.000 S 
ATOM     17  N   UNL     1      -4.507  15.393  23.342  0.00  0.00    +0.000 N 
ATOM     18  C   UNL     1      -3.196  15.951  22.915  0.00  0.00    +0.000 C 
ATOM     19  C   UNL     1      -2.137  14.830  22.741  0.00  0.00    +0.000 C 
ATOM     20  S   UNL     1      -1.869  14.115  21.069  0.00  0.00    +0.000 S 
ATOM     21  C   UNL     1      -2.926  12.630  21.117  0.00  0.00    +0.000 C 
ATOM     22  H   UNL     1      -4.836  14.694  22.686  0.00  0.00    +0.000 HD
ENDROOT
BRANCH  18  23
ATOM     23  C   UNL     1      -3.434  16.777  21.685  0.00  0.00    +0.000 A 
ATOM     24  N   UNL     1      -4.574  17.002  21.068  0.00  0.00    +0.000 NA
ATOM     25  C   UNL     1      -4.168  17.618  19.924  0.00  0.00    +0.000 A 
ATOM     26  C   UNL     1      -5.119  17.900  18.836  0.00  0.00    +0.000 C 
ATOM     27  N   UNL     1      -2.859  17.899  19.864  0.00  0.00    +0.000 NA
ATOM     28  O   UNL     1      -2.362  17.343  21.055  0.00  0.00    +0.000 OA
ENDBRANCH  18  23
BRANCH   1  30
ATOM     29  C   UNL     1      -3.097  10.381  15.008  0.00  0.00    +0.000 C 
ATOM     30  O   UNL     1      -4.167  10.848  15.823  0.00  0.00    +0.000 OA
ENDBRANCH   1  30
BRANCH   3  31
ATOM     31  O   UNL     1      -1.072  11.286  19.483  0.00  0.00    +0.000 OA
ATOM     32  H   UNL     1      -0.431  11.841  19.006  0.00  0.00    +0.000 HD
ENDBRANCH   3  31
BRANCH  12  33
ATOM     33  C   UNL     1      -6.819  12.649  22.856  0.00  0.00    +0.000 C 
BRANCH  33  34
ATOM     34  O   UNL     1      -7.373  11.345  22.734  0.00  0.00    +0.000 OA
ATOM     35  H   UNL     1      -6.703  10.708  23.035  0.00  0.00    +0.000 HD
ENDBRANCH  33  34
ENDBRANCH  12  33
TORSDOF 5
ENDMDL
MODEL 7
REMARK VINA RESULT:      -5.7      3.510      4.625
REMARK  Name = 
REMARK  8 active torsions:
REMARK  status: ('A' for Active; 'I' for Inactive)
REMARK    1  A    between atoms: C_1  and  O_2
REMARK    2  A    between atoms: O_2  and  C_3
REMARK    3  A    between atoms: C_5  and  O_6
REMARK    4  A    between atoms: C_9  and  C_10
REMARK    5  A    between atoms: C_15  and  C_16
REMARK    6  A    between atoms: C_16  and  O_17
REMARK    7  A    between atoms: C_23  and  C_24
REMARK    8  A    between atoms: C_26  and  C_27
REMARK                            x       y       z     vdW  Elec       q    Type
REMARK                         _______ _______ _______ _____ _____    ______ ____
ROOT
ATOM      1  C   UNL     1      -2.883  11.008  17.944  0.00  0.00    +0.000 A 
ATOM      2  C   UNL     1      -1.682  11.403  18.534  0.00  0.00    +0.000 A 
ATOM      3  C   UNL     1      -1.696  12.195  19.678  0.00  0.00    +0.000 A 
ATOM      4  C   UNL     1      -2.891  12.654  20.250  0.00  0.00    +0.000 A 
ATOM      5  C   UNL     1      -4.107  12.285  19.615  0.00  0.00    +0.000 A 
ATOM      6  C   UNL     1      -4.114  11.453  18.467  0.00  0.00    +0.000 A 
ATOM      7  C   UNL     1      -5.376  11.008  17.766  0.00  0.00    +0.000 C 
ATOM      8  C   UNL     1      -5.362  12.917  20.085  0.00  0.00    +0.000 C 
ATOM      9  O   UNL     1      -5.470  14.124  20.202  0.00  0.00    +0.000 OA
ATOM     10  O   UNL     1      -6.293  12.005  20.421  0.00  0.00    +0.000 OA
ATOM     11  C   UNL     1      -7.608  12.521  20.750  0.00  0.00    +0.000 C 
ATOM     12  C   UNL     1      -7.747  13.159  22.161  0.00  0.00    +0.000 C 
ATOM     13  C   UNL     1      -7.917  14.697  22.038  0.00  0.00    +0.000 C 
ATOM     14  C   UNL     1      -7.786  15.526  23.324  0.00  0.00    +0.000 C 
ATOM     15  C   UNL     1      -6.662  16.568  23.267  0.00  0.00    +0.000 C 
ATOM     16  S   UNL     1      -6.988  18.154  23.710  0.00  0.00    +0.000 S 
ATOM     17  N   UNL     1      -5.414  16.068  22.912  0.00  0.00    +0.000 N 
ATOM     18  C   UNL     1      -4.318  16.912  22.365  0.00  0.00    +0.000 C 
ATOM     19  C   UNL     1      -2.944  16.201  22.490  0.00  0.00    +0.000 C 
ATOM     20  S   UNL     1      -2.310  15.238  21.059  0.00  0.00    +0.000 S 
ATOM     21  C   UNL     1      -2.833  13.543  21.479  0.00  0.00    +0.000 C 
ATOM     22  H   UNL     1      -5.439  15.164  22.456  0.00  0.00    +0.000 HD
ENDROOT
BRANCH  18  23
ATOM     23  C   UNL     1      -4.696  17.290  20.963  0.00  0.00    +0.000 A 
ATOM     24  N   UNL     1      -5.787  16.968  20.302  0.00  0.00    +0.000 NA
ATOM     25  C   UNL     1      -5.498  17.390  19.041  0.00  0.00    +0.000 A 
ATOM     26  C   UNL     1      -6.387  17.070  17.912  0.00  0.00    +0.000 C 
ATOM     27  N   UNL     1      -4.349  18.069  18.919  0.00  0.00    +0.000 NA
ATOM     28  O   UNL     1      -3.809  18.013  20.215  0.00  0.00    +0.000 OA
ENDBRANCH  18  23
BRANCH   1  30
ATOM     29  C   UNL     1      -2.766  10.910  15.572  0.00  0.00    +0.000 C 
ATOM     30  O   UNL     1      -2.950  10.235  16.812  0.00  0.00    +0.000 OA
ENDBRANCH   1  30
BRANCH   3  31
ATOM     31  O   UNL     1      -0.506  12.545  20.255  0.00  0.00    +0.000 OA
ATOM     32  H   UNL     1       0.090  12.878  19.561  0.00  0.00    +0.000 HD
ENDBRANCH   3  31
BRANCH  12  33
ATOM     33  C   UNL     1      -6.667  12.678  23.133  0.00  0.00    +0.000 C 
BRANCH  33  34
ATOM     34  O   UNL     1      -7.236  11.924  24.196  0.00  0.00    +0.000 OA
ATOM     35  H   UNL     1      -7.092  12.418  25.021  0.00  0.00    +0.000 HD
ENDBRANCH  33  34
ENDBRANCH  12  33
TORSDOF 5
ENDMDL
MODEL 8
REMARK VINA RESULT:      -5.6      3.654      6.197
REMARK  Name = 
REMARK  8 active torsions:
REMARK  status: ('A' for Active; 'I' for Inactive)
REMARK    1  A    between atoms: C_1  and  O_2
REMARK    2  A    between atoms: O_2  and  C_3
REMARK    3  A    between atoms: C_5  and  O_6
REMARK    4  A    between atoms: C_9  and  C_10
REMARK    5  A    between atoms: C_15  and  C_16
REMARK    6  A    between atoms: C_16  and  O_17
REMARK    7  A    between atoms: C_23  and  C_24
REMARK    8  A    between atoms: C_26  and  C_27
REMARK                            x       y       z     vdW  Elec       q    Type
REMARK                         _______ _______ _______ _____ _____    ______ ____
ROOT
ATOM      1  C   UNL     1      -0.981  10.713  19.444  0.00  0.00    +0.000 A 
ATOM      2  C   UNL     1      -2.010  10.264  18.616  0.00  0.00    +0.000 A 
ATOM      3  C   UNL     1      -3.171  11.018  18.480  0.00  0.00    +0.000 A 
ATOM      4  C   UNL     1      -3.369  12.213  19.185  0.00  0.00    +0.000 A 
ATOM      5  C   UNL     1      -2.335  12.638  20.061  0.00  0.00    +0.000 A 
ATOM      6  C   UNL     1      -1.132  11.900  20.189  0.00  0.00    +0.000 A 
ATOM      7  C   UNL     1       0.012  12.315  21.085  0.00  0.00    +0.000 C 
ATOM      8  C   UNL     1      -2.604  13.786  20.957  0.00  0.00    +0.000 C 
ATOM      9  O   UNL     1      -3.596  13.834  21.662  0.00  0.00    +0.000 OA
ATOM     10  O   UNL     1      -1.680  14.757  20.828  0.00  0.00    +0.000 OA
ATOM     11  C   UNL     1      -1.768  15.856  21.770  0.00  0.00    +0.000 C 
ATOM     12  C   UNL     1      -2.882  16.902  21.480  0.00  0.00    +0.000 C 
ATOM     13  C   UNL     1      -4.009  16.790  22.541  0.00  0.00    +0.000 C 
ATOM     14  C   UNL     1      -5.319  17.542  22.262  0.00  0.00    +0.000 C 
ATOM     15  C   UNL     1      -6.547  16.625  22.198  0.00  0.00    +0.000 C 
ATOM     16  S   UNL     1      -7.916  17.022  23.086  0.00  0.00    +0.000 S 
ATOM     17  N   UNL     1      -6.435  15.551  21.322  0.00  0.00    +0.000 N 
ATOM     18  C   UNL     1      -7.267  14.323  21.420  0.00  0.00    +0.000 C 
ATOM     19  C   UNL     1      -7.251  13.523  20.090  0.00  0.00    +0.000 C 
ATOM     20  S   UNL     1      -6.046  12.150  19.894  0.00  0.00    +0.000 S 
ATOM     21  C   UNL     1      -4.676  12.969  19.015  0.00  0.00    +0.000 C 
ATOM     22  H   UNL     1      -5.484  15.326  21.055  0.00  0.00    +0.000 HD
ENDROOT
BRANCH  18  23
ATOM     23  C   UNL     1      -6.791  13.549  22.615  0.00  0.00    +0.000 A 
ATOM     24  N   UNL     1      -5.676  13.710  23.294  0.00  0.00    +0.000 NA
ATOM     25  C   UNL     1      -5.672  12.620  24.109  0.00  0.00    +0.000 A 
ATOM     26  C   UNL     1      -4.499  12.298  24.937  0.00  0.00    +0.000 C 
ATOM     27  N   UNL     1      -6.783  11.872  24.062  0.00  0.00    +0.000 NA
ATOM     28  O   UNL     1      -7.545  12.500  23.063  0.00  0.00    +0.000 OA
ENDBRANCH  18  23
BRANCH   1  30
ATOM     29  C   UNL     1       0.972   9.764  18.475  0.00  0.00    +0.000 C 
ATOM     30  O   UNL     1       0.190  10.022  19.636  0.00  0.00    +0.000 OA
ENDBRANCH   1  30
BRANCH   3  31
ATOM     31  O   UNL     1      -4.155  10.571  17.639  0.00  0.00    +0.000 OA
ATOM     32  H   UNL     1      -3.975  10.907  16.744  0.00  0.00    +0.000 HD
ENDBRANCH   3  31
BRANCH  12  33
ATOM     33  C   UNL     1      -3.334  16.891  20.017  0.00  0.00    +0.000 C 
BRANCH  33  34
ATOM     34  O   UNL     1      -2.227  17.052  19.140  0.00  0.00    +0.000 OA
ATOM     35  H   UNL     1      -1.464  17.334  19.673  0.00  0.00    +0.000 HD
ENDBRANCH  33  34
ENDBRANCH  12  33
TORSDOF 5
ENDMDL
MODEL 9
REMARK VINA RESULT:      -5.5      2.818      7.071
REMARK  Name = 
REMARK  8 active torsions:
REMARK  status: ('A' for Active; 'I' for Inactive)
REMARK    1  A    between atoms: C_1  and  O_2
REMARK    2  A    between atoms: O_2  and  C_3
REMARK    3  A    between atoms: C_5  and  O_6
REMARK    4  A    between atoms: C_9  and  C_10
REMARK    5  A    between atoms: C_15  and  C_16
REMARK    6  A    between atoms: C_16  and  O_17
REMARK    7  A    between atoms: C_23  and  C_24
REMARK    8  A    between atoms: C_26  and  C_27
REMARK                            x       y       z     vdW  Elec       q    Type
REMARK                         _______ _______ _______ _____ _____    ______ ____
ROOT
ATOM      1  C   UNL     1      -0.428  16.693  25.226  0.00  0.00    +0.000 A 
ATOM      2  C   UNL     1       0.501  17.218  24.327  0.00  0.00    +0.000 A 
ATOM      3  C   UNL     1       0.389  16.938  22.969  0.00  0.00    +0.000 A 
ATOM      4  C   UNL     1      -0.615  16.102  22.462  0.00  0.00    +0.000 A 
ATOM      5  C   UNL     1      -1.528  15.535  23.391  0.00  0.00    +0.000 A 
ATOM      6  C   UNL     1      -1.450  15.833  24.774  0.00  0.00    +0.000 A 
ATOM      7  C   UNL     1      -2.407  15.281  25.804  0.00  0.00    +0.000 C 
ATOM      8  C   UNL     1      -2.470  14.499  22.905  0.00  0.00    +0.000 C 
ATOM      9  O   UNL     1      -2.091  13.532  22.269  0.00  0.00    +0.000 OA
ATOM     10  O   UNL     1      -3.750  14.807  23.185  0.00  0.00    +0.000 OA
ATOM     11  C   UNL     1      -4.736  13.787  22.885  0.00  0.00    +0.000 C 
ATOM     12  C   UNL     1      -5.118  13.640  21.385  0.00  0.00    +0.000 C 
ATOM     13  C   UNL     1      -4.557  12.308  20.819  0.00  0.00    +0.000 C 
ATOM     14  C   UNL     1      -4.588  12.121  19.295  0.00  0.00    +0.000 C 
ATOM     15  C   UNL     1      -3.201  11.902  18.678  0.00  0.00    +0.000 C 
ATOM     16  S   UNL     1      -2.964  10.618  17.622  0.00  0.00    +0.000 S 
ATOM     17  N   UNL     1      -2.253  12.865  19.005  0.00  0.00    +0.000 N 
ATOM     18  C   UNL     1      -0.786  12.636  18.912  0.00  0.00    +0.000 C 
ATOM     19  C   UNL     1      -0.007  13.979  18.894  0.00  0.00    +0.000 C 
ATOM     20  S   UNL     1       0.651  14.643  20.477  0.00  0.00    +0.000 S 
ATOM     21  C   UNL     1      -0.659  15.810  20.972  0.00  0.00    +0.000 C 
ATOM     22  H   UNL     1      -2.483  13.420  19.821  0.00  0.00    +0.000 HD
ENDROOT
BRANCH  18  23
ATOM     23  C   UNL     1      -0.401  11.710  20.027  0.00  0.00    +0.000 A 
ATOM     24  N   UNL     1      -1.179  11.181  20.948  0.00  0.00    +0.000 NA
ATOM     25  C   UNL     1      -0.280  10.618  21.800  0.00  0.00    +0.000 A 
ATOM     26  C   UNL     1      -0.709  10.054  23.090  0.00  0.00    +0.000 C 
ATOM     27  N   UNL     1       0.995  10.658  21.388  0.00  0.00    +0.000 NA
ATOM     28  O   UNL     1       0.916  11.384  20.188  0.00  0.00    +0.000 OA
ENDBRANCH  18  23
BRANCH   1  30
ATOM     29  C   UNL     1      -0.399  18.278  26.998  0.00  0.00    +0.000 C 
ATOM     30  O   UNL     1      -0.380  16.918  26.579  0.00  0.00    +0.000 OA
ENDBRANCH   1  30
BRANCH   3  31
ATOM     31  O   UNL     1       1.296  17.487  22.103  0.00  0.00    +0.000 OA
ATOM     32  H   UNL     1       1.681  16.775  21.563  0.00  0.00    +0.000 HD
ENDBRANCH   3  31
BRANCH  12  33
ATOM     33  C   UNL     1      -4.806  14.900  20.572  0.00  0.00    +0.000 C 
BRANCH  33  34
ATOM     34  O   UNL     1      -5.437  16.041  21.137  0.00  0.00    +0.000 OA
ATOM     35  H   UNL     1      -6.356  16.060  20.820  0.00  0.00    +0.000 HD
ENDBRANCH  33  34
ENDBRANCH  12  33
TORSDOF 5
ENDMDL
