MODEL 1
REMARK VINA RESULT:      -7.0      0.000      0.000
REMARK  Name = 
REMARK  5 active torsions:
REMARK  status: ('A' for Active; 'I' for Inactive)
REMARK    1  A    between atoms: C_2  and  O_3
REMARK    2  A    between atoms: C_2  and  C_12
REMARK    3  A    between atoms: O_3  and  C_4
REMARK    4  A    between atoms: C_4  and  C_5
REMARK    5  A    between atoms: C_5  and  N_6
REMARK                            x       y       z     vdW  Elec       q    Type
REMARK                         _______ _______ _______ _____ _____    ______ ____
ROOT
ATOM      1  O   UNL     1       4.870   5.312  19.208  0.00  0.00    +0.000 OA
ATOM      2  C   UNL     1       3.828   5.498  18.600  0.00  0.00    +0.000 C 
ENDROOT
BRANCH   2   3
ATOM      3  C   UNL     1       2.846   6.560  18.958  0.00  0.00    +0.000 A 
ATOM      4  C   UNL     1       2.281   6.531  20.251  0.00  0.00    +0.000 A 
ATOM      5  C   UNL     1       1.482   7.584  20.715  0.00  0.00    +0.000 A 
ATOM      6  C   UNL     1       1.290   8.672  19.883  0.00  0.00    +0.000 A 
ATOM      7  C   UNL     1       1.834   8.701  18.595  0.00  0.00    +0.000 A 
ATOM      8  C   UNL     1       2.590   7.647  18.107  0.00  0.00    +0.000 A 
ATOM      9  C   UNL     1       1.494   9.986  17.903  0.00  0.00    +0.000 C 
ATOM     10  C   UNL     1       1.106  10.867  19.099  0.00  0.00    +0.000 C 
ATOM     11  C   UNL     1       0.524   9.927  20.164  0.00  0.00    +0.000 C 
ENDBRANCH   2   3
BRANCH   2  12
ATOM     12  O   UNL     1       3.466   4.880  17.451  0.00  0.00    +0.000 OA
BRANCH  12  13
ATOM     13  C   UNL     1       2.434   3.881  17.567  0.00  0.00    +0.000 C 
BRANCH  13  14
ATOM     14  C   UNL     1       2.828   2.548  18.207  0.00  0.00    +0.000 C 
BRANCH  14  15
ATOM     15  N   UNL     1       2.556   2.501  19.629  0.00  0.00    +0.000 N 
ATOM     16  C   UNL     1       1.322   2.947  20.192  0.00  0.00    +0.000 C 
ATOM     17  C   UNL     1       1.511   2.605  21.648  0.00  0.00    +0.000 C 
ATOM     18  O   UNL     1       2.933   2.544  21.832  0.00  0.00    +0.000 OA
ATOM     19  C   UNL     1       3.510   2.372  20.603  0.00  0.00    +0.000 C 
ATOM     20  O   UNL     1       4.700   2.160  20.433  0.00  0.00    +0.000 OA
ENDBRANCH  14  15
ENDBRANCH  13  14
ENDBRANCH  12  13
ENDBRANCH   2  12
TORSDOF 5
ENDMDL
MODEL 2
REMARK VINA RESULT:      -7.0      0.706      1.609
REMARK  Name = 
REMARK  5 active torsions:
REMARK  status: ('A' for Active; 'I' for Inactive)
REMARK    1  A    between atoms: C_2  and  O_3
REMARK    2  A    between atoms: C_2  and  C_12
REMARK    3  A    between atoms: O_3  and  C_4
REMARK    4  A    between atoms: C_4  and  C_5
REMARK    5  A    between atoms: C_5  and  N_6
REMARK                            x       y       z     vdW  Elec       q    Type
REMARK                         _______ _______ _______ _____ _____    ______ ____
ROOT
ATOM      1  O   UNL     1       4.193   5.613  19.629  0.00  0.00    +0.000 OA
ATOM      2  C   UNL     1       3.340   5.995  18.843  0.00  0.00    +0.000 C 
ENDROOT
BRANCH   2   3
ATOM      3  C   UNL     1       2.655   7.313  18.951  0.00  0.00    +0.000 A 
ATOM      4  C   UNL     1       2.600   8.127  17.799  0.00  0.00    +0.000 A 
ATOM      5  C   UNL     1       1.834   9.299  17.778  0.00  0.00    +0.000 A 
ATOM      6  C   UNL     1       1.102   9.620  18.907  0.00  0.00    +0.000 A 
ATOM      7  C   UNL     1       1.164   8.827  20.057  0.00  0.00    +0.000 A 
ATOM      8  C   UNL     1       1.952   7.689  20.107  0.00  0.00    +0.000 A 
ATOM      9  C   UNL     1       0.277   9.379  21.131  0.00  0.00    +0.000 C 
ATOM     10  C   UNL     1      -0.645  10.290  20.309  0.00  0.00    +0.000 C 
ATOM     11  C   UNL     1       0.181  10.782  19.112  0.00  0.00    +0.000 C 
ENDBRANCH   2   3
BRANCH   2  12
ATOM     12  O   UNL     1       2.983   5.362  17.700  0.00  0.00    +0.000 OA
BRANCH  12  13
ATOM     13  C   UNL     1       2.000   4.318  17.833  0.00  0.00    +0.000 C 
BRANCH  13  14
ATOM     14  C   UNL     1       2.505   2.941  18.268  0.00  0.00    +0.000 C 
BRANCH  14  15
ATOM     15  N   UNL     1       2.375   2.714  19.693  0.00  0.00    +0.000 N 
ATOM     16  C   UNL     1       1.209   3.082  20.428  0.00  0.00    +0.000 C 
ATOM     17  C   UNL     1       1.539   2.560  21.804  0.00  0.00    +0.000 C 
ATOM     18  O   UNL     1       2.972   2.482  21.835  0.00  0.00    +0.000 OA
ATOM     19  C   UNL     1       3.422   2.468  20.543  0.00  0.00    +0.000 C 
ATOM     20  O   UNL     1       4.587   2.283  20.229  0.00  0.00    +0.000 OA
ENDBRANCH  14  15
ENDBRANCH  13  14
ENDBRANCH  12  13
ENDBRANCH   2  12
TORSDOF 5
ENDMDL
MODEL 3
REMARK VINA RESULT:      -6.8      3.637      6.222
REMARK  Name = 
REMARK  5 active torsions:
REMARK  status: ('A' for Active; 'I' for Inactive)
REMARK    1  A    between atoms: C_2  and  O_3
REMARK    2  A    between atoms: C_2  and  C_12
REMARK    3  A    between atoms: O_3  and  C_4
REMARK    4  A    between atoms: C_4  and  C_5
REMARK    5  A    between atoms: C_5  and  N_6
REMARK                            x       y       z     vdW  Elec       q    Type
REMARK                         _______ _______ _______ _____ _____    ______ ____
ROOT
ATOM      1  O   UNL     1       4.489   6.885  15.996  0.00  0.00    +0.000 OA
ATOM      2  C   UNL     1       4.657   6.220  17.006  0.00  0.00    +0.000 C 
ENDROOT
BRANCH   2   3
ATOM      3  C   UNL     1       3.642   5.270  17.542  0.00  0.00    +0.000 A 
ATOM      4  C   UNL     1       3.558   3.990  16.953  0.00  0.00    +0.000 A 
ATOM      5  C   UNL     1       2.747   2.991  17.508  0.00  0.00    +0.000 A 
ATOM      6  C   UNL     1       2.057   3.282  18.671  0.00  0.00    +0.000 A 
ATOM      7  C   UNL     1       2.124   4.553  19.251  0.00  0.00    +0.000 A 
ATOM      8  C   UNL     1       2.887   5.564  18.688  0.00  0.00    +0.000 A 
ATOM      9  C   UNL     1       1.301   4.610  20.502  0.00  0.00    +0.000 C 
ATOM     10  C   UNL     1       1.148   3.116  20.819  0.00  0.00    +0.000 C 
ATOM     11  C   UNL     1       1.173   2.379  19.472  0.00  0.00    +0.000 C 
ENDBRANCH   2   3
BRANCH   2  12
ATOM     12  O   UNL     1       5.811   6.134  17.710  0.00  0.00    +0.000 OA
BRANCH  12  13
ATOM     13  C   UNL     1       7.022   6.065  16.934  0.00  0.00    +0.000 C 
BRANCH  13  14
ATOM     14  C   UNL     1       7.396   4.701  16.351  0.00  0.00    +0.000 C 
BRANCH  14  15
ATOM     15  N   UNL     1       6.911   4.512  14.999  0.00  0.00    +0.000 N 
ATOM     16  C   UNL     1       5.977   3.490  14.652  0.00  0.00    +0.000 C 
ATOM     17  C   UNL     1       5.741   3.777  13.190  0.00  0.00    +0.000 C 
ATOM     18  O   UNL     1       6.905   4.499  12.763  0.00  0.00    +0.000 OA
ATOM     19  C   UNL     1       7.515   5.013  13.875  0.00  0.00    +0.000 C 
ATOM     20  O   UNL     1       8.462   5.781  13.839  0.00  0.00    +0.000 OA
ENDBRANCH  14  15
ENDBRANCH  13  14
ENDBRANCH  12  13
ENDBRANCH   2  12
TORSDOF 5
ENDMDL
MODEL 4
REMARK VINA RESULT:      -6.8      1.209      1.500
REMARK  Name = 
REMARK  5 active torsions:
REMARK  status: ('A' for Active; 'I' for Inactive)
REMARK    1  A    between atoms: C_2  and  O_3
REMARK    2  A    between atoms: C_2  and  C_12
REMARK    3  A    between atoms: O_3  and  C_4
REMARK    4  A    between atoms: C_4  and  C_5
REMARK    5  A    between atoms: C_5  and  N_6
REMARK                            x       y       z     vdW  Elec       q    Type
REMARK                         _______ _______ _______ _____ _____    ______ ____
ROOT
ATOM      1  O   UNL     1       5.179   5.825  17.841  0.00  0.00    +0.000 OA
ATOM      2  C   UNL     1       3.980   5.603  17.903  0.00  0.00    +0.000 C 
ENDROOT
BRANCH   2   3
ATOM      3  C   UNL     1       2.996   6.559  18.484  0.00  0.00    +0.000 A 
ATOM      4  C   UNL     1       2.544   6.327  19.801  0.00  0.00    +0.000 A 
ATOM      5  C   UNL     1       1.752   7.268  20.470  0.00  0.00    +0.000 A 
ATOM      6  C   UNL     1       1.451   8.449  19.816  0.00  0.00    +0.000 A 
ATOM      7  C   UNL     1       1.882   8.680  18.506  0.00  0.00    +0.000 A 
ATOM      8  C   UNL     1       2.630   7.739  17.816  0.00  0.00    +0.000 A 
ATOM      9  C   UNL     1       1.440  10.030  18.030  0.00  0.00    +0.000 C 
ATOM     10  C   UNL     1       1.124  10.720  19.365  0.00  0.00    +0.000 C 
ATOM     11  C   UNL     1       0.669   9.617  20.330  0.00  0.00    +0.000 C 
ENDBRANCH   2   3
BRANCH   2  12
ATOM     12  O   UNL     1       3.346   4.542  17.348  0.00  0.00    +0.000 OA
BRANCH  12  13
ATOM     13  C   UNL     1       4.008   3.269  17.478  0.00  0.00    +0.000 C 
BRANCH  13  14
ATOM     14  C   UNL     1       3.220   2.143  18.147  0.00  0.00    +0.000 C 
BRANCH  14  15
ATOM     15  N   UNL     1       2.580   2.554  19.380  0.00  0.00    +0.000 N 
ATOM     16  C   UNL     1       3.285   2.652  20.618  0.00  0.00    +0.000 C 
ATOM     17  C   UNL     1       2.216   3.192  21.535  0.00  0.00    +0.000 C 
ATOM     18  O   UNL     1       0.976   2.822  20.915  0.00  0.00    +0.000 OA
ATOM     19  C   UNL     1       1.227   2.553  19.597  0.00  0.00    +0.000 C 
ATOM     20  O   UNL     1       0.358   2.329  18.770  0.00  0.00    +0.000 OA
ENDBRANCH  14  15
ENDBRANCH  13  14
ENDBRANCH  12  13
ENDBRANCH   2  12
TORSDOF 5
ENDMDL
MODEL 5
REMARK VINA RESULT:      -6.8      2.410      4.531
REMARK  Name = 
REMARK  5 active torsions:
REMARK  status: ('A' for Active; 'I' for Inactive)
REMARK    1  A    between atoms: C_2  and  O_3
REMARK    2  A    between atoms: C_2  and  C_12
REMARK    3  A    between atoms: O_3  and  C_4
REMARK    4  A    between atoms: C_4  and  C_5
REMARK    5  A    between atoms: C_5  and  N_6
REMARK                            x       y       z     vdW  Elec       q    Type
REMARK                         _______ _______ _______ _____ _____    ______ ____
ROOT
ATOM      1  O   UNL     1       2.559   8.373  17.299  0.00  0.00    +0.000 OA
ATOM      2  C   UNL     1       3.153   7.440  17.816  0.00  0.00    +0.000 C 
ENDROOT
BRANCH   2   3
ATOM      3  C   UNL     1       2.467   6.270  18.435  0.00  0.00    +0.000 A 
ATOM      4  C   UNL     1       1.776   5.382  17.583  0.00  0.00    +0.000 A 
ATOM      5  C   UNL     1       1.251   4.178  18.069  0.00  0.00    +0.000 A 
ATOM      6  C   UNL     1       1.459   3.866  19.400  0.00  0.00    +0.000 A 
ATOM      7  C   UNL     1       2.129   4.748  20.253  0.00  0.00    +0.000 A 
ATOM      8  C   UNL     1       2.616   5.962  19.796  0.00  0.00    +0.000 A 
ATOM      9  C   UNL     1       2.235   4.177  21.634  0.00  0.00    +0.000 C 
ATOM     10  C   UNL     1       1.973   2.690  21.355  0.00  0.00    +0.000 C 
ATOM     11  C   UNL     1       1.041   2.631  20.137  0.00  0.00    +0.000 C 
ENDBRANCH   2   3
BRANCH   2  12
ATOM     12  O   UNL     1       4.494   7.250  17.791  0.00  0.00    +0.000 OA
BRANCH  12  13
ATOM     13  C   UNL     1       5.028   6.654  16.594  0.00  0.00    +0.000 C 
BRANCH  13  14
ATOM     14  C   UNL     1       6.081   5.559  16.774  0.00  0.00    +0.000 C 
BRANCH  14  15
ATOM     15  N   UNL     1       5.637   4.482  17.634  0.00  0.00    +0.000 N 
ATOM     16  C   UNL     1       4.650   3.532  17.231  0.00  0.00    +0.000 C 
ATOM     17  C   UNL     1       4.621   2.602  18.418  0.00  0.00    +0.000 C 
ATOM     18  O   UNL     1       5.123   3.383  19.512  0.00  0.00    +0.000 OA
ATOM     19  C   UNL     1       5.817   4.440  18.992  0.00  0.00    +0.000 C 
ATOM     20  O   UNL     1       6.471   5.223  19.663  0.00  0.00    +0.000 OA
ENDBRANCH  14  15
ENDBRANCH  13  14
ENDBRANCH  12  13
ENDBRANCH   2  12
TORSDOF 5
ENDMDL
MODEL 6
REMARK VINA RESULT:      -6.7      2.305      5.181
REMARK  Name = 
REMARK  5 active torsions:
REMARK  status: ('A' for Active; 'I' for Inactive)
REMARK    1  A    between atoms: C_2  and  O_3
REMARK    2  A    between atoms: C_2  and  C_12
REMARK    3  A    between atoms: O_3  and  C_4
REMARK    4  A    between atoms: C_4  and  C_5
REMARK    5  A    between atoms: C_5  and  N_6
REMARK                            x       y       z     vdW  Elec       q    Type
REMARK                         _______ _______ _______ _____ _____    ______ ____
ROOT
ATOM      1  O   UNL     1       5.062   1.682  20.511  0.00  0.00    +0.000 OA
ATOM      2  C   UNL     1       4.290   2.324  19.815  0.00  0.00    +0.000 C 
ENDROOT
BRANCH   2   3
ATOM      3  C   UNL     1       4.729   3.376  18.856  0.00  0.00    +0.000 A 
ATOM      4  C   UNL     1       5.385   4.513  19.375  0.00  0.00    +0.000 A 
ATOM      5  C   UNL     1       5.971   5.460  18.525  0.00  0.00    +0.000 A 
ATOM      6  C   UNL     1       5.919   5.233  17.162  0.00  0.00    +0.000 A 
ATOM      7  C   UNL     1       5.257   4.117  16.640  0.00  0.00    +0.000 A 
ATOM      8  C   UNL     1       4.635   3.195  17.467  0.00  0.00    +0.000 A 
ATOM      9  C   UNL     1       5.353   4.093  15.145  0.00  0.00    +0.000 C 
ATOM     10  C   UNL     1       6.533   5.047  14.913  0.00  0.00    +0.000 C 
ATOM     11  C   UNL     1       6.505   6.064  16.064  0.00  0.00    +0.000 C 
ENDBRANCH   2   3
BRANCH   2  12
ATOM     12  O   UNL     1       2.959   2.099  19.702  0.00  0.00    +0.000 OA
BRANCH  12  13
ATOM     13  C   UNL     1       2.132   2.653  20.744  0.00  0.00    +0.000 C 
BRANCH  13  14
ATOM     14  C   UNL     1       1.096   3.697  20.325  0.00  0.00    +0.000 C 
BRANCH  14  15
ATOM     15  N   UNL     1       1.677   4.816  19.610  0.00  0.00    +0.000 N 
ATOM     16  C   UNL     1       2.013   6.047  20.249  0.00  0.00    +0.000 C 
ATOM     17  C   UNL     1       2.648   6.814  19.116  0.00  0.00    +0.000 C 
ATOM     18  O   UNL     1       2.122   6.214  17.924  0.00  0.00    +0.000 OA
ATOM     19  C   UNL     1       1.649   4.972  18.249  0.00  0.00    +0.000 C 
ATOM     20  O   UNL     1       1.251   4.159  17.431  0.00  0.00    +0.000 OA
ENDBRANCH  14  15
ENDBRANCH  13  14
ENDBRANCH  12  13
ENDBRANCH   2  12
TORSDOF 5
ENDMDL
MODEL 7
REMARK VINA RESULT:      -6.6      2.707      4.440
REMARK  Name = 
REMARK  5 active torsions:
REMARK  status: ('A' for Active; 'I' for Inactive)
REMARK    1  A    between atoms: C_2  and  O_3
REMARK    2  A    between atoms: C_2  and  C_12
REMARK    3  A    between atoms: O_3  and  C_4
REMARK    4  A    between atoms: C_4  and  C_5
REMARK    5  A    between atoms: C_5  and  N_6
REMARK                            x       y       z     vdW  Elec       q    Type
REMARK                         _______ _______ _______ _____ _____    ______ ____
ROOT
ATOM      1  O   UNL     1       2.044   4.642  20.171  0.00  0.00    +0.000 OA
ATOM      2  C   UNL     1       2.801   5.509  19.763  0.00  0.00    +0.000 C 
ENDROOT
BRANCH   2   3
ATOM      3  C   UNL     1       2.379   6.915  19.509  0.00  0.00    +0.000 A 
ATOM      4  C   UNL     1       2.507   7.417  18.196  0.00  0.00    +0.000 A 
ATOM      5  C   UNL     1       1.980   8.667  17.846  0.00  0.00    +0.000 A 
ATOM      6  C   UNL     1       1.299   9.382  18.815  0.00  0.00    +0.000 A 
ATOM      7  C   UNL     1       1.182   8.897  20.121  0.00  0.00    +0.000 A 
ATOM      8  C   UNL     1       1.736   7.683  20.492  0.00  0.00    +0.000 A 
ATOM      9  C   UNL     1       0.394   9.846  20.972  0.00  0.00    +0.000 C 
ATOM     10  C   UNL     1      -0.318  10.679  19.896  0.00  0.00    +0.000 C 
ATOM     11  C   UNL     1       0.614  10.705  18.676  0.00  0.00    +0.000 C 
ENDBRANCH   2   3
BRANCH   2  12
ATOM     12  O   UNL     1       4.140   5.375  19.609  0.00  0.00    +0.000 OA
BRANCH  12  13
ATOM     13  C   UNL     1       4.574   4.627  18.457  0.00  0.00    +0.000 C 
BRANCH  13  14
ATOM     14  C   UNL     1       6.066   4.667  18.126  0.00  0.00    +0.000 C 
BRANCH  14  15
ATOM     15  N   UNL     1       6.328   4.793  16.706  0.00  0.00    +0.000 N 
ATOM     16  C   UNL     1       6.059   3.743  15.777  0.00  0.00    +0.000 C 
ATOM     17  C   UNL     1       6.412   4.399  14.466  0.00  0.00    +0.000 C 
ATOM     18  O   UNL     1       7.316   5.457  14.814  0.00  0.00    +0.000 OA
ATOM     19  C   UNL     1       7.152   5.732  16.144  0.00  0.00    +0.000 C 
ATOM     20  O   UNL     1       7.689   6.667  16.718  0.00  0.00    +0.000 OA
ENDBRANCH  14  15
ENDBRANCH  13  14
ENDBRANCH  12  13
ENDBRANCH   2  12
TORSDOF 5
ENDMDL
MODEL 8
REMARK VINA RESULT:      -6.6      2.572      3.770
REMARK  Name = 
REMARK  5 active torsions:
REMARK  status: ('A' for Active; 'I' for Inactive)
REMARK    1  A    between atoms: C_2  and  O_3
REMARK    2  A    between atoms: C_2  and  C_12
REMARK    3  A    between atoms: O_3  and  C_4
REMARK    4  A    between atoms: C_4  and  C_5
REMARK    5  A    between atoms: C_5  and  N_6
REMARK                            x       y       z     vdW  Elec       q    Type
REMARK                         _______ _______ _______ _____ _____    ______ ____
ROOT
ATOM      1  O   UNL     1       3.942   7.246  17.226  0.00  0.00    +0.000 OA
ATOM      2  C   UNL     1       3.286   6.874  18.186  0.00  0.00    +0.000 C 
ENDROOT
BRANCH   2   3
ATOM      3  C   UNL     1       2.271   7.725  18.868  0.00  0.00    +0.000 A 
ATOM      4  C   UNL     1       1.966   7.441  20.216  0.00  0.00    +0.000 A 
ATOM      5  C   UNL     1       1.150   8.296  20.968  0.00  0.00    +0.000 A 
ATOM      6  C   UNL     1       0.679   9.447  20.364  0.00  0.00    +0.000 A 
ATOM      7  C   UNL     1       0.965   9.727  19.024  0.00  0.00    +0.000 A 
ATOM      8  C   UNL     1       1.734   8.868  18.255  0.00  0.00    +0.000 A 
ATOM      9  C   UNL     1       0.353  11.031  18.611  0.00  0.00    +0.000 C 
ATOM     10  C   UNL     1       0.095  11.678  19.979  0.00  0.00    +0.000 C 
ATOM     11  C   UNL     1      -0.162  10.529  20.965  0.00  0.00    +0.000 C 
ENDBRANCH   2   3
BRANCH   2  12
ATOM     12  O   UNL     1       3.272   5.617  18.690  0.00  0.00    +0.000 OA
BRANCH  12  13
ATOM     13  C   UNL     1       4.513   5.143  19.247  0.00  0.00    +0.000 C 
BRANCH  13  14
ATOM     14  C   UNL     1       5.184   3.964  18.541  0.00  0.00    +0.000 C 
BRANCH  14  15
ATOM     15  N   UNL     1       5.938   4.360  17.368  0.00  0.00    +0.000 N 
ATOM     16  C   UNL     1       5.416   4.249  16.044  0.00  0.00    +0.000 C 
ATOM     17  C   UNL     1       6.526   4.862  15.228  0.00  0.00    +0.000 C 
ATOM     18  O   UNL     1       7.700   4.731  16.043  0.00  0.00    +0.000 OA
ATOM     19  C   UNL     1       7.296   4.539  17.336  0.00  0.00    +0.000 C 
ATOM     20  O   UNL     1       8.056   4.516  18.291  0.00  0.00    +0.000 OA
ENDBRANCH  14  15
ENDBRANCH  13  14
ENDBRANCH  12  13
ENDBRANCH   2  12
TORSDOF 5
ENDMDL
MODEL 9
REMARK VINA RESULT:      -6.6      2.192      4.958
REMARK  Name = 
REMARK  5 active torsions:
REMARK  status: ('A' for Active; 'I' for Inactive)
REMARK    1  A    between atoms: C_2  and  O_3
REMARK    2  A    between atoms: C_2  and  C_12
REMARK    3  A    between atoms: O_3  and  C_4
REMARK    4  A    between atoms: C_4  and  C_5
REMARK    5  A    between atoms: C_5  and  N_6
REMARK                            x       y       z     vdW  Elec       q    Type
REMARK                         _______ _______ _______ _____ _____    ______ ____
ROOT
ATOM      1  O   UNL     1       5.070   1.767  20.841  0.00  0.00    +0.000 OA
ATOM      2  C   UNL     1       4.283   2.314  20.084  0.00  0.00    +0.000 C 
ENDROOT
BRANCH   2   3
ATOM      3  C   UNL     1       4.704   3.123  18.905  0.00  0.00    +0.000 A 
ATOM      4  C   UNL     1       4.206   2.753  17.637  0.00  0.00    +0.000 A 
ATOM      5  C   UNL     1       4.423   3.560  16.513  0.00  0.00    +0.000 A 
ATOM      6  C   UNL     1       5.109   4.748  16.685  0.00  0.00    +0.000 A 
ATOM      7  C   UNL     1       5.618   5.113  17.936  0.00  0.00    +0.000 A 
ATOM      8  C   UNL     1       5.449   4.304  19.048  0.00  0.00    +0.000 A 
ATOM      9  C   UNL     1       6.306   6.442  17.862  0.00  0.00    +0.000 C 
ATOM     10  C   UNL     1       5.722   7.001  16.556  0.00  0.00    +0.000 C 
ATOM     11  C   UNL     1       5.423   5.791  15.659  0.00  0.00    +0.000 C 
ENDBRANCH   2   3
BRANCH   2  12
ATOM     12  O   UNL     1       2.937   2.169  20.109  0.00  0.00    +0.000 OA
BRANCH  12  13
ATOM     13  C   UNL     1       2.231   2.969  21.076  0.00  0.00    +0.000 C 
BRANCH  13  14
ATOM     14  C   UNL     1       1.176   3.938  20.539  0.00  0.00    +0.000 C 
BRANCH  14  15
ATOM     15  N   UNL     1       1.734   4.967  19.686  0.00  0.00    +0.000 N 
ATOM     16  C   UNL     1       2.144   6.241  20.184  0.00  0.00    +0.000 C 
ATOM     17  C   UNL     1       2.719   6.881  18.946  0.00  0.00    +0.000 C 
ATOM     18  O   UNL     1       2.099   6.191  17.851  0.00  0.00    +0.000 OA
ATOM     19  C   UNL     1       1.618   5.000  18.321  0.00  0.00    +0.000 C 
ATOM     20  O   UNL     1       1.145   4.127  17.610  0.00  0.00    +0.000 OA
ENDBRANCH  14  15
ENDBRANCH  13  14
ENDBRANCH  12  13
ENDBRANCH   2  12
TORSDOF 5
ENDMDL
