MODEL 1
REMARK VINA RESULT:      -6.3      0.000      0.000
REMARK  Name = 
REMARK  6 active torsions:
REMARK  status: ('A' for Active; 'I' for Inactive)
REMARK    1  A    between atoms: C_1  and  C_2
REMARK    2  A    between atoms: C_2  and  C_3
REMARK    3  A    between atoms: C_15  and  C_16
REMARK    4  A    between atoms: C_16  and  O_17
REMARK    5  A    between atoms: C_25  and  C_26
REMARK    6  A    between atoms: C_26  and  O_27
REMARK                            x       y       z     vdW  Elec       q    Type
REMARK                         _______ _______ _______ _____ _____    ______ ____
ROOT
ATOM      1  C   UNL     1      -2.201   9.451  16.145  0.00  0.00    +0.000 C 
ATOM      2  C   UNL     1      -2.687  10.484  17.159  0.00  0.00    +0.000 C 
ATOM      3  C   UNL     1      -4.204  10.608  17.087  0.00  0.00    +0.000 C 
ATOM      4  O   UNL     1      -2.307  11.885  17.052  0.00  0.00    +0.000 OA
ATOM      5  C   UNL     1      -1.783  12.363  18.337  0.00  0.00    +0.000 C 
ATOM      6  C   UNL     1      -2.549  12.299  19.867  0.00  0.00    +0.000 C 
ATOM      7  C   UNL     1      -1.414  11.608  20.214  0.00  0.00    +0.000 C 
ATOM      8  C   UNL     1      -0.608  11.566  21.480  0.00  0.00    +0.000 C 
ATOM      9  C   UNL     1       0.552  10.606  21.570  0.00  0.00    +0.000 C 
ATOM     10  C   UNL     1       0.228   9.281  20.872  0.00  0.00    +0.000 C 
ATOM     11  C   UNL     1       0.671   9.315  19.407  0.00  0.00    +0.000 C 
ATOM     12  C   UNL     1       0.245  10.564  18.607  0.00  0.00    +0.000 C 
ATOM     13  C   UNL     1      -1.202  10.989  18.868  0.00  0.00    +0.000 C 
ATOM     14  O   UNL     1      -2.162   9.999  18.420  0.00  0.00    +0.000 OA
ATOM     15  C   UNL     1      -0.372  13.098  21.788  0.00  0.00    +0.000 C 
ATOM     16  C   UNL     1      -0.932  13.367  23.175  0.00  0.00    +0.000 C 
ATOM     17  C   UNL     1      -2.278  13.522  23.211  0.00  0.00    +0.000 C 
ATOM     18  C   UNL     1      -3.123  12.663  22.297  0.00  0.00    +0.000 C 
ATOM     19  C   UNL     1      -3.424  13.081  21.025  0.00  0.00    +0.000 C 
ENDROOT
BRANCH  15  20
ATOM     20  C   UNL     1       0.831  13.904  21.255  0.00  0.00    +0.000 C 
ATOM     21  C   UNL     1       1.896  12.931  20.668  0.00  0.00    +0.000 C 
ATOM     22  C   UNL     1       2.403  13.631  19.426  0.00  0.00    +0.000 C 
ATOM     23  C   UNL     1       1.190  14.407  18.935  0.00  0.00    +0.000 C 
ATOM     24  C   UNL     1       0.517  14.933  20.183  0.00  0.00    +0.000 C 
BRANCH  20  25
ATOM     25  O   UNL     1       1.454  14.604  22.350  0.00  0.00    +0.000 OA
ATOM     26  H   UNL     1       2.343  14.228  22.492  0.00  0.00    +0.000 HD
ENDBRANCH  20  25
ENDBRANCH  15  20
BRANCH  19  27
ATOM     27  C   UNL     1      -4.652  13.980  21.031  0.00  0.00    +0.000 C 
BRANCH  27  28
ATOM     28  O   UNL     1      -5.118  14.282  19.706  0.00  0.00    +0.000 OA
ATOM     29  H   UNL     1      -6.089  14.169  19.682  0.00  0.00    +0.000 HD
ENDBRANCH  27  28
ENDBRANCH  19  27
TORSDOF 4
ENDMDL
MODEL 2
REMARK VINA RESULT:      -6.0      1.806      2.752
REMARK  Name = 
REMARK  6 active torsions:
REMARK  status: ('A' for Active; 'I' for Inactive)
REMARK    1  A    between atoms: C_1  and  C_2
REMARK    2  A    between atoms: C_2  and  C_3
REMARK    3  A    between atoms: C_15  and  C_16
REMARK    4  A    between atoms: C_16  and  O_17
REMARK    5  A    between atoms: C_25  and  C_26
REMARK    6  A    between atoms: C_26  and  O_27
REMARK                            x       y       z     vdW  Elec       q    Type
REMARK                         _______ _______ _______ _____ _____    ______ ____
ROOT
ATOM      1  C   UNL     1       0.261   9.690  17.956  0.00  0.00    +0.000 C 
ATOM      2  C   UNL     1      -1.024  10.494  18.143  0.00  0.00    +0.000 C 
ATOM      3  C   UNL     1      -2.080  10.024  17.150  0.00  0.00    +0.000 C 
ATOM      4  O   UNL     1      -1.060  11.929  17.899  0.00  0.00    +0.000 OA
ATOM      5  C   UNL     1      -1.662  12.619  19.047  0.00  0.00    +0.000 C 
ATOM      6  C   UNL     1      -3.188  12.322  19.761  0.00  0.00    +0.000 C 
ATOM      7  C   UNL     1      -2.431  12.133  20.891  0.00  0.00    +0.000 C 
ATOM      8  C   UNL     1      -2.682  12.450  22.337  0.00  0.00    +0.000 C 
ATOM      9  C   UNL     1      -1.666  12.014  23.362  0.00  0.00    +0.000 C 
ATOM     10  C   UNL     1      -1.082  10.641  23.012  0.00  0.00    +0.000 C 
ATOM     11  C   UNL     1       0.182  10.789  22.163  0.00  0.00    +0.000 C 
ATOM     12  C   UNL     1       0.073  11.748  20.958  0.00  0.00    +0.000 C 
ATOM     13  C   UNL     1      -1.233  11.594  20.175  0.00  0.00    +0.000 C 
ATOM     14  O   UNL     1      -1.351  10.295  19.541  0.00  0.00    +0.000 OA
ATOM     15  C   UNL     1      -3.128  13.966  22.283  0.00  0.00    +0.000 C 
ATOM     16  C   UNL     1      -4.505  14.050  22.921  0.00  0.00    +0.000 C 
ATOM     17  C   UNL     1      -5.519  13.678  22.102  0.00  0.00    +0.000 C 
ATOM     18  C   UNL     1      -5.286  12.527  21.149  0.00  0.00    +0.000 C 
ATOM     19  C   UNL     1      -4.775  12.750  19.896  0.00  0.00    +0.000 C 
ENDROOT
BRANCH  15  20
ATOM     20  C   UNL     1      -2.144  15.152  22.374  0.00  0.00    +0.000 C 
ATOM     21  C   UNL     1      -0.882  14.727  23.183  0.00  0.00    +0.000 C 
ATOM     22  C   UNL     1       0.272  15.375  22.448  0.00  0.00    +0.000 C 
ATOM     23  C   UNL     1      -0.190  15.386  20.999  0.00  0.00    +0.000 C 
ATOM     24  C   UNL     1      -1.665  15.719  21.049  0.00  0.00    +0.000 C 
BRANCH  20  25
ATOM     25  O   UNL     1      -2.769  16.230  23.099  0.00  0.00    +0.000 OA
ATOM     26  H   UNL     1      -3.687  16.325  22.781  0.00  0.00    +0.000 HD
ENDBRANCH  20  25
ENDBRANCH  15  20
BRANCH  19  27
ATOM     27  C   UNL     1      -5.885  13.108  18.918  0.00  0.00    +0.000 C 
BRANCH  27  28
ATOM     28  O   UNL     1      -5.519  12.855  17.552  0.00  0.00    +0.000 OA
ATOM     29  H   UNL     1      -5.812  11.953  17.312  0.00  0.00    +0.000 HD
ENDBRANCH  27  28
ENDBRANCH  19  27
TORSDOF 4
ENDMDL
MODEL 3
REMARK VINA RESULT:      -5.9      1.857      5.751
REMARK  Name = 
REMARK  6 active torsions:
REMARK  status: ('A' for Active; 'I' for Inactive)
REMARK    1  A    between atoms: C_1  and  C_2
REMARK    2  A    between atoms: C_2  and  C_3
REMARK    3  A    between atoms: C_15  and  C_16
REMARK    4  A    between atoms: C_16  and  O_17
REMARK    5  A    between atoms: C_25  and  C_26
REMARK    6  A    between atoms: C_26  and  O_27
REMARK                            x       y       z     vdW  Elec       q    Type
REMARK                         _______ _______ _______ _____ _____    ______ ____
ROOT
ATOM      1  C   UNL     1      -2.168  15.120  24.811  0.00  0.00    +0.000 C 
ATOM      2  C   UNL     1      -1.235  15.298  23.615  0.00  0.00    +0.000 C 
ATOM      3  C   UNL     1      -0.280  16.457  23.870  0.00  0.00    +0.000 C 
ATOM      4  O   UNL     1      -1.749  15.669  22.305  0.00  0.00    +0.000 OA
ATOM      5  C   UNL     1      -1.230  14.751  21.283  0.00  0.00    +0.000 C 
ATOM      6  C   UNL     1       0.406  14.374  20.951  0.00  0.00    +0.000 C 
ATOM      7  C   UNL     1      -0.019  13.091  21.192  0.00  0.00    +0.000 C 
ATOM      8  C   UNL     1       0.362  11.772  20.585  0.00  0.00    +0.000 C 
ATOM      9  C   UNL     1      -0.233  10.510  21.158  0.00  0.00    +0.000 C 
ATOM     10  C   UNL     1      -0.352  10.599  22.683  0.00  0.00    +0.000 C 
ATOM     11  C   UNL     1      -1.720  11.152  23.091  0.00  0.00    +0.000 C 
ATOM     12  C   UNL     1      -2.174  12.430  22.353  0.00  0.00    +0.000 C 
ATOM     13  C   UNL     1      -1.061  13.470  22.198  0.00  0.00    +0.000 C 
ATOM     14  O   UNL     1      -0.611  13.997  23.472  0.00  0.00    +0.000 OA
ATOM     15  C   UNL     1       0.230  12.058  19.036  0.00  0.00    +0.000 C 
ATOM     16  C   UNL     1       1.582  11.755  18.409  0.00  0.00    +0.000 C 
ATOM     17  C   UNL     1       2.496  12.745  18.558  0.00  0.00    +0.000 C 
ATOM     18  C   UNL     1       2.513  13.516  19.858  0.00  0.00    +0.000 C 
ATOM     19  C   UNL     1       1.739  14.638  20.016  0.00  0.00    +0.000 C 
ENDROOT
BRANCH  15  20
ATOM     20  C   UNL     1      -1.073  11.852  18.235  0.00  0.00    +0.000 C 
ATOM     21  C   UNL     1      -1.125  10.398  17.681  0.00  0.00    +0.000 C 
ATOM     22  C   UNL     1      -2.572   9.983  17.847  0.00  0.00    +0.000 C 
ATOM     23  C   UNL     1      -3.016  10.734  19.093  0.00  0.00    +0.000 C 
ATOM     24  C   UNL     1      -2.364  12.096  18.996  0.00  0.00    +0.000 C 
BRANCH  20  25
ATOM     25  O   UNL     1      -1.074  12.739  17.098  0.00  0.00    +0.000 OA
ATOM     26  H   UNL     1      -0.197  12.696  16.671  0.00  0.00    +0.000 HD
ENDBRANCH  20  25
ENDBRANCH  15  20
BRANCH  19  27
ATOM     27  C   UNL     1       2.457  15.867  19.478  0.00  0.00    +0.000 C 
BRANCH  27  28
ATOM     28  O   UNL     1       1.657  16.605  18.540  0.00  0.00    +0.000 OA
ATOM     29  H   UNL     1       0.764  16.208  18.509  0.00  0.00    +0.000 HD
ENDBRANCH  27  28
ENDBRANCH  19  27
TORSDOF 4
ENDMDL
MODEL 4
REMARK VINA RESULT:      -5.9      1.899      3.335
REMARK  Name = 
REMARK  6 active torsions:
REMARK  status: ('A' for Active; 'I' for Inactive)
REMARK    1  A    between atoms: C_1  and  C_2
REMARK    2  A    between atoms: C_2  and  C_3
REMARK    3  A    between atoms: C_15  and  C_16
REMARK    4  A    between atoms: C_16  and  O_17
REMARK    5  A    between atoms: C_25  and  C_26
REMARK    6  A    between atoms: C_26  and  O_27
REMARK                            x       y       z     vdW  Elec       q    Type
REMARK                         _______ _______ _______ _____ _____    ______ ____
ROOT
ATOM      1  C   UNL     1       0.406   9.815  18.019  0.00  0.00    +0.000 C 
ATOM      2  C   UNL     1      -0.897  10.592  18.187  0.00  0.00    +0.000 C 
ATOM      3  C   UNL     1      -1.910  10.138  17.143  0.00  0.00    +0.000 C 
ATOM      4  O   UNL     1      -0.949  12.033  17.988  0.00  0.00    +0.000 OA
ATOM      5  C   UNL     1      -1.602  12.675  19.136  0.00  0.00    +0.000 C 
ATOM      6  C   UNL     1      -3.147  12.331  19.786  0.00  0.00    +0.000 C 
ATOM      7  C   UNL     1      -2.427  12.117  20.936  0.00  0.00    +0.000 C 
ATOM      8  C   UNL     1      -2.733  12.382  22.381  0.00  0.00    +0.000 C 
ATOM      9  C   UNL     1      -1.746  11.928  23.427  0.00  0.00    +0.000 C 
ATOM     10  C   UNL     1      -1.127  10.577  23.053  0.00  0.00    +0.000 C 
ATOM     11  C   UNL     1       0.164  10.772  22.254  0.00  0.00    +0.000 C 
ATOM     12  C   UNL     1       0.080  11.769  21.078  0.00  0.00    +0.000 C 
ATOM     13  C   UNL     1      -1.195  11.620  20.245  0.00  0.00    +0.000 C 
ATOM     14  O   UNL     1      -1.270  10.341  19.565  0.00  0.00    +0.000 OA
ATOM     15  C   UNL     1      -3.202  13.891  22.361  0.00  0.00    +0.000 C 
ATOM     16  C   UNL     1      -4.602  13.932  22.952  0.00  0.00    +0.000 C 
ATOM     17  C   UNL     1      -5.581  13.572  22.087  0.00  0.00    +0.000 C 
ATOM     18  C   UNL     1      -5.295  12.457  21.105  0.00  0.00    +0.000 C 
ATOM     19  C   UNL     1      -4.745  12.729  19.879  0.00  0.00    +0.000 C 
ENDROOT
BRANCH  15  20
ATOM     20  C   UNL     1      -2.242  15.089  22.525  0.00  0.00    +0.000 C 
ATOM     21  C   UNL     1      -2.972  16.250  23.263  0.00  0.00    +0.000 C 
ATOM     22  C   UNL     1      -1.926  16.817  24.199  0.00  0.00    +0.000 C 
ATOM     23  C   UNL     1      -1.076  15.607  24.559  0.00  0.00    +0.000 C 
ATOM     24  C   UNL     1      -0.955  14.807  23.281  0.00  0.00    +0.000 C 
BRANCH  20  25
ATOM     25  O   UNL     1      -1.872  15.581  21.221  0.00  0.00    +0.000 OA
ATOM     26  H   UNL     1      -1.140  16.217  21.328  0.00  0.00    +0.000 HD
ENDBRANCH  20  25
ENDBRANCH  15  20
BRANCH  19  27
ATOM     27  C   UNL     1      -5.826  13.102  18.875  0.00  0.00    +0.000 C 
BRANCH  27  28
ATOM     28  O   UNL     1      -5.460  12.775  17.524  0.00  0.00    +0.000 OA
ATOM     29  H   UNL     1      -4.615  13.218  17.313  0.00  0.00    +0.000 HD
ENDBRANCH  27  28
ENDBRANCH  19  27
TORSDOF 4
ENDMDL
MODEL 5
REMARK VINA RESULT:      -5.8      1.911      3.689
REMARK  Name = 
REMARK  6 active torsions:
REMARK  status: ('A' for Active; 'I' for Inactive)
REMARK    1  A    between atoms: C_1  and  C_2
REMARK    2  A    between atoms: C_2  and  C_3
REMARK    3  A    between atoms: C_15  and  C_16
REMARK    4  A    between atoms: C_16  and  O_17
REMARK    5  A    between atoms: C_25  and  C_26
REMARK    6  A    between atoms: C_26  and  O_27
REMARK                            x       y       z     vdW  Elec       q    Type
REMARK                         _______ _______ _______ _____ _____    ______ ____
ROOT
ATOM      1  C   UNL     1      -7.446  12.017  18.563  0.00  0.00    +0.000 C 
ATOM      2  C   UNL     1      -6.384  12.324  19.616  0.00  0.00    +0.000 C 
ATOM      3  C   UNL     1      -7.017  12.341  21.002  0.00  0.00    +0.000 C 
ATOM      4  O   UNL     1      -5.687  13.602  19.635  0.00  0.00    +0.000 OA
ATOM      5  C   UNL     1      -4.237  13.382  19.702  0.00  0.00    +0.000 C 
ATOM      6  C   UNL     1      -3.371  12.465  20.859  0.00  0.00    +0.000 C 
ATOM      7  C   UNL     1      -2.932  11.793  19.746  0.00  0.00    +0.000 C 
ATOM      8  C   UNL     1      -1.612  11.164  19.403  0.00  0.00    +0.000 C 
ATOM      9  C   UNL     1      -1.486  10.400  18.109  0.00  0.00    +0.000 C 
ATOM     10  C   UNL     1      -2.765   9.612  17.806  0.00  0.00    +0.000 C 
ATOM     11  C   UNL     1      -3.726  10.442  16.953  0.00  0.00    +0.000 C 
ATOM     12  C   UNL     1      -3.982  11.884  17.440  0.00  0.00    +0.000 C 
ATOM     13  C   UNL     1      -4.187  11.987  18.954  0.00  0.00    +0.000 C 
ATOM     14  O   UNL     1      -5.383  11.299  19.401  0.00  0.00    +0.000 OA
ATOM     15  C   UNL     1      -0.587  12.325  19.721  0.00  0.00    +0.000 C 
ATOM     16  C   UNL     1       0.400  11.782  20.742  0.00  0.00    +0.000 C 
ATOM     17  C   UNL     1      -0.062  11.783  22.016  0.00  0.00    +0.000 C 
ATOM     18  C   UNL     1      -1.521  11.459  22.249  0.00  0.00    +0.000 C 
ATOM     19  C   UNL     1      -2.468  12.451  22.239  0.00  0.00    +0.000 C 
ENDROOT
BRANCH  15  20
ATOM     20  C   UNL     1      -0.150  13.388  18.691  0.00  0.00    +0.000 C 
ATOM     21  C   UNL     1      -0.531  14.807  19.206  0.00  0.00    +0.000 C 
ATOM     22  C   UNL     1       0.646  15.677  18.820  0.00  0.00    +0.000 C 
ATOM     23  C   UNL     1       1.832  14.727  18.899  0.00  0.00    +0.000 C 
ATOM     24  C   UNL     1       1.329  13.410  18.349  0.00  0.00    +0.000 C 
BRANCH  20  25
ATOM     25  O   UNL     1      -0.870  13.177  17.459  0.00  0.00    +0.000 OA
ATOM     26  H   UNL     1      -0.333  12.601  16.883  0.00  0.00    +0.000 HD
ENDBRANCH  20  25
ENDBRANCH  15  20
BRANCH  19  27
ATOM     27  C   UNL     1      -2.573  13.109  23.607  0.00  0.00    +0.000 C 
BRANCH  27  28
ATOM     28  O   UNL     1      -3.794  12.773  24.287  0.00  0.00    +0.000 OA
ATOM     29  H   UNL     1      -3.571  12.334  25.132  0.00  0.00    +0.000 HD
ENDBRANCH  27  28
ENDBRANCH  19  27
TORSDOF 4
ENDMDL
MODEL 6
REMARK VINA RESULT:      -5.8      2.063      4.495
REMARK  Name = 
REMARK  6 active torsions:
REMARK  status: ('A' for Active; 'I' for Inactive)
REMARK    1  A    between atoms: C_1  and  C_2
REMARK    2  A    between atoms: C_2  and  C_3
REMARK    3  A    between atoms: C_15  and  C_16
REMARK    4  A    between atoms: C_16  and  O_17
REMARK    5  A    between atoms: C_25  and  C_26
REMARK    6  A    between atoms: C_26  and  O_27
REMARK                            x       y       z     vdW  Elec       q    Type
REMARK                         _______ _______ _______ _____ _____    ______ ____
ROOT
ATOM      1  C   UNL     1       1.078  10.526  19.583  0.00  0.00    +0.000 C 
ATOM      2  C   UNL     1      -0.305  10.874  19.036  0.00  0.00    +0.000 C 
ATOM      3  C   UNL     1      -0.683   9.903  17.924  0.00  0.00    +0.000 C 
ATOM      4  O   UNL     1      -0.557  12.143  18.369  0.00  0.00    +0.000 OA
ATOM      5  C   UNL     1      -1.739  12.790  18.951  0.00  0.00    +0.000 C 
ATOM      6  C   UNL     1      -3.312  12.137  19.118  0.00  0.00    +0.000 C 
ATOM      7  C   UNL     1      -3.104  12.423  20.445  0.00  0.00    +0.000 C 
ATOM      8  C   UNL     1      -4.026  12.899  21.530  0.00  0.00    +0.000 C 
ATOM      9  C   UNL     1      -3.491  13.023  22.934  0.00  0.00    +0.000 C 
ATOM     10  C   UNL     1      -2.516  11.885  23.257  0.00  0.00    +0.000 C 
ATOM     11  C   UNL     1      -1.079  12.289  22.922  0.00  0.00    +0.000 C 
ATOM     12  C   UNL     1      -0.866  12.917  21.528  0.00  0.00    +0.000 C 
ATOM     13  C   UNL     1      -1.625  12.194  20.413  0.00  0.00    +0.000 C 
ATOM     14  O   UNL     1      -1.155  10.837  20.210  0.00  0.00    +0.000 OA
ATOM     15  C   UNL     1      -4.736  14.141  20.857  0.00  0.00    +0.000 C 
ATOM     16  C   UNL     1      -6.232  13.875  20.894  0.00  0.00    +0.000 C 
ATOM     17  C   UNL     1      -6.672  13.042  19.920  0.00  0.00    +0.000 C 
ATOM     18  C   UNL     1      -5.790  11.881  19.518  0.00  0.00    +0.000 C 
ATOM     19  C   UNL     1      -4.849  12.027  18.531  0.00  0.00    +0.000 C 
ENDROOT
BRANCH  15  20
ATOM     20  C   UNL     1      -4.190  15.582  20.931  0.00  0.00    +0.000 C 
ATOM     21  C   UNL     1      -4.737  16.287  22.207  0.00  0.00    +0.000 C 
ATOM     22  C   UNL     1      -3.564  17.090  22.726  0.00  0.00    +0.000 C 
ATOM     23  C   UNL     1      -2.356  16.256  22.327  0.00  0.00    +0.000 C 
ATOM     24  C   UNL     1      -2.677  15.718  20.950  0.00  0.00    +0.000 C 
BRANCH  20  25
ATOM     25  O   UNL     1      -4.670  16.328  19.794  0.00  0.00    +0.000 OA
ATOM     26  H   UNL     1      -4.230  15.988  18.993  0.00  0.00    +0.000 HD
ENDBRANCH  20  25
ENDBRANCH  15  20
BRANCH  19  27
ATOM     27  C   UNL     1      -5.469  11.807  17.159  0.00  0.00    +0.000 C 
BRANCH  27  28
ATOM     28  O   UNL     1      -4.627  11.031  16.292  0.00  0.00    +0.000 OA
ATOM     29  H   UNL     1      -4.655  11.422  15.396  0.00  0.00    +0.000 HD
ENDBRANCH  27  28
ENDBRANCH  19  27
TORSDOF 4
ENDMDL
MODEL 7
REMARK VINA RESULT:      -5.8      1.818      5.088
REMARK  Name = 
REMARK  6 active torsions:
REMARK  status: ('A' for Active; 'I' for Inactive)
REMARK    1  A    between atoms: C_1  and  C_2
REMARK    2  A    between atoms: C_2  and  C_3
REMARK    3  A    between atoms: C_15  and  C_16
REMARK    4  A    between atoms: C_16  and  O_17
REMARK    5  A    between atoms: C_25  and  C_26
REMARK    6  A    between atoms: C_26  and  O_27
REMARK                            x       y       z     vdW  Elec       q    Type
REMARK                         _______ _______ _______ _____ _____    ______ ____
ROOT
ATOM      1  C   UNL     1      -3.229  16.997  22.089  0.00  0.00    +0.000 C 
ATOM      2  C   UNL     1      -3.534  15.671  21.396  0.00  0.00    +0.000 C 
ATOM      3  C   UNL     1      -4.935  15.707  20.800  0.00  0.00    +0.000 C 
ATOM      4  O   UNL     1      -3.603  14.425  22.145  0.00  0.00    +0.000 OA
ATOM      5  C   UNL     1      -2.764  13.405  21.503  0.00  0.00    +0.000 C 
ATOM      6  C   UNL     1      -2.830  12.870  19.878  0.00  0.00    +0.000 C 
ATOM      7  C   UNL     1      -1.513  13.257  19.877  0.00  0.00    +0.000 C 
ATOM      8  C   UNL     1      -0.297  12.693  19.200  0.00  0.00    +0.000 C 
ATOM      9  C   UNL     1       1.012  13.430  19.327  0.00  0.00    +0.000 C 
ATOM     10  C   UNL     1       0.798  14.947  19.288  0.00  0.00    +0.000 C 
ATOM     11  C   UNL     1       0.612  15.507  20.700  0.00  0.00    +0.000 C 
ATOM     12  C   UNL     1      -0.399  14.755  21.592  0.00  0.00    +0.000 C 
ATOM     13  C   UNL     1      -1.688  14.372  20.860  0.00  0.00    +0.000 C 
ATOM     14  O   UNL     1      -2.454  15.530  20.439  0.00  0.00    +0.000 OA
ATOM     15  C   UNL     1      -0.367  11.163  19.589  0.00  0.00    +0.000 C 
ATOM     16  C   UNL     1      -0.393  10.372  18.291  0.00  0.00    +0.000 C 
ATOM     17  C   UNL     1      -1.610  10.320  17.696  0.00  0.00    +0.000 C 
ATOM     18  C   UNL     1      -2.489  11.549  17.756  0.00  0.00    +0.000 C 
ATOM     19  C   UNL     1      -3.357  11.738  18.801  0.00  0.00    +0.000 C 
ENDROOT
BRANCH  15  20
ATOM     20  C   UNL     1       0.281  10.571  20.858  0.00  0.00    +0.000 C 
ATOM     21  C   UNL     1      -0.757  10.553  22.019  0.00  0.00    +0.000 C 
ATOM     22  C   UNL     1      -0.508   9.239  22.727  0.00  0.00    +0.000 C 
ATOM     23  C   UNL     1      -0.047   8.315  21.609  0.00  0.00    +0.000 C 
ATOM     24  C   UNL     1       0.838   9.165  20.724  0.00  0.00    +0.000 C 
BRANCH  20  25
ATOM     25  O   UNL     1       1.368  11.422  21.274  0.00  0.00    +0.000 OA
ATOM     26  H   UNL     1       0.993  12.230  21.673  0.00  0.00    +0.000 HD
ENDBRANCH  20  25
ENDBRANCH  15  20
BRANCH  19  27
ATOM     27  C   UNL     1      -4.674  11.021  18.543  0.00  0.00    +0.000 C 
BRANCH  27  28
ATOM     28  O   UNL     1      -5.129  11.173  17.189  0.00  0.00    +0.000 OA
ATOM     29  H   UNL     1      -6.075  11.419  17.202  0.00  0.00    +0.000 HD
ENDBRANCH  27  28
ENDBRANCH  19  27
TORSDOF 4
ENDMDL
MODEL 8
REMARK VINA RESULT:      -5.8      7.186     10.940
REMARK  Name = 
REMARK  6 active torsions:
REMARK  status: ('A' for Active; 'I' for Inactive)
REMARK    1  A    between atoms: C_1  and  C_2
REMARK    2  A    between atoms: C_2  and  C_3
REMARK    3  A    between atoms: C_15  and  C_16
REMARK    4  A    between atoms: C_16  and  O_17
REMARK    5  A    between atoms: C_25  and  C_26
REMARK    6  A    between atoms: C_26  and  O_27
REMARK                            x       y       z     vdW  Elec       q    Type
REMARK                         _______ _______ _______ _____ _____    ______ ____
ROOT
ATOM      1  C   UNL     1      12.231  13.380  16.705  0.00  0.00    +0.000 C 
ATOM      2  C   UNL     1      11.336  12.973  17.873  0.00  0.00    +0.000 C 
ATOM      3  C   UNL     1      11.939  11.774  18.596  0.00  0.00    +0.000 C 
ATOM      4  O   UNL     1       9.981  12.488  17.654  0.00  0.00    +0.000 OA
ATOM      5  C   UNL     1       9.040  13.222  18.510  0.00  0.00    +0.000 C 
ATOM      6  C   UNL     1       9.101  13.408  20.210  0.00  0.00    +0.000 C 
ATOM      7  C   UNL     1       9.098  14.744  19.892  0.00  0.00    +0.000 C 
ATOM      8  C   UNL     1       8.481  15.938  20.561  0.00  0.00    +0.000 C 
ATOM      9  C   UNL     1       8.756  17.309  19.996  0.00  0.00    +0.000 C 
ATOM     10  C   UNL     1      10.202  17.422  19.500  0.00  0.00    +0.000 C 
ATOM     11  C   UNL     1      10.300  17.047  18.019  0.00  0.00    +0.000 C 
ATOM     12  C   UNL     1       9.600  15.733  17.612  0.00  0.00    +0.000 C 
ATOM     13  C   UNL     1       9.837  14.587  18.600  0.00  0.00    +0.000 C 
ATOM     14  O   UNL     1      11.229  14.185  18.661  0.00  0.00    +0.000 OA
ATOM     15  C   UNL     1       6.986  15.474  20.777  0.00  0.00    +0.000 C 
ATOM     16  C   UNL     1       6.698  15.575  22.266  0.00  0.00    +0.000 C 
ATOM     17  C   UNL     1       7.171  14.534  22.995  0.00  0.00    +0.000 C 
ATOM     18  C   UNL     1       8.502  13.933  22.604  0.00  0.00    +0.000 C 
ATOM     19  C   UNL     1       8.567  12.913  21.690  0.00  0.00    +0.000 C 
ENDROOT
BRANCH  15  20
ATOM     20  C   UNL     1       5.863  15.692  19.742  0.00  0.00    +0.000 C 
ATOM     21  C   UNL     1       4.604  14.871  20.150  0.00  0.00    +0.000 C 
ATOM     22  C   UNL     1       3.439  15.783  19.833  0.00  0.00    +0.000 C 
ATOM     23  C   UNL     1       4.004  17.176  20.068  0.00  0.00    +0.000 C 
ATOM     24  C   UNL     1       5.420  17.131  19.538  0.00  0.00    +0.000 C 
BRANCH  20  25
ATOM     25  O   UNL     1       6.297  15.194  18.461  0.00  0.00    +0.000 OA
ATOM     26  H   UNL     1       6.939  14.475  18.610  0.00  0.00    +0.000 HD
ENDBRANCH  20  25
ENDBRANCH  15  20
BRANCH  19  27
ATOM     27  C   UNL     1       8.354  11.567  22.368  0.00  0.00    +0.000 C 
BRANCH  27  28
ATOM     28  O   UNL     1       8.903  11.526  23.695  0.00  0.00    +0.000 OA
ATOM     29  H   UNL     1       9.324  12.387  23.886  0.00  0.00    +0.000 HD
ENDBRANCH  27  28
ENDBRANCH  19  27
TORSDOF 4
ENDMDL
MODEL 9
REMARK VINA RESULT:      -5.8      7.651     11.373
REMARK  Name = 
REMARK  6 active torsions:
REMARK  status: ('A' for Active; 'I' for Inactive)
REMARK    1  A    between atoms: C_1  and  C_2
REMARK    2  A    between atoms: C_2  and  C_3
REMARK    3  A    between atoms: C_15  and  C_16
REMARK    4  A    between atoms: C_16  and  O_17
REMARK    5  A    between atoms: C_25  and  C_26
REMARK    6  A    between atoms: C_26  and  O_27
REMARK                            x       y       z     vdW  Elec       q    Type
REMARK                         _______ _______ _______ _____ _____    ______ ____
ROOT
ATOM      1  C   UNL     1       4.098  15.683  20.721  0.00  0.00    +0.000 C 
ATOM      2  C   UNL     1       5.364  15.919  19.900  0.00  0.00    +0.000 C 
ATOM      3  C   UNL     1       5.179  17.132  18.996  0.00  0.00    +0.000 C 
ATOM      4  O   UNL     1       5.827  14.940  18.927  0.00  0.00    +0.000 OA
ATOM      5  C   UNL     1       7.247  14.641  19.151  0.00  0.00    +0.000 C 
ATOM      6  C   UNL     1       8.550  15.749  19.218  0.00  0.00    +0.000 C 
ATOM      7  C   UNL     1       8.737  15.190  20.458  0.00  0.00    +0.000 C 
ATOM      8  C   UNL     1       9.976  14.879  21.247  0.00  0.00    +0.000 C 
ATOM      9  C   UNL     1       9.828  14.347  22.650  0.00  0.00    +0.000 C 
ATOM     10  C   UNL     1       8.657  15.019  23.375  0.00  0.00    +0.000 C 
ATOM     11  C   UNL     1       7.367  14.217  23.185  0.00  0.00    +0.000 C 
ATOM     12  C   UNL     1       7.047  13.797  21.734  0.00  0.00    +0.000 C 
ATOM     13  C   UNL     1       7.289  14.910  20.711  0.00  0.00    +0.000 C 
ATOM     14  O   UNL     1       6.403  16.042  20.902  0.00  0.00    +0.000 OA
ATOM     15  C   UNL     1      10.854  14.080  20.204  0.00  0.00    +0.000 C 
ATOM     16  C   UNL     1      12.173  14.824  20.067  0.00  0.00    +0.000 C 
ATOM     17  C   UNL     1      12.117  15.908  19.255  0.00  0.00    +0.000 C 
ATOM     18  C   UNL     1      10.863  16.754  19.274  0.00  0.00    +0.000 C 
ATOM     19  C   UNL     1       9.814  16.467  18.439  0.00  0.00    +0.000 C 
ENDROOT
BRANCH  15  20
ATOM     20  C   UNL     1      10.793  12.548  20.027  0.00  0.00    +0.000 C 
ATOM     21  C   UNL     1       9.693  12.183  18.987  0.00  0.00    +0.000 C 
ATOM     22  C   UNL     1      10.296  11.053  18.181  0.00  0.00    +0.000 C 
ATOM     23  C   UNL     1      11.785  11.367  18.187  0.00  0.00    +0.000 C 
ATOM     24  C   UNL     1      12.081  11.881  19.579  0.00  0.00    +0.000 C 
BRANCH  20  25
ATOM     25  O   UNL     1      10.411  11.943  21.278  0.00  0.00    +0.000 OA
ATOM     26  H   UNL     1      10.288  10.986  21.133  0.00  0.00    +0.000 HD
ENDBRANCH  20  25
ENDBRANCH  15  20
BRANCH  19  27
ATOM     27  C   UNL     1      10.019  17.110  17.076  0.00  0.00    +0.000 C 
BRANCH  27  28
ATOM     28  O   UNL     1      10.458  16.169  16.083  0.00  0.00    +0.000 OA
ATOM     29  H   UNL     1       9.967  15.332  16.207  0.00  0.00    +0.000 HD
ENDBRANCH  27  28
ENDBRANCH  19  27
TORSDOF 4
ENDMDL
