MODEL 1
REMARK VINA RESULT:      -8.1      0.000      0.000
REMARK  Name = 
REMARK  8 active torsions:
REMARK  status: ('A' for Active; 'I' for Inactive)
REMARK    1  A    between atoms: C_1  and  C_2
REMARK    2  A    between atoms: C_5  and  S_6
REMARK    3  A    between atoms: S_6  and  N_9
REMARK    4  A    between atoms: N_9  and  C_10
REMARK    5  A    between atoms: C_10  and  C_11
REMARK    6  A    between atoms: C_11  and  C_12
REMARK    7  A    between atoms: C_11  and  N_21
REMARK    8  A    between atoms: N_24  and  C_25
REMARK                            x       y       z     vdW  Elec       q    Type
REMARK                         _______ _______ _______ _____ _____    ______ ____
ROOT
ATOM      1  C   UNL     1       0.599   9.352  19.951  0.00  0.00    +0.000 C 
ENDROOT
BRANCH   1   2
ATOM      2  C   UNL     1       1.680   8.383  19.376  0.00  0.00    +0.000 A 
ATOM      3  C   UNL     1       2.301   8.588  18.116  0.00  0.00    +0.000 A 
ATOM      4  C   UNL     1       3.113   7.607  17.509  0.00  0.00    +0.000 A 
ATOM      5  C   UNL     1       3.393   6.474  18.234  0.00  0.00    +0.000 A 
ATOM      6  C   UNL     1       2.890   6.306  19.494  0.00  0.00    +0.000 A 
ATOM      7  C   UNL     1       2.038   7.216  20.067  0.00  0.00    +0.000 A 
ATOM      8  O   UNL     1       3.298   5.153  20.086  0.00  0.00    +0.000 OA
ATOM      9  C   UNL     1       4.245   4.695  19.103  0.00  0.00    +0.000 C 
ATOM     10  O   UNL     1       4.162   5.418  17.855  0.00  0.00    +0.000 OA
ENDBRANCH   1   2
BRANCH   1  11
ATOM     11  N   UNL     1       1.119  10.164  21.101  0.00  0.00    +0.000 NA
ATOM     12  C   UNL     1       0.996  11.642  20.924  0.00  0.00    +0.000 C 
ATOM     13  C   UNL     1      -0.399  12.269  21.186  0.00  0.00    +0.000 C 
ATOM     14  N   UNL     1      -0.913  11.823  22.485  0.00  0.00    +0.000 N 
ATOM     15  C   UNL     1      -0.870  10.370  22.694  0.00  0.00    +0.000 C 
ATOM     16  C   UNL     1       0.573   9.872  22.449  0.00  0.00    +0.000 C 
BRANCH  14  17
ATOM     17  C   UNL     1      -1.784  12.603  23.227  0.00  0.00    +0.000 A 
ATOM     18  C   UNL     1      -3.062  12.168  23.602  0.00  0.00    +0.000 A 
ATOM     19  C   UNL     1      -3.955  13.007  24.281  0.00  0.00    +0.000 A 
ATOM     20  C   UNL     1      -3.586  14.310  24.596  0.00  0.00    +0.000 A 
ATOM     21  C   UNL     1      -2.323  14.768  24.242  0.00  0.00    +0.000 A 
ATOM     22  C   UNL     1      -1.436  13.920  23.571  0.00  0.00    +0.000 A 
ENDBRANCH  14  17
ENDBRANCH   1  11
BRANCH   1  23
ATOM     23  C   UNL     1       0.121  10.391  18.843  0.00  0.00    +0.000 C 
BRANCH  23  24
ATOM     24  N   UNL     1      -1.228  10.161  18.295  0.00  0.00    +0.000 NA
ATOM     25  H   UNL     1      -1.523   9.235  17.990  0.00  0.00    +0.000 HD
BRANCH  24  26
ATOM     26  S   UNL     1      -2.057  11.438  17.580  0.00  0.00    +0.000 S 
ATOM     27  O   UNL     1      -2.364  11.041  16.220  0.00  0.00    +0.000 OA
ATOM     28  O   UNL     1      -1.278  12.636  17.863  0.00  0.00    +0.000 OA
BRANCH  26  33
ATOM     29  C   UNL     1      -7.326  11.984  20.601  0.00  0.00    +0.000 C 
ATOM     30  C   UNL     1      -6.024  11.862  19.860  0.00  0.00    +0.000 A 
ATOM     31  C   UNL     1      -4.867  12.509  20.315  0.00  0.00    +0.000 A 
ATOM     32  C   UNL     1      -3.658  12.389  19.619  0.00  0.00    +0.000 A 
ATOM     33  C   UNL     1      -3.592  11.587  18.478  0.00  0.00    +0.000 A 
ATOM     34  C   UNL     1      -4.743  10.947  18.005  0.00  0.00    +0.000 A 
ATOM     35  C   UNL     1      -5.953  11.088  18.694  0.00  0.00    +0.000 A 
ENDBRANCH  26  33
ENDBRANCH  24  26
ENDBRANCH  23  24
ENDBRANCH   1  23
TORSDOF 7
ENDMDL
MODEL 2
REMARK VINA RESULT:      -8.1      0.114      1.171
REMARK  Name = 
REMARK  8 active torsions:
REMARK  status: ('A' for Active; 'I' for Inactive)
REMARK    1  A    between atoms: C_1  and  C_2
REMARK    2  A    between atoms: C_5  and  S_6
REMARK    3  A    between atoms: S_6  and  N_9
REMARK    4  A    between atoms: N_9  and  C_10
REMARK    5  A    between atoms: C_10  and  C_11
REMARK    6  A    between atoms: C_11  and  C_12
REMARK    7  A    between atoms: C_11  and  N_21
REMARK    8  A    between atoms: N_24  and  C_25
REMARK                            x       y       z     vdW  Elec       q    Type
REMARK                         _______ _______ _______ _____ _____    ______ ____
ROOT
ATOM      1  C   UNL     1       0.603   9.304  19.965  0.00  0.00    +0.000 C 
ENDROOT
BRANCH   1   2
ATOM      2  C   UNL     1       1.694   8.350  19.382  0.00  0.00    +0.000 A 
ATOM      3  C   UNL     1       2.309   8.567  18.123  0.00  0.00    +0.000 A 
ATOM      4  C   UNL     1       3.131   7.597  17.510  0.00  0.00    +0.000 A 
ATOM      5  C   UNL     1       3.425   6.464  18.229  0.00  0.00    +0.000 A 
ATOM      6  C   UNL     1       2.926   6.285  19.489  0.00  0.00    +0.000 A 
ATOM      7  C   UNL     1       2.065   7.184  20.069  0.00  0.00    +0.000 A 
ATOM      8  O   UNL     1       3.348   5.135  20.075  0.00  0.00    +0.000 OA
ATOM      9  C   UNL     1       4.298   4.691  19.088  0.00  0.00    +0.000 C 
ATOM     10  O   UNL     1       4.204   5.419  17.843  0.00  0.00    +0.000 OA
ENDBRANCH   1   2
BRANCH   1  11
ATOM     11  N   UNL     1       1.130  10.150  21.086  0.00  0.00    +0.000 NA
ATOM     12  C   UNL     1       1.016  11.623  20.862  0.00  0.00    +0.000 C 
ATOM     13  C   UNL     1      -0.375  12.267  21.105  0.00  0.00    +0.000 C 
ATOM     14  N   UNL     1      -0.889  11.866  22.419  0.00  0.00    +0.000 N 
ATOM     15  C   UNL     1      -0.855  10.421  22.676  0.00  0.00    +0.000 C 
ATOM     16  C   UNL     1       0.585   9.906  22.444  0.00  0.00    +0.000 C 
BRANCH  14  17
ATOM     17  C   UNL     1      -1.754  12.676  23.136  0.00  0.00    +0.000 A 
ATOM     18  C   UNL     1      -1.380  13.931  23.635  0.00  0.00    +0.000 A 
ATOM     19  C   UNL     1      -2.247  14.694  24.428  0.00  0.00    +0.000 A 
ATOM     20  C   UNL     1      -3.512  14.212  24.744  0.00  0.00    +0.000 A 
ATOM     21  C   UNL     1      -3.913  12.973  24.259  0.00  0.00    +0.000 A 
ATOM     22  C   UNL     1      -3.043  12.222  23.462  0.00  0.00    +0.000 A 
ENDBRANCH  14  17
ENDBRANCH   1  11
BRANCH   1  23
ATOM     23  C   UNL     1       0.076  10.311  18.848  0.00  0.00    +0.000 C 
BRANCH  23  24
ATOM     24  N   UNL     1      -1.337  10.146  18.461  0.00  0.00    +0.000 NA
ATOM     25  H   UNL     1      -1.746   9.221  18.335  0.00  0.00    +0.000 HD
BRANCH  24  26
ATOM     26  S   UNL     1      -2.112  11.382  17.622  0.00  0.00    +0.000 S 
ATOM     27  O   UNL     1      -2.366  10.893  16.281  0.00  0.00    +0.000 OA
ATOM     28  O   UNL     1      -1.323  12.585  17.853  0.00  0.00    +0.000 OA
BRANCH  26  33
ATOM     29  C   UNL     1      -7.454  12.143  20.460  0.00  0.00    +0.000 C 
ATOM     30  C   UNL     1      -6.141  11.943  19.756  0.00  0.00    +0.000 A 
ATOM     31  C   UNL     1      -6.059  11.196  18.573  0.00  0.00    +0.000 A 
ATOM     32  C   UNL     1      -4.831  11.016  17.923  0.00  0.00    +0.000 A 
ATOM     33  C   UNL     1      -3.680  11.617  18.438  0.00  0.00    +0.000 A 
ATOM     34  C   UNL     1      -3.747  12.353  19.626  0.00  0.00    +0.000 A 
ATOM     35  C   UNL     1      -4.973  12.512  20.281  0.00  0.00    +0.000 A 
ENDBRANCH  26  33
ENDBRANCH  24  26
ENDBRANCH  23  24
ENDBRANCH   1  23
TORSDOF 7
ENDMDL
MODEL 3
REMARK VINA RESULT:      -7.5      0.593      1.445
REMARK  Name = 
REMARK  8 active torsions:
REMARK  status: ('A' for Active; 'I' for Inactive)
REMARK    1  A    between atoms: C_1  and  C_2
REMARK    2  A    between atoms: C_5  and  S_6
REMARK    3  A    between atoms: S_6  and  N_9
REMARK    4  A    between atoms: N_9  and  C_10
REMARK    5  A    between atoms: C_10  and  C_11
REMARK    6  A    between atoms: C_11  and  C_12
REMARK    7  A    between atoms: C_11  and  N_21
REMARK    8  A    between atoms: N_24  and  C_25
REMARK                            x       y       z     vdW  Elec       q    Type
REMARK                         _______ _______ _______ _____ _____    ______ ____
ROOT
ATOM      1  C   UNL     1       0.404   9.244  20.212  0.00  0.00    +0.000 C 
ENDROOT
BRANCH   1   2
ATOM      2  C   UNL     1       1.374   8.114  19.741  0.00  0.00    +0.000 A 
ATOM      3  C   UNL     1       1.588   6.927  20.487  0.00  0.00    +0.000 A 
ATOM      4  C   UNL     1       2.615   6.013  20.169  0.00  0.00    +0.000 A 
ATOM      5  C   UNL     1       3.341   6.243  19.026  0.00  0.00    +0.000 A 
ATOM      6  C   UNL     1       3.078   7.326  18.234  0.00  0.00    +0.000 A 
ATOM      7  C   UNL     1       2.133   8.264  18.570  0.00  0.00    +0.000 A 
ATOM      8  O   UNL     1       3.856   7.381  17.123  0.00  0.00    +0.000 OA
ATOM      9  C   UNL     1       4.530   6.114  17.233  0.00  0.00    +0.000 C 
ATOM     10  O   UNL     1       4.355   5.489  18.524  0.00  0.00    +0.000 OA
ENDBRANCH   1   2
BRANCH   1  11
ATOM     11  N   UNL     1       0.986  10.062  21.328  0.00  0.00    +0.000 NA
ATOM     12  C   UNL     1       0.970  11.536  21.092  0.00  0.00    +0.000 C 
ATOM     13  C   UNL     1      -0.375  12.273  21.330  0.00  0.00    +0.000 C 
ATOM     14  N   UNL     1      -0.916  11.917  22.646  0.00  0.00    +0.000 N 
ATOM     15  C   UNL     1      -0.977  10.475  22.913  0.00  0.00    +0.000 C 
ATOM     16  C   UNL     1       0.425   9.864  22.687  0.00  0.00    +0.000 C 
BRANCH  14  17
ATOM     17  C   UNL     1      -1.725  12.788  23.356  0.00  0.00    +0.000 A 
ATOM     18  C   UNL     1      -3.030  12.461  23.750  0.00  0.00    +0.000 A 
ATOM     19  C   UNL     1      -3.857  13.390  24.395  0.00  0.00    +0.000 A 
ATOM     20  C   UNL     1      -3.394  14.674  24.657  0.00  0.00    +0.000 A 
ATOM     21  C   UNL     1      -2.103  15.025  24.284  0.00  0.00    +0.000 A 
ATOM     22  C   UNL     1      -1.282  14.089  23.648  0.00  0.00    +0.000 A 
ENDBRANCH  14  17
ENDBRANCH   1  11
BRANCH   1  23
ATOM     23  C   UNL     1       0.095  10.258  19.023  0.00  0.00    +0.000 C 
BRANCH  23  24
ATOM     24  N   UNL     1      -1.225  10.102  18.383  0.00  0.00    +0.000 NA
ATOM     25  H   UNL     1      -1.533   9.201  18.022  0.00  0.00    +0.000 HD
BRANCH  24  26
ATOM     26  S   UNL     1      -1.958  11.438  17.670  0.00  0.00    +0.000 S 
ATOM     27  O   UNL     1      -2.289  11.068  16.309  0.00  0.00    +0.000 OA
ATOM     28  O   UNL     1      -1.095  12.576  17.958  0.00  0.00    +0.000 OA
BRANCH  26  33
ATOM     29  C   UNL     1      -7.138  12.270  20.778  0.00  0.00    +0.000 C 
ATOM     30  C   UNL     1      -5.866  12.053  20.008  0.00  0.00    +0.000 A 
ATOM     31  C   UNL     1      -5.850  11.288  18.834  0.00  0.00    +0.000 A 
ATOM     32  C   UNL     1      -4.660  11.092  18.122  0.00  0.00    +0.000 A 
ATOM     33  C   UNL     1      -3.480  11.694  18.565  0.00  0.00    +0.000 A 
ATOM     34  C   UNL     1      -3.480  12.447  19.745  0.00  0.00    +0.000 A 
ATOM     35  C   UNL     1      -4.669  12.623  20.462  0.00  0.00    +0.000 A 
ENDBRANCH  26  33
ENDBRANCH  24  26
ENDBRANCH  23  24
ENDBRANCH   1  23
TORSDOF 7
ENDMDL
MODEL 4
REMARK VINA RESULT:      -7.3      3.898      9.101
REMARK  Name = 
REMARK  8 active torsions:
REMARK  status: ('A' for Active; 'I' for Inactive)
REMARK    1  A    between atoms: C_1  and  C_2
REMARK    2  A    between atoms: C_5  and  S_6
REMARK    3  A    between atoms: S_6  and  N_9
REMARK    4  A    between atoms: N_9  and  C_10
REMARK    5  A    between atoms: C_10  and  C_11
REMARK    6  A    between atoms: C_11  and  C_12
REMARK    7  A    between atoms: C_11  and  N_21
REMARK    8  A    between atoms: N_24  and  C_25
REMARK                            x       y       z     vdW  Elec       q    Type
REMARK                         _______ _______ _______ _____ _____    ______ ____
ROOT
ATOM      1  C   UNL     1       0.146  11.479  21.555  0.00  0.00    +0.000 C 
ENDROOT
BRANCH   1   2
ATOM      2  C   UNL     1      -0.950  12.285  22.323  0.00  0.00    +0.000 A 
ATOM      3  C   UNL     1      -0.823  13.668  22.612  0.00  0.00    +0.000 A 
ATOM      4  C   UNL     1      -1.707  14.339  23.484  0.00  0.00    +0.000 A 
ATOM      5  C   UNL     1      -2.786  13.636  23.962  0.00  0.00    +0.000 A 
ATOM      6  C   UNL     1      -2.984  12.330  23.609  0.00  0.00    +0.000 A 
ATOM      7  C   UNL     1      -2.093  11.642  22.824  0.00  0.00    +0.000 A 
ATOM      8  O   UNL     1      -4.119  11.798  24.133  0.00  0.00    +0.000 OA
ATOM      9  C   UNL     1      -4.689  12.978  24.729  0.00  0.00    +0.000 C 
ATOM     10  O   UNL     1      -3.764  14.086  24.792  0.00  0.00    +0.000 OA
ENDBRANCH   1   2
BRANCH   1  11
ATOM     11  N   UNL     1      -0.436  10.345  20.763  0.00  0.00    +0.000 NA
ATOM     12  C   UNL     1      -0.065  10.342  19.316  0.00  0.00    +0.000 C 
ATOM     13  C   UNL     1       1.343   9.799  18.951  0.00  0.00    +0.000 C 
ATOM     14  N   UNL     1       1.554   8.491  19.579  0.00  0.00    +0.000 N 
ATOM     15  C   UNL     1       1.258   8.447  21.017  0.00  0.00    +0.000 C 
ATOM     16  C   UNL     1      -0.180   8.967  21.248  0.00  0.00    +0.000 C 
BRANCH  14  17
ATOM     17  C   UNL     1       2.392   7.544  19.016  0.00  0.00    +0.000 A 
ATOM     18  C   UNL     1       2.634   6.296  19.607  0.00  0.00    +0.000 A 
ATOM     19  C   UNL     1       3.549   5.389  19.059  0.00  0.00    +0.000 A 
ATOM     20  C   UNL     1       4.251   5.715  17.904  0.00  0.00    +0.000 A 
ATOM     21  C   UNL     1       4.028   6.942  17.292  0.00  0.00    +0.000 A 
ATOM     22  C   UNL     1       3.106   7.839  17.842  0.00  0.00    +0.000 A 
ENDBRANCH  14  17
ENDBRANCH   1  11
BRANCH   1  23
ATOM     23  C   UNL     1       0.910  12.411  20.515  0.00  0.00    +0.000 C 
BRANCH  23  24
ATOM     24  N   UNL     1       2.269  12.825  20.913  0.00  0.00    +0.000 NA
ATOM     25  H   UNL     1       2.873  12.206  21.451  0.00  0.00    +0.000 HD
BRANCH  24  26
ATOM     26  S   UNL     1       2.621  14.463  21.063  0.00  0.00    +0.000 S 
ATOM     27  O   UNL     1       2.943  14.705  22.455  0.00  0.00    +0.000 OA
ATOM     28  O   UNL     1       1.534  15.173  20.401  0.00  0.00    +0.000 OA
BRANCH  26  33
ATOM     29  C   UNL     1       7.658  15.330  17.737  0.00  0.00    +0.000 C 
ATOM     30  C   UNL     1       6.424  15.112  18.567  0.00  0.00    +0.000 A 
ATOM     31  C   UNL     1       6.455  15.244  19.962  0.00  0.00    +0.000 A 
ATOM     32  C   UNL     1       5.300  15.041  20.727  0.00  0.00    +0.000 A 
ATOM     33  C   UNL     1       4.093  14.736  20.093  0.00  0.00    +0.000 A 
ATOM     34  C   UNL     1       4.053  14.585  18.702  0.00  0.00    +0.000 A 
ATOM     35  C   UNL     1       5.215  14.771  17.946  0.00  0.00    +0.000 A 
ENDBRANCH  26  33
ENDBRANCH  24  26
ENDBRANCH  23  24
ENDBRANCH   1  23
TORSDOF 7
ENDMDL
MODEL 5
REMARK VINA RESULT:      -7.3      3.827      9.204
REMARK  Name = 
REMARK  8 active torsions:
REMARK  status: ('A' for Active; 'I' for Inactive)
REMARK    1  A    between atoms: C_1  and  C_2
REMARK    2  A    between atoms: C_5  and  S_6
REMARK    3  A    between atoms: S_6  and  N_9
REMARK    4  A    between atoms: N_9  and  C_10
REMARK    5  A    between atoms: C_10  and  C_11
REMARK    6  A    between atoms: C_11  and  C_12
REMARK    7  A    between atoms: C_11  and  N_21
REMARK    8  A    between atoms: N_24  and  C_25
REMARK                            x       y       z     vdW  Elec       q    Type
REMARK                         _______ _______ _______ _____ _____    ______ ____
ROOT
ATOM      1  C   UNL     1       0.007  11.535  21.823  0.00  0.00    +0.000 C 
ENDROOT
BRANCH   1   2
ATOM      2  C   UNL     1      -1.059  12.288  22.682  0.00  0.00    +0.000 A 
ATOM      3  C   UNL     1      -2.281  11.690  23.084  0.00  0.00    +0.000 A 
ATOM      4  C   UNL     1      -3.325  12.435  23.671  0.00  0.00    +0.000 A 
ATOM      5  C   UNL     1      -3.081  13.756  23.961  0.00  0.00    +0.000 A 
ATOM      6  C   UNL     1      -1.870  14.323  23.678  0.00  0.00    +0.000 A 
ATOM      7  C   UNL     1      -0.872  13.632  23.038  0.00  0.00    +0.000 A 
ATOM      8  O   UNL     1      -1.782  15.621  24.067  0.00  0.00    +0.000 OA
ATOM      9  C   UNL     1      -3.030  15.752  24.771  0.00  0.00    +0.000 C 
ATOM     10  O   UNL     1      -3.931  14.646  24.539  0.00  0.00    +0.000 OA
ENDBRANCH   1   2
BRANCH   1  11
ATOM     11  N   UNL     1      -0.577  10.357  21.099  0.00  0.00    +0.000 NA
ATOM     12  C   UNL     1      -0.314  10.338  19.629  0.00  0.00    +0.000 C 
ATOM     13  C   UNL     1       1.088   9.852  19.171  0.00  0.00    +0.000 C 
ATOM     14  N   UNL     1       1.406   8.570  19.808  0.00  0.00    +0.000 N 
ATOM     15  C   UNL     1       1.220   8.545  21.264  0.00  0.00    +0.000 C 
ATOM     16  C   UNL     1      -0.221   9.004  21.591  0.00  0.00    +0.000 C 
BRANCH  14  17
ATOM     17  C   UNL     1       2.244   7.649  19.202  0.00  0.00    +0.000 A 
ATOM     18  C   UNL     1       2.557   6.411  19.781  0.00  0.00    +0.000 A 
ATOM     19  C   UNL     1       3.472   5.533  19.187  0.00  0.00    +0.000 A 
ATOM     20  C   UNL     1       4.102   5.879  17.996  0.00  0.00    +0.000 A 
ATOM     21  C   UNL     1       3.807   7.097  17.396  0.00  0.00    +0.000 A 
ATOM     22  C   UNL     1       2.886   7.964  17.992  0.00  0.00    +0.000 A 
ENDBRANCH  14  17
ENDBRANCH   1  11
BRANCH   1  23
ATOM     23  C   UNL     1       0.617  12.494  20.708  0.00  0.00    +0.000 C 
BRANCH  23  24
ATOM     24  N   UNL     1       2.029  12.876  20.901  0.00  0.00    +0.000 NA
ATOM     25  H   UNL     1       2.693  12.237  21.334  0.00  0.00    +0.000 HD
BRANCH  24  26
ATOM     26  S   UNL     1       2.434  14.505  21.018  0.00  0.00    +0.000 S 
ATOM     27  O   UNL     1       2.750  14.767  22.408  0.00  0.00    +0.000 OA
ATOM     28  O   UNL     1       1.378  15.235  20.330  0.00  0.00    +0.000 OA
BRANCH  26  33
ATOM     29  C   UNL     1       7.527  15.258  17.752  0.00  0.00    +0.000 C 
ATOM     30  C   UNL     1       6.265  15.078  18.548  0.00  0.00    +0.000 A 
ATOM     31  C   UNL     1       5.030  14.882  17.914  0.00  0.00    +0.000 A 
ATOM     32  C   UNL     1       3.859  14.714  18.663  0.00  0.00    +0.000 A 
ATOM     33  C   UNL     1       3.923  14.706  20.058  0.00  0.00    +0.000 A 
ATOM     34  C   UNL     1       5.148  14.917  20.702  0.00  0.00    +0.000 A 
ATOM     35  C   UNL     1       6.311  15.103  19.948  0.00  0.00    +0.000 A 
ENDBRANCH  26  33
ENDBRANCH  24  26
ENDBRANCH  23  24
ENDBRANCH   1  23
TORSDOF 7
ENDMDL
MODEL 6
REMARK VINA RESULT:      -7.2      3.948      8.284
REMARK  Name = 
REMARK  8 active torsions:
REMARK  status: ('A' for Active; 'I' for Inactive)
REMARK    1  A    between atoms: C_1  and  C_2
REMARK    2  A    between atoms: C_5  and  S_6
REMARK    3  A    between atoms: S_6  and  N_9
REMARK    4  A    between atoms: N_9  and  C_10
REMARK    5  A    between atoms: C_10  and  C_11
REMARK    6  A    between atoms: C_11  and  C_12
REMARK    7  A    between atoms: C_11  and  N_21
REMARK    8  A    between atoms: N_24  and  C_25
REMARK                            x       y       z     vdW  Elec       q    Type
REMARK                         _______ _______ _______ _____ _____    ______ ____
ROOT
ATOM      1  C   UNL     1       2.765   6.949  17.822  0.00  0.00    +0.000 C 
ENDROOT
BRANCH   1   2
ATOM      2  C   UNL     1       2.390   5.590  18.495  0.00  0.00    +0.000 A 
ATOM      3  C   UNL     1       1.747   4.538  17.792  0.00  0.00    +0.000 A 
ATOM      4  C   UNL     1       1.222   3.405  18.449  0.00  0.00    +0.000 A 
ATOM      5  C   UNL     1       1.458   3.283  19.797  0.00  0.00    +0.000 A 
ATOM      6  C   UNL     1       2.170   4.236  20.473  0.00  0.00    +0.000 A 
ATOM      7  C   UNL     1       2.621   5.380  19.863  0.00  0.00    +0.000 A 
ATOM      8  O   UNL     1       2.349   3.941  21.786  0.00  0.00    +0.000 OA
ATOM      9  C   UNL     1       1.800   2.611  21.816  0.00  0.00    +0.000 C 
ATOM     10  O   UNL     1       1.065   2.274  20.618  0.00  0.00    +0.000 OA
ENDBRANCH   1   2
BRANCH   1  11
ATOM     11  N   UNL     1       2.818   8.076  18.812  0.00  0.00    +0.000 NA
ATOM     12  C   UNL     1       2.686   9.437  18.212  0.00  0.00    +0.000 C 
ATOM     13  C   UNL     1       1.255   9.908  17.840  0.00  0.00    +0.000 C 
ATOM     14  N   UNL     1       0.352   9.715  18.979  0.00  0.00    +0.000 N 
ATOM     15  C   UNL     1       0.396   8.375  19.576  0.00  0.00    +0.000 C 
ATOM     16  C   UNL     1       1.860   8.039  19.944  0.00  0.00    +0.000 C 
BRANCH  14  17
ATOM     17  C   UNL     1      -0.760  10.520  19.167  0.00  0.00    +0.000 A 
ATOM     18  C   UNL     1      -1.833  10.554  18.266  0.00  0.00    +0.000 A 
ATOM     19  C   UNL     1      -2.907  11.437  18.436  0.00  0.00    +0.000 A 
ATOM     20  C   UNL     1      -2.926  12.315  19.514  0.00  0.00    +0.000 A 
ATOM     21  C   UNL     1      -1.879  12.300  20.427  0.00  0.00    +0.000 A 
ATOM     22  C   UNL     1      -0.815  11.409  20.253  0.00  0.00    +0.000 A 
ENDBRANCH  14  17
ENDBRANCH   1  11
BRANCH   1  23
ATOM     23  C   UNL     1       4.207   6.870  17.150  0.00  0.00    +0.000 C 
BRANCH  23  24
ATOM     24  N   UNL     1       5.341   6.780  18.089  0.00  0.00    +0.000 NA
ATOM     25  H   UNL     1       5.748   7.615  18.505  0.00  0.00    +0.000 HD
BRANCH  24  26
ATOM     26  S   UNL     1       6.372   5.453  18.011  0.00  0.00    +0.000 S 
ATOM     27  O   UNL     1       5.821   4.433  18.882  0.00  0.00    +0.000 OA
ATOM     28  O   UNL     1       7.717   5.973  18.210  0.00  0.00    +0.000 OA
BRANCH  26  33
ATOM     29  C   UNL     1       6.085   3.375  12.286  0.00  0.00    +0.000 C 
ATOM     30  C   UNL     1       6.168   3.889  13.696  0.00  0.00    +0.000 A 
ATOM     31  C   UNL     1       7.104   4.868  14.056  0.00  0.00    +0.000 A 
ATOM     32  C   UNL     1       7.174   5.342  15.372  0.00  0.00    +0.000 A 
ATOM     33  C   UNL     1       6.280   4.862  16.331  0.00  0.00    +0.000 A 
ATOM     34  C   UNL     1       5.351   3.873  15.987  0.00  0.00    +0.000 A 
ATOM     35  C   UNL     1       5.299   3.389  14.675  0.00  0.00    +0.000 A 
ENDBRANCH  26  33
ENDBRANCH  24  26
ENDBRANCH  23  24
ENDBRANCH   1  23
TORSDOF 7
ENDMDL
MODEL 7
REMARK VINA RESULT:      -7.1      3.935      8.330
REMARK  Name = 
REMARK  8 active torsions:
REMARK  status: ('A' for Active; 'I' for Inactive)
REMARK    1  A    between atoms: C_1  and  C_2
REMARK    2  A    between atoms: C_5  and  S_6
REMARK    3  A    between atoms: S_6  and  N_9
REMARK    4  A    between atoms: N_9  and  C_10
REMARK    5  A    between atoms: C_10  and  C_11
REMARK    6  A    between atoms: C_11  and  C_12
REMARK    7  A    between atoms: C_11  and  N_21
REMARK    8  A    between atoms: N_24  and  C_25
REMARK                            x       y       z     vdW  Elec       q    Type
REMARK                         _______ _______ _______ _____ _____    ______ ____
ROOT
ATOM      1  C   UNL     1       2.685   7.199  17.911  0.00  0.00    +0.000 C 
ENDROOT
BRANCH   1   2
ATOM      2  C   UNL     1       2.362   5.807  18.541  0.00  0.00    +0.000 A 
ATOM      3  C   UNL     1       1.796   4.741  17.797  0.00  0.00    +0.000 A 
ATOM      4  C   UNL     1       1.312   3.567  18.412  0.00  0.00    +0.000 A 
ATOM      5  C   UNL     1       1.516   3.426  19.764  0.00  0.00    +0.000 A 
ATOM      6  C   UNL     1       2.156   4.398  20.481  0.00  0.00    +0.000 A 
ATOM      7  C   UNL     1       2.564   5.577  19.911  0.00  0.00    +0.000 A 
ATOM      8  O   UNL     1       2.312   4.081  21.793  0.00  0.00    +0.000 OA
ATOM      9  C   UNL     1       1.833   2.725  21.777  0.00  0.00    +0.000 C 
ATOM     10  O   UNL     1       1.152   2.378  20.550  0.00  0.00    +0.000 OA
ENDBRANCH   1   2
BRANCH   1  11
ATOM     11  N   UNL     1       2.638   8.305  18.924  0.00  0.00    +0.000 NA
ATOM     12  C   UNL     1       2.549   9.678  18.342  0.00  0.00    +0.000 C 
ATOM     13  C   UNL     1       1.153  10.146  17.850  0.00  0.00    +0.000 C 
ATOM     14  N   UNL     1       0.152   9.924  18.898  0.00  0.00    +0.000 N 
ATOM     15  C   UNL     1       0.154   8.571  19.470  0.00  0.00    +0.000 C 
ATOM     16  C   UNL     1       1.582   8.239  19.963  0.00  0.00    +0.000 C 
BRANCH  14  17
ATOM     17  C   UNL     1      -0.978  10.717  19.000  0.00  0.00    +0.000 A 
ATOM     18  C   UNL     1      -1.150  11.667  20.016  0.00  0.00    +0.000 A 
ATOM     19  C   UNL     1      -2.338  12.398  20.145  0.00  0.00    +0.000 A 
ATOM     20  C   UNL     1      -3.388  12.188  19.258  0.00  0.00    +0.000 A 
ATOM     21  C   UNL     1      -3.244  11.256  18.237  0.00  0.00    +0.000 A 
ATOM     22  C   UNL     1      -2.052  10.537  18.112  0.00  0.00    +0.000 A 
ENDBRANCH  14  17
ENDBRANCH   1  11
BRANCH   1  23
ATOM     23  C   UNL     1       4.153   7.215  17.293  0.00  0.00    +0.000 C 
BRANCH  23  24
ATOM     24  N   UNL     1       5.090   6.226  17.858  0.00  0.00    +0.000 NA
ATOM     25  H   UNL     1       4.999   5.902  18.819  0.00  0.00    +0.000 HD
BRANCH  24  26
ATOM     26  S   UNL     1       6.637   6.092  17.209  0.00  0.00    +0.000 S 
ATOM     27  O   UNL     1       7.415   5.282  18.125  0.00  0.00    +0.000 OA
ATOM     28  O   UNL     1       7.047   7.444  16.856  0.00  0.00    +0.000 OA
BRANCH  26  33
ATOM     29  C   UNL     1       5.975   3.049  11.966  0.00  0.00    +0.000 C 
ATOM     30  C   UNL     1       6.125   3.800  13.259  0.00  0.00    +0.000 A 
ATOM     31  C   UNL     1       5.189   3.659  14.293  0.00  0.00    +0.000 A 
ATOM     32  C   UNL     1       5.337   4.361  15.495  0.00  0.00    +0.000 A 
ATOM     33  C   UNL     1       6.448   5.185  15.684  0.00  0.00    +0.000 A 
ATOM     34  C   UNL     1       7.382   5.346  14.654  0.00  0.00    +0.000 A 
ATOM     35  C   UNL     1       7.218   4.657  13.448  0.00  0.00    +0.000 A 
ENDBRANCH  26  33
ENDBRANCH  24  26
ENDBRANCH  23  24
ENDBRANCH   1  23
TORSDOF 7
ENDMDL
MODEL 8
REMARK VINA RESULT:      -7.1      3.750      7.822
REMARK  Name = 
REMARK  8 active torsions:
REMARK  status: ('A' for Active; 'I' for Inactive)
REMARK    1  A    between atoms: C_1  and  C_2
REMARK    2  A    between atoms: C_5  and  S_6
REMARK    3  A    between atoms: S_6  and  N_9
REMARK    4  A    between atoms: N_9  and  C_10
REMARK    5  A    between atoms: C_10  and  C_11
REMARK    6  A    between atoms: C_11  and  C_12
REMARK    7  A    between atoms: C_11  and  N_21
REMARK    8  A    between atoms: N_24  and  C_25
REMARK                            x       y       z     vdW  Elec       q    Type
REMARK                         _______ _______ _______ _____ _____    ______ ____
ROOT
ATOM      1  C   UNL     1      -0.102  12.232  20.565  0.00  0.00    +0.000 C 
ENDROOT
BRANCH   1   2
ATOM      2  C   UNL     1      -1.096  12.775  21.641  0.00  0.00    +0.000 A 
ATOM      3  C   UNL     1      -0.683  13.595  22.722  0.00  0.00    +0.000 A 
ATOM      4  C   UNL     1      -1.538  13.905  23.801  0.00  0.00    +0.000 A 
ATOM      5  C   UNL     1      -2.845  13.486  23.719  0.00  0.00    +0.000 A 
ATOM      6  C   UNL     1      -3.289  12.785  22.633  0.00  0.00    +0.000 A 
ATOM      7  C   UNL     1      -2.451  12.411  21.612  0.00  0.00    +0.000 A 
ATOM      8  O   UNL     1      -4.612  12.486  22.692  0.00  0.00    +0.000 OA
ATOM      9  C   UNL     1      -4.978  13.222  23.873  0.00  0.00    +0.000 C 
ATOM     10  O   UNL     1      -3.836  13.688  24.627  0.00  0.00    +0.000 OA
ENDBRANCH   1   2
BRANCH   1  11
ATOM     11  N   UNL     1      -0.625  11.005  19.878  0.00  0.00    +0.000 NA
ATOM     12  C   UNL     1      -0.070  10.773  18.511  0.00  0.00    +0.000 C 
ATOM     13  C   UNL     1       1.348  10.148  18.422  0.00  0.00    +0.000 C 
ATOM     14  N   UNL     1       1.418   8.946  19.259  0.00  0.00    +0.000 N 
ATOM     15  C   UNL     1       0.938   9.128  20.635  0.00  0.00    +0.000 C 
ATOM     16  C   UNL     1      -0.494   9.711  20.591  0.00  0.00    +0.000 C 
BRANCH  14  17
ATOM     17  C   UNL     1       2.280   7.905  18.959  0.00  0.00    +0.000 A 
ATOM     18  C   UNL     1       3.064   7.879  17.798  0.00  0.00    +0.000 A 
ATOM     19  C   UNL     1       3.865   6.776  17.477  0.00  0.00    +0.000 A 
ATOM     20  C   UNL     1       3.895   5.666  18.314  0.00  0.00    +0.000 A 
ATOM     21  C   UNL     1       3.132   5.665  19.475  0.00  0.00    +0.000 A 
ATOM     22  C   UNL     1       2.342   6.774  19.792  0.00  0.00    +0.000 A 
ENDBRANCH  14  17
ENDBRANCH   1  11
BRANCH   1  23
ATOM     23  C   UNL     1       0.149  13.316  19.426  0.00  0.00    +0.000 C 
BRANCH  23  24
ATOM     24  N   UNL     1      -0.922  14.316  19.255  0.00  0.00    +0.000 NA
ATOM     25  H   UNL     1      -1.679  14.171  18.589  0.00  0.00    +0.000 HD
BRANCH  24  26
ATOM     26  S   UNL     1      -0.614  15.926  19.636  0.00  0.00    +0.000 S 
ATOM     27  O   UNL     1      -0.860  16.703  18.438  0.00  0.00    +0.000 OA
ATOM     28  O   UNL     1       0.683  15.945  20.299  0.00  0.00    +0.000 OA
BRANCH  26  33
ATOM     29  C   UNL     1      -4.757  17.432  23.849  0.00  0.00    +0.000 C 
ATOM     30  C   UNL     1      -3.742  17.050  22.808  0.00  0.00    +0.000 A 
ATOM     31  C   UNL     1      -4.103  16.287  21.689  0.00  0.00    +0.000 A 
ATOM     32  C   UNL     1      -3.152  15.937  20.724  0.00  0.00    +0.000 A 
ATOM     33  C   UNL     1      -1.834  16.379  20.856  0.00  0.00    +0.000 A 
ATOM     34  C   UNL     1      -1.457  17.128  21.977  0.00  0.00    +0.000 A 
ATOM     35  C   UNL     1      -2.409  17.459  22.948  0.00  0.00    +0.000 A 
ENDBRANCH  26  33
ENDBRANCH  24  26
ENDBRANCH  23  24
ENDBRANCH   1  23
TORSDOF 7
ENDMDL
MODEL 9
REMARK VINA RESULT:      -7.1      3.754      8.155
REMARK  Name = 
REMARK  8 active torsions:
REMARK  status: ('A' for Active; 'I' for Inactive)
REMARK    1  A    between atoms: C_1  and  C_2
REMARK    2  A    between atoms: C_5  and  S_6
REMARK    3  A    between atoms: S_6  and  N_9
REMARK    4  A    between atoms: N_9  and  C_10
REMARK    5  A    between atoms: C_10  and  C_11
REMARK    6  A    between atoms: C_11  and  C_12
REMARK    7  A    between atoms: C_11  and  N_21
REMARK    8  A    between atoms: N_24  and  C_25
REMARK                            x       y       z     vdW  Elec       q    Type
REMARK                         _______ _______ _______ _____ _____    ______ ____
ROOT
ATOM      1  C   UNL     1       0.098  11.674  21.283  0.00  0.00    +0.000 C 
ENDROOT
BRANCH   1   2
ATOM      2  C   UNL     1      -0.970  12.445  22.123  0.00  0.00    +0.000 A 
ATOM      3  C   UNL     1      -0.664  13.618  22.861  0.00  0.00    +0.000 A 
ATOM      4  C   UNL     1      -1.571  14.185  23.781  0.00  0.00    +0.000 A 
ATOM      5  C   UNL     1      -2.828  13.635  23.860  0.00  0.00    +0.000 A 
ATOM      6  C   UNL     1      -3.176  12.569  23.078  0.00  0.00    +0.000 A 
ATOM      7  C   UNL     1      -2.281  11.959  22.234  0.00  0.00    +0.000 A 
ATOM      8  O   UNL     1      -4.465  12.176  23.248  0.00  0.00    +0.000 OA
ATOM      9  C   UNL     1      -4.928  13.226  24.116  0.00  0.00    +0.000 C 
ATOM     10  O   UNL     1      -3.856  14.030  24.657  0.00  0.00    +0.000 OA
ENDBRANCH   1   2
BRANCH   1  11
ATOM     11  N   UNL     1      -0.480  10.471  20.598  0.00  0.00    +0.000 NA
ATOM     12  C   UNL     1      -0.127  10.350  19.151  0.00  0.00    +0.000 C 
ATOM     13  C   UNL     1       1.282   9.794  18.814  0.00  0.00    +0.000 C 
ATOM     14  N   UNL     1       1.517   8.546  19.548  0.00  0.00    +0.000 N 
ATOM     15  C   UNL     1       1.240   8.620  20.988  0.00  0.00    +0.000 C 
ATOM     16  C   UNL     1      -0.201   9.142  21.194  0.00  0.00    +0.000 C 
BRANCH  14  17
ATOM     17  C   UNL     1       2.359   7.563  19.055  0.00  0.00    +0.000 A 
ATOM     18  C   UNL     1       3.148   7.744  17.911  0.00  0.00    +0.000 A 
ATOM     19  C   UNL     1       3.928   6.706  17.385  0.00  0.00    +0.000 A 
ATOM     20  C   UNL     1       3.931   5.456  17.994  0.00  0.00    +0.000 A 
ATOM     21  C   UNL     1       3.162   5.249  19.133  0.00  0.00    +0.000 A 
ATOM     22  C   UNL     1       2.393   6.293  19.655  0.00  0.00    +0.000 A 
ENDBRANCH  14  17
ENDBRANCH   1  11
BRANCH   1  23
ATOM     23  C   UNL     1       0.696  12.604  20.137  0.00  0.00    +0.000 C 
BRANCH  23  24
ATOM     24  N   UNL     1       2.115  12.976  20.296  0.00  0.00    +0.000 NA
ATOM     25  H   UNL     1       2.824  12.274  20.500  0.00  0.00    +0.000 HD
BRANCH  24  26
ATOM     26  S   UNL     1       2.508  14.541  20.772  0.00  0.00    +0.000 S 
ATOM     27  O   UNL     1       3.727  14.905  20.077  0.00  0.00    +0.000 OA
ATOM     28  O   UNL     1       2.433  14.552  22.227  0.00  0.00    +0.000 OA
BRANCH  26  33
ATOM     29  C   UNL     1      -2.044  18.046  18.729  0.00  0.00    +0.000 C 
ATOM     30  C   UNL     1      -0.923  17.174  19.222  0.00  0.00    +0.000 A 
ATOM     31  C   UNL     1      -0.061  16.526  18.327  0.00  0.00    +0.000 A 
ATOM     32  C   UNL     1       0.981  15.716  18.795  0.00  0.00    +0.000 A 
ATOM     33  C   UNL     1       1.190  15.580  20.169  0.00  0.00    +0.000 A 
ATOM     34  C   UNL     1       0.327  16.209  21.073  0.00  0.00    +0.000 A 
ATOM     35  C   UNL     1      -0.725  17.001  20.599  0.00  0.00    +0.000 A 
ENDBRANCH  26  33
ENDBRANCH  24  26
ENDBRANCH  23  24
ENDBRANCH   1  23
TORSDOF 7
ENDMDL
