MODEL 1
REMARK VINA RESULT:      -6.8      0.000      0.000
REMARK  Name = 
REMARK  9 active torsions:
REMARK  status: ('A' for Active; 'I' for Inactive)
REMARK    1  A    between atoms: C_1  and  O_2
REMARK    2  A    between atoms: O_2  and  C_3
REMARK    3  A    between atoms: C_6  and  N_7
REMARK    4  A    between atoms: C_10  and  C_11
REMARK    5  A    between atoms: C_11  and  C_12
REMARK    6  A    between atoms: N_14  and  C_15
REMARK    7  A    between atoms: N_21  and  C_22
REMARK    8  A    between atoms: C_22  and  C_23
REMARK    9  A    between atoms: C_23  and  C_24
REMARK                            x       y       z     vdW  Elec       q    Type
REMARK                         _______ _______ _______ _____ _____    ______ ____
ROOT
ATOM      1  N   UNL     1       1.502  13.116  19.333  0.00  0.00    +0.000 N 
ATOM      2  C   UNL     1       1.931  12.086  18.525  0.00  0.00    +0.000 C 
ATOM      3  O   UNL     1       2.951  12.055  17.850  0.00  0.00    +0.000 OA
ATOM      4  C   UNL     1       0.968  10.908  18.682  0.00  0.00    +0.000 C 
ATOM      5  N   UNL     1      -0.078  11.505  19.523  0.00  0.00    +0.000 N 
ATOM      6  C   UNL     1       0.271  12.822  19.902  0.00  0.00    +0.000 C 
ATOM      7  S   UNL     1      -0.690  13.849  20.808  0.00  0.00    +0.000 S 
ENDROOT
BRANCH   1  11
ATOM      8  C   UNL     1       3.634  16.734  19.775  0.00  0.00    +0.000 A 
ATOM      9  C   UNL     1       3.884  15.658  20.627  0.00  0.00    +0.000 A 
ATOM     10  C   UNL     1       3.180  14.459  20.487  0.00  0.00    +0.000 A 
ATOM     11  C   UNL     1       2.232  14.317  19.466  0.00  0.00    +0.000 A 
ATOM     12  C   UNL     1       1.976  15.399  18.619  0.00  0.00    +0.000 A 
ATOM     13  C   UNL     1       2.664  16.607  18.781  0.00  0.00    +0.000 A 
BRANCH   8  15
ATOM     14  C   UNL     1       4.506  18.209  21.407  0.00  0.00    +0.000 C 
ATOM     15  O   UNL     1       4.361  17.862  20.035  0.00  0.00    +0.000 OA
ENDBRANCH   8  15
ENDBRANCH   1  11
BRANCH   4  16
ATOM     16  C   UNL     1       1.679   9.757  19.385  0.00  0.00    +0.000 C 
BRANCH  16  17
ATOM     17  C   UNL     1       2.049   8.676  18.398  0.00  0.00    +0.000 C 
ATOM     18  O   UNL     1       1.931   8.879  17.194  0.00  0.00    +0.000 OA
ATOM     19  N   UNL     1       2.428   7.496  19.013  0.00  0.00    +0.000 N 
ATOM     20  H   UNL     1       2.285   7.414  20.012  0.00  0.00    +0.000 HD
BRANCH  19  21
ATOM     21  C   UNL     1       2.904   6.338  18.367  0.00  0.00    +0.000 A 
ATOM     22  C   UNL     1       4.169   6.263  17.778  0.00  0.00    +0.000 A 
ATOM     23  C   UNL     1       4.571   5.097  17.124  0.00  0.00    +0.000 A 
ATOM     24  C   UNL     1       3.720   4.000  17.061  0.00  0.00    +0.000 A 
ATOM     25  C   UNL     1       2.472   4.053  17.675  0.00  0.00    +0.000 A 
ATOM     26  C   UNL     1       2.070   5.217  18.337  0.00  0.00    +0.000 A 
ENDBRANCH  19  21
ENDBRANCH  16  17
ENDBRANCH   4  16
BRANCH   5  27
ATOM     27  C   UNL     1      -1.451  10.962  19.518  0.00  0.00    +0.000 C 
BRANCH  27  28
ATOM     28  C   UNL     1      -1.701   9.859  18.487  0.00  0.00    +0.000 C 
BRANCH  28  29
ATOM     29  C   UNL     1      -2.663  10.302  17.424  0.00  0.00    +0.000 A 
ATOM     30  C   UNL     1      -2.684   9.956  16.087  0.00  0.00    +0.000 A 
ATOM     31  C   UNL     1      -3.757  10.579  15.387  0.00  0.00    +0.000 A 
ATOM     32  C   UNL     1      -4.513  11.382  16.210  0.00  0.00    +0.000 A 
ATOM     33  S   UNL     1      -3.932  11.385  17.816  0.00  0.00    +0.000 S 
ENDBRANCH  28  29
ENDBRANCH  27  28
ENDBRANCH   5  27
TORSDOF 8
ENDMDL
MODEL 2
REMARK VINA RESULT:      -6.7      0.776      1.294
REMARK  Name = 
REMARK  9 active torsions:
REMARK  status: ('A' for Active; 'I' for Inactive)
REMARK    1  A    between atoms: C_1  and  O_2
REMARK    2  A    between atoms: O_2  and  C_3
REMARK    3  A    between atoms: C_6  and  N_7
REMARK    4  A    between atoms: C_10  and  C_11
REMARK    5  A    between atoms: C_11  and  C_12
REMARK    6  A    between atoms: N_14  and  C_15
REMARK    7  A    between atoms: N_21  and  C_22
REMARK    8  A    between atoms: C_22  and  C_23
REMARK    9  A    between atoms: C_23  and  C_24
REMARK                            x       y       z     vdW  Elec       q    Type
REMARK                         _______ _______ _______ _____ _____    ______ ____
ROOT
ATOM      1  N   UNL     1       1.562  13.179  19.387  0.00  0.00    +0.000 N 
ATOM      2  C   UNL     1       1.881  12.121  18.565  0.00  0.00    +0.000 C 
ATOM      3  O   UNL     1       2.855  12.028  17.829  0.00  0.00    +0.000 OA
ATOM      4  C   UNL     1       0.866  11.000  18.793  0.00  0.00    +0.000 C 
ATOM      5  N   UNL     1      -0.091  11.661  19.690  0.00  0.00    +0.000 N 
ATOM      6  C   UNL     1       0.354  12.959  20.034  0.00  0.00    +0.000 C 
ATOM      7  S   UNL     1      -0.490  14.045  20.987  0.00  0.00    +0.000 S 
ENDROOT
BRANCH   1  11
ATOM      8  C   UNL     1       3.915  16.674  19.658  0.00  0.00    +0.000 A 
ATOM      9  C   UNL     1       4.113  15.619  20.548  0.00  0.00    +0.000 A 
ATOM     10  C   UNL     1       3.336  14.461  20.465  0.00  0.00    +0.000 A 
ATOM     11  C   UNL     1       2.365  14.337  19.464  0.00  0.00    +0.000 A 
ATOM     12  C   UNL     1       2.162  15.400  18.578  0.00  0.00    +0.000 A 
ATOM     13  C   UNL     1       2.923  16.569  18.683  0.00  0.00    +0.000 A 
BRANCH   8  15
ATOM     14  C   UNL     1       6.110  17.559  19.693  0.00  0.00    +0.000 C 
ATOM     15  O   UNL     1       4.712  17.765  19.864  0.00  0.00    +0.000 OA
ENDBRANCH   8  15
ENDBRANCH   1  11
BRANCH   4  16
ATOM     16  C   UNL     1       1.553   9.816  19.462  0.00  0.00    +0.000 C 
BRANCH  16  17
ATOM     17  C   UNL     1       1.875   8.743  18.449  0.00  0.00    +0.000 C 
ATOM     18  O   UNL     1       1.643   8.934  17.260  0.00  0.00    +0.000 OA
ATOM     19  N   UNL     1       2.351   7.582  19.031  0.00  0.00    +0.000 N 
ATOM     20  H   UNL     1       2.301   7.501  20.040  0.00  0.00    +0.000 HD
BRANCH  19  21
ATOM     21  C   UNL     1       2.812   6.439  18.349  0.00  0.00    +0.000 A 
ATOM     22  C   UNL     1       2.059   5.268  18.235  0.00  0.00    +0.000 A 
ATOM     23  C   UNL     1       2.585   4.156  17.573  0.00  0.00    +0.000 A 
ATOM     24  C   UNL     1       3.856   4.209  17.016  0.00  0.00    +0.000 A 
ATOM     25  C   UNL     1       4.600   5.383  17.094  0.00  0.00    +0.000 A 
ATOM     26  C   UNL     1       4.073   6.500  17.750  0.00  0.00    +0.000 A 
ENDBRANCH  19  21
ENDBRANCH  16  17
ENDBRANCH   4  16
BRANCH   5  27
ATOM     27  C   UNL     1      -1.490  11.197  19.775  0.00  0.00    +0.000 C 
BRANCH  27  28
ATOM     28  C   UNL     1      -2.488  12.012  18.949  0.00  0.00    +0.000 C 
BRANCH  28  29
ATOM     29  C   UNL     1      -2.869  11.304  17.683  0.00  0.00    +0.000 A 
ATOM     30  C   UNL     1      -3.928  11.567  16.837  0.00  0.00    +0.000 A 
ATOM     31  C   UNL     1      -3.963  10.677  15.725  0.00  0.00    +0.000 A 
ATOM     32  C   UNL     1      -2.935   9.762  15.764  0.00  0.00    +0.000 A 
ATOM     33  S   UNL     1      -1.935   9.976  17.131  0.00  0.00    +0.000 S 
ENDBRANCH  28  29
ENDBRANCH  27  28
ENDBRANCH   5  27
TORSDOF 8
ENDMDL
MODEL 3
REMARK VINA RESULT:      -6.6      0.782      1.018
REMARK  Name = 
REMARK  9 active torsions:
REMARK  status: ('A' for Active; 'I' for Inactive)
REMARK    1  A    between atoms: C_1  and  O_2
REMARK    2  A    between atoms: O_2  and  C_3
REMARK    3  A    between atoms: C_6  and  N_7
REMARK    4  A    between atoms: C_10  and  C_11
REMARK    5  A    between atoms: C_11  and  C_12
REMARK    6  A    between atoms: N_14  and  C_15
REMARK    7  A    between atoms: N_21  and  C_22
REMARK    8  A    between atoms: C_22  and  C_23
REMARK    9  A    between atoms: C_23  and  C_24
REMARK                            x       y       z     vdW  Elec       q    Type
REMARK                         _______ _______ _______ _____ _____    ______ ____
ROOT
ATOM      1  N   UNL     1       1.316  13.060  19.277  0.00  0.00    +0.000 N 
ATOM      2  C   UNL     1       1.796  12.029  18.500  0.00  0.00    +0.000 C 
ATOM      3  O   UNL     1       2.854  12.000  17.886  0.00  0.00    +0.000 OA
ATOM      4  C   UNL     1       0.830  10.847  18.605  0.00  0.00    +0.000 C 
ATOM      5  N   UNL     1      -0.265  11.443  19.381  0.00  0.00    +0.000 N 
ATOM      6  C   UNL     1       0.055  12.763  19.775  0.00  0.00    +0.000 C 
ATOM      7  S   UNL     1      -0.962  13.788  20.619  0.00  0.00    +0.000 S 
ENDROOT
BRANCH   1  11
ATOM      8  C   UNL     1       3.403  16.689  19.828  0.00  0.00    +0.000 A 
ATOM      9  C   UNL     1       3.598  15.622  20.706  0.00  0.00    +0.000 A 
ATOM     10  C   UNL     1       2.908  14.420  20.530  0.00  0.00    +0.000 A 
ATOM     11  C   UNL     1       2.032  14.265  19.449  0.00  0.00    +0.000 A 
ATOM     12  C   UNL     1       1.832  15.338  18.575  0.00  0.00    +0.000 A 
ATOM     13  C   UNL     1       2.503  16.550  18.772  0.00  0.00    +0.000 A 
BRANCH   8  15
ATOM     14  C   UNL     1       3.724  18.501  21.317  0.00  0.00    +0.000 C 
ATOM     15  O   UNL     1       4.107  17.822  20.127  0.00  0.00    +0.000 OA
ENDBRANCH   8  15
ENDBRANCH   1  11
BRANCH   4  16
ATOM     16  C   UNL     1       1.504   9.702  19.353  0.00  0.00    +0.000 C 
BRANCH  16  17
ATOM     17  C   UNL     1       2.002   8.654  18.387  0.00  0.00    +0.000 C 
ATOM     18  O   UNL     1       2.065   8.906  17.188  0.00  0.00    +0.000 OA
ATOM     19  N   UNL     1       2.273   7.444  19.001  0.00  0.00    +0.000 N 
ATOM     20  H   UNL     1       1.985   7.326  19.964  0.00  0.00    +0.000 HD
BRANCH  19  21
ATOM     21  C   UNL     1       2.826   6.305  18.385  0.00  0.00    +0.000 A 
ATOM     22  C   UNL     1       4.160   6.234  17.976  0.00  0.00    +0.000 A 
ATOM     23  C   UNL     1       4.640   5.087  17.340  0.00  0.00    +0.000 A 
ATOM     24  C   UNL     1       3.798   4.005  17.118  0.00  0.00    +0.000 A 
ATOM     25  C   UNL     1       2.477   4.052  17.554  0.00  0.00    +0.000 A 
ATOM     26  C   UNL     1       1.995   5.196  18.197  0.00  0.00    +0.000 A 
ENDBRANCH  19  21
ENDBRANCH  16  17
ENDBRANCH   4  16
BRANCH   5  27
ATOM     27  C   UNL     1      -1.633  10.894  19.299  0.00  0.00    +0.000 C 
BRANCH  27  28
ATOM     28  C   UNL     1      -2.237  10.883  17.892  0.00  0.00    +0.000 C 
BRANCH  28  29
ATOM     29  C   UNL     1      -3.620  11.465  17.878  0.00  0.00    +0.000 A 
ATOM     30  C   UNL     1      -4.498  11.566  16.817  0.00  0.00    +0.000 A 
ATOM     31  C   UNL     1      -5.728  12.179  17.193  0.00  0.00    +0.000 A 
ATOM     32  C   UNL     1      -5.745  12.528  18.525  0.00  0.00    +0.000 A 
ATOM     33  S   UNL     1      -4.287  12.120  19.315  0.00  0.00    +0.000 S 
ENDBRANCH  28  29
ENDBRANCH  27  28
ENDBRANCH   5  27
TORSDOF 8
ENDMDL
MODEL 4
REMARK VINA RESULT:      -6.6      0.829      1.349
REMARK  Name = 
REMARK  9 active torsions:
REMARK  status: ('A' for Active; 'I' for Inactive)
REMARK    1  A    between atoms: C_1  and  O_2
REMARK    2  A    between atoms: O_2  and  C_3
REMARK    3  A    between atoms: C_6  and  N_7
REMARK    4  A    between atoms: C_10  and  C_11
REMARK    5  A    between atoms: C_11  and  C_12
REMARK    6  A    between atoms: N_14  and  C_15
REMARK    7  A    between atoms: N_21  and  C_22
REMARK    8  A    between atoms: C_22  and  C_23
REMARK    9  A    between atoms: C_23  and  C_24
REMARK                            x       y       z     vdW  Elec       q    Type
REMARK                         _______ _______ _______ _____ _____    ______ ____
ROOT
ATOM      1  N   UNL     1       1.602  13.052  19.403  0.00  0.00    +0.000 N 
ATOM      2  C   UNL     1       1.907  11.985  18.587  0.00  0.00    +0.000 C 
ATOM      3  O   UNL     1       2.896  11.861  17.876  0.00  0.00    +0.000 OA
ATOM      4  C   UNL     1       0.848  10.899  18.785  0.00  0.00    +0.000 C 
ATOM      5  N   UNL     1      -0.109  11.590  19.658  0.00  0.00    +0.000 N 
ATOM      6  C   UNL     1       0.370  12.871  20.017  0.00  0.00    +0.000 C 
ATOM      7  S   UNL     1      -0.462  13.983  20.950  0.00  0.00    +0.000 S 
ENDROOT
BRANCH   1  11
ATOM      8  C   UNL     1       4.164  16.396  19.676  0.00  0.00    +0.000 A 
ATOM      9  C   UNL     1       3.376  16.201  18.542  0.00  0.00    +0.000 A 
ATOM     10  C   UNL     1       2.529  15.095  18.445  0.00  0.00    +0.000 A 
ATOM     11  C   UNL     1       2.441  14.182  19.504  0.00  0.00    +0.000 A 
ATOM     12  C   UNL     1       3.237  14.375  20.636  0.00  0.00    +0.000 A 
ATOM     13  C   UNL     1       4.107  15.469  20.717  0.00  0.00    +0.000 A 
BRANCH   8  15
ATOM     14  C   UNL     1       6.217  17.330  18.958  0.00  0.00    +0.000 C 
ATOM     15  O   UNL     1       4.978  17.494  19.637  0.00  0.00    +0.000 OA
ENDBRANCH   8  15
ENDBRANCH   1  11
BRANCH   4  16
ATOM     16  C   UNL     1       1.478   9.691  19.469  0.00  0.00    +0.000 C 
BRANCH  16  17
ATOM     17  C   UNL     1       1.873   8.647  18.451  0.00  0.00    +0.000 C 
ATOM     18  O   UNL     1       1.699   8.861  17.256  0.00  0.00    +0.000 OA
ATOM     19  N   UNL     1       2.344   7.483  19.033  0.00  0.00    +0.000 N 
ATOM     20  H   UNL     1       2.244   7.379  20.035  0.00  0.00    +0.000 HD
BRANCH  19  21
ATOM     21  C   UNL     1       2.863   6.365  18.351  0.00  0.00    +0.000 A 
ATOM     22  C   UNL     1       4.124   6.361  17.750  0.00  0.00    +0.000 A 
ATOM     23  C   UNL     1       4.569   5.231  17.060  0.00  0.00    +0.000 A 
ATOM     24  C   UNL     1       3.766   4.101  16.974  0.00  0.00    +0.000 A 
ATOM     25  C   UNL     1       2.523   4.083  17.600  0.00  0.00    +0.000 A 
ATOM     26  C   UNL     1       2.078   5.210  18.298  0.00  0.00    +0.000 A 
ENDBRANCH  19  21
ENDBRANCH  16  17
ENDBRANCH   4  16
BRANCH   5  27
ATOM     27  C   UNL     1      -1.524  11.173  19.706  0.00  0.00    +0.000 C 
BRANCH  27  28
ATOM     28  C   UNL     1      -2.469  12.007  18.836  0.00  0.00    +0.000 C 
BRANCH  28  29
ATOM     29  C   UNL     1      -2.855  11.280  17.582  0.00  0.00    +0.000 A 
ATOM     30  C   UNL     1      -3.905  11.544  16.725  0.00  0.00    +0.000 A 
ATOM     31  C   UNL     1      -3.950  10.632  15.632  0.00  0.00    +0.000 A 
ATOM     32  C   UNL     1      -2.938   9.701  15.694  0.00  0.00    +0.000 A 
ATOM     33  S   UNL     1      -1.942   9.926  17.062  0.00  0.00    +0.000 S 
ENDBRANCH  28  29
ENDBRANCH  27  28
ENDBRANCH   5  27
TORSDOF 8
ENDMDL
MODEL 5
REMARK VINA RESULT:      -6.5      3.020      8.530
REMARK  Name = 
REMARK  9 active torsions:
REMARK  status: ('A' for Active; 'I' for Inactive)
REMARK    1  A    between atoms: C_1  and  O_2
REMARK    2  A    between atoms: O_2  and  C_3
REMARK    3  A    between atoms: C_6  and  N_7
REMARK    4  A    between atoms: C_10  and  C_11
REMARK    5  A    between atoms: C_11  and  C_12
REMARK    6  A    between atoms: N_14  and  C_15
REMARK    7  A    between atoms: N_21  and  C_22
REMARK    8  A    between atoms: C_22  and  C_23
REMARK    9  A    between atoms: C_23  and  C_24
REMARK                            x       y       z     vdW  Elec       q    Type
REMARK                         _______ _______ _______ _____ _____    ______ ____
ROOT
ATOM      1  N   UNL     1       2.781   6.982  18.444  0.00  0.00    +0.000 N 
ATOM      2  C   UNL     1       2.619   8.281  18.015  0.00  0.00    +0.000 C 
ATOM      3  O   UNL     1       3.101   8.791  17.012  0.00  0.00    +0.000 OA
ATOM      4  C   UNL     1       1.633   8.985  18.949  0.00  0.00    +0.000 C 
ATOM      5  N   UNL     1       1.441   7.962  19.985  0.00  0.00    +0.000 N 
ATOM      6  C   UNL     1       2.132   6.773  19.653  0.00  0.00    +0.000 C 
ATOM      7  S   UNL     1       2.206   5.404  20.611  0.00  0.00    +0.000 S 
ENDROOT
BRANCH   1  11
ATOM      8  C   UNL     1       5.115   4.218  16.267  0.00  0.00    +0.000 A 
ATOM      9  C   UNL     1       5.549   5.534  16.432  0.00  0.00    +0.000 A 
ATOM     10  C   UNL     1       4.779   6.453  17.149  0.00  0.00    +0.000 A 
ATOM     11  C   UNL     1       3.573   6.053  17.736  0.00  0.00    +0.000 A 
ATOM     12  C   UNL     1       3.136   4.736  17.563  0.00  0.00    +0.000 A 
ATOM     13  C   UNL     1       3.896   3.826  16.820  0.00  0.00    +0.000 A 
BRANCH   8  15
ATOM     14  C   UNL     1       6.391   3.981  14.288  0.00  0.00    +0.000 C 
ATOM     15  O   UNL     1       5.938   3.425  15.517  0.00  0.00    +0.000 OA
ENDBRANCH   8  15
ENDBRANCH   1  11
BRANCH   4  16
ATOM     16  C   UNL     1       0.343   9.286  18.196  0.00  0.00    +0.000 C 
BRANCH  16  17
ATOM     17  C   UNL     1      -0.063  10.729  18.385  0.00  0.00    +0.000 C 
ATOM     18  O   UNL     1      -1.242  11.015  18.562  0.00  0.00    +0.000 OA
ATOM     19  N   UNL     1       1.000  11.605  18.257  0.00  0.00    +0.000 N 
ATOM     20  H   UNL     1       1.879  11.238  17.913  0.00  0.00    +0.000 HD
BRANCH  19  21
ATOM     21  C   UNL     1       0.956  12.998  18.459  0.00  0.00    +0.000 A 
ATOM     22  C   UNL     1      -0.238  13.722  18.506  0.00  0.00    +0.000 A 
ATOM     23  C   UNL     1      -0.213  15.108  18.678  0.00  0.00    +0.000 A 
ATOM     24  C   UNL     1       0.998  15.776  18.811  0.00  0.00    +0.000 A 
ATOM     25  C   UNL     1       2.191  15.059  18.801  0.00  0.00    +0.000 A 
ATOM     26  C   UNL     1       2.169  13.671  18.637  0.00  0.00    +0.000 A 
ENDBRANCH  19  21
ENDBRANCH  16  17
ENDBRANCH   4  16
BRANCH   5  27
ATOM     27  C   UNL     1       1.009   8.337  21.345  0.00  0.00    +0.000 C 
BRANCH  27  28
ATOM     28  C   UNL     1       1.467   9.723  21.804  0.00  0.00    +0.000 C 
BRANCH  28  29
ATOM     29  C   UNL     1       0.304  10.605  22.152  0.00  0.00    +0.000 A 
ATOM     30  C   UNL     1       0.026  11.878  21.695  0.00  0.00    +0.000 A 
ATOM     31  C   UNL     1      -1.178  12.398  22.251  0.00  0.00    +0.000 A 
ATOM     32  C   UNL     1      -1.774  11.508  23.116  0.00  0.00    +0.000 A 
ATOM     33  S   UNL     1      -0.886  10.056  23.256  0.00  0.00    +0.000 S 
ENDBRANCH  28  29
ENDBRANCH  27  28
ENDBRANCH   5  27
TORSDOF 8
ENDMDL
MODEL 6
REMARK VINA RESULT:      -6.5      3.192      5.719
REMARK  Name = 
REMARK  9 active torsions:
REMARK  status: ('A' for Active; 'I' for Inactive)
REMARK    1  A    between atoms: C_1  and  O_2
REMARK    2  A    between atoms: O_2  and  C_3
REMARK    3  A    between atoms: C_6  and  N_7
REMARK    4  A    between atoms: C_10  and  C_11
REMARK    5  A    between atoms: C_11  and  C_12
REMARK    6  A    between atoms: N_14  and  C_15
REMARK    7  A    between atoms: N_21  and  C_22
REMARK    8  A    between atoms: C_22  and  C_23
REMARK    9  A    between atoms: C_23  and  C_24
REMARK                            x       y       z     vdW  Elec       q    Type
REMARK                         _______ _______ _______ _____ _____    ______ ____
ROOT
ATOM      1  N   UNL     1       1.307   9.473  19.302  0.00  0.00    +0.000 N 
ATOM      2  C   UNL     1       1.742   8.710  18.241  0.00  0.00    +0.000 C 
ATOM      3  O   UNL     1       1.882   9.073  17.081  0.00  0.00    +0.000 OA
ATOM      4  C   UNL     1       2.137   7.327  18.763  0.00  0.00    +0.000 C 
ATOM      5  N   UNL     1       1.703   7.417  20.164  0.00  0.00    +0.000 N 
ATOM      6  C   UNL     1       1.219   8.712  20.459  0.00  0.00    +0.000 C 
ATOM      7  S   UNL     1       0.579   9.188  21.930  0.00  0.00    +0.000 S 
ENDROOT
BRANCH   1  11
ATOM      8  C   UNL     1       0.245  13.526  18.780  0.00  0.00    +0.000 A 
ATOM      9  C   UNL     1      -0.721  12.525  18.682  0.00  0.00    +0.000 A 
ATOM     10  C   UNL     1      -0.374  11.182  18.851  0.00  0.00    +0.000 A 
ATOM     11  C   UNL     1       0.947  10.830  19.150  0.00  0.00    +0.000 A 
ATOM     12  C   UNL     1       1.916  11.834  19.240  0.00  0.00    +0.000 A 
ATOM     13  C   UNL     1       1.570  13.175  19.041  0.00  0.00    +0.000 A 
BRANCH   8  15
ATOM     14  C   UNL     1       0.724  15.844  18.790  0.00  0.00    +0.000 C 
ATOM     15  O   UNL     1      -0.210  14.796  18.559  0.00  0.00    +0.000 OA
ENDBRANCH   8  15
ENDBRANCH   1  11
BRANCH   4  16
ATOM     16  C   UNL     1       3.646   7.147  18.642  0.00  0.00    +0.000 C 
BRANCH  16  17
ATOM     17  C   UNL     1       3.977   6.106  17.600  0.00  0.00    +0.000 C 
ATOM     18  O   UNL     1       3.233   5.144  17.437  0.00  0.00    +0.000 OA
ATOM     19  N   UNL     1       5.187   6.342  16.972  0.00  0.00    +0.000 N 
ATOM     20  H   UNL     1       5.785   7.066  17.350  0.00  0.00    +0.000 HD
BRANCH  19  21
ATOM     21  C   UNL     1       5.728   5.599  15.905  0.00  0.00    +0.000 A 
ATOM     22  C   UNL     1       7.098   5.538  15.639  0.00  0.00    +0.000 A 
ATOM     23  C   UNL     1       7.570   4.810  14.546  0.00  0.00    +0.000 A 
ATOM     24  C   UNL     1       6.683   4.132  13.719  0.00  0.00    +0.000 A 
ATOM     25  C   UNL     1       5.319   4.157  13.996  0.00  0.00    +0.000 A 
ATOM     26  C   UNL     1       4.844   4.880  15.095  0.00  0.00    +0.000 A 
ENDBRANCH  19  21
ENDBRANCH  16  17
ENDBRANCH   4  16
BRANCH   5  27
ATOM     27  C   UNL     1       1.385   6.199  20.935  0.00  0.00    +0.000 C 
BRANCH  27  28
ATOM     28  C   UNL     1       2.503   5.154  20.974  0.00  0.00    +0.000 C 
BRANCH  28  29
ATOM     29  C   UNL     1       2.149   3.933  20.177  0.00  0.00    +0.000 A 
ATOM     30  C   UNL     1       0.944   3.616  19.581  0.00  0.00    +0.000 A 
ATOM     31  C   UNL     1       0.992   2.364  18.904  0.00  0.00    +0.000 A 
ATOM     32  C   UNL     1       2.227   1.766  19.010  0.00  0.00    +0.000 A 
ATOM     33  S   UNL     1       3.321   2.709  19.920  0.00  0.00    +0.000 S 
ENDBRANCH  28  29
ENDBRANCH  27  28
ENDBRANCH   5  27
TORSDOF 8
ENDMDL
MODEL 7
REMARK VINA RESULT:      -6.5      1.323      2.004
REMARK  Name = 
REMARK  9 active torsions:
REMARK  status: ('A' for Active; 'I' for Inactive)
REMARK    1  A    between atoms: C_1  and  O_2
REMARK    2  A    between atoms: O_2  and  C_3
REMARK    3  A    between atoms: C_6  and  N_7
REMARK    4  A    between atoms: C_10  and  C_11
REMARK    5  A    between atoms: C_11  and  C_12
REMARK    6  A    between atoms: N_14  and  C_15
REMARK    7  A    between atoms: N_21  and  C_22
REMARK    8  A    between atoms: C_22  and  C_23
REMARK    9  A    between atoms: C_23  and  C_24
REMARK                            x       y       z     vdW  Elec       q    Type
REMARK                         _______ _______ _______ _____ _____    ______ ____
ROOT
ATOM      1  N   UNL     1       1.461  13.148  19.352  0.00  0.00    +0.000 N 
ATOM      2  C   UNL     1       1.843  12.102  18.542  0.00  0.00    +0.000 C 
ATOM      3  O   UNL     1       2.860  12.029  17.865  0.00  0.00    +0.000 OA
ATOM      4  C   UNL     1       0.831  10.966  18.700  0.00  0.00    +0.000 C 
ATOM      5  N   UNL     1      -0.186  11.606  19.544  0.00  0.00    +0.000 N 
ATOM      6  C   UNL     1       0.220  12.906  19.925  0.00  0.00    +0.000 C 
ATOM      7  S   UNL     1      -0.695  13.972  20.834  0.00  0.00    +0.000 S 
ENDROOT
BRANCH   1  11
ATOM      8  C   UNL     1       3.844  16.615  19.708  0.00  0.00    +0.000 A 
ATOM      9  C   UNL     1       2.839  16.545  18.743  0.00  0.00    +0.000 A 
ATOM     10  C   UNL     1       2.049  15.399  18.619  0.00  0.00    +0.000 A 
ATOM     11  C   UNL     1       2.242  14.317  19.486  0.00  0.00    +0.000 A 
ATOM     12  C   UNL     1       3.255  14.386  20.447  0.00  0.00    +0.000 A 
ATOM     13  C   UNL     1       4.063  15.524  20.548  0.00  0.00    +0.000 A 
BRANCH   8  15
ATOM     14  C   UNL     1       5.958  17.641  19.993  0.00  0.00    +0.000 C 
ATOM     15  O   UNL     1       4.571  17.773  19.706  0.00  0.00    +0.000 OA
ENDBRANCH   8  15
ENDBRANCH   1  11
BRANCH   4  16
ATOM     16  C   UNL     1       1.494   9.785  19.399  0.00  0.00    +0.000 C 
BRANCH  16  17
ATOM     17  C   UNL     1       1.916   8.739  18.395  0.00  0.00    +0.000 C 
ATOM     18  O   UNL     1       1.817   8.967  17.194  0.00  0.00    +0.000 OA
ATOM     19  N   UNL     1       2.318   7.556  18.990  0.00  0.00    +0.000 N 
ATOM     20  H   UNL     1       2.157   7.447  19.984  0.00  0.00    +0.000 HD
BRANCH  19  21
ATOM     21  C   UNL     1       2.842   6.429  18.328  0.00  0.00    +0.000 A 
ATOM     22  C   UNL     1       2.140   5.227  18.204  0.00  0.00    +0.000 A 
ATOM     23  C   UNL     1       2.727   4.134  17.564  0.00  0.00    +0.000 A 
ATOM     24  C   UNL     1       4.009   4.236  17.038  0.00  0.00    +0.000 A 
ATOM     25  C   UNL     1       4.702   5.440  17.125  0.00  0.00    +0.000 A 
ATOM     26  C   UNL     1       4.114   6.538  17.759  0.00  0.00    +0.000 A 
ENDBRANCH  19  21
ENDBRANCH  16  17
ENDBRANCH   4  16
BRANCH   5  27
ATOM     27  C   UNL     1      -1.581  11.123  19.542  0.00  0.00    +0.000 C 
BRANCH  27  28
ATOM     28  C   UNL     1      -2.453  11.682  18.415  0.00  0.00    +0.000 C 
BRANCH  28  29
ATOM     29  C   UNL     1      -3.874  11.873  18.856  0.00  0.00    +0.000 A 
ATOM     30  C   UNL     1      -4.351  12.612  19.920  0.00  0.00    +0.000 A 
ATOM     31  C   UNL     1      -5.771  12.556  20.020  0.00  0.00    +0.000 A 
ATOM     32  C   UNL     1      -6.328  11.772  19.035  0.00  0.00    +0.000 A 
ATOM     33  S   UNL     1      -5.146  11.109  17.997  0.00  0.00    +0.000 S 
ENDBRANCH  28  29
ENDBRANCH  27  28
ENDBRANCH   5  27
TORSDOF 8
ENDMDL
MODEL 8
REMARK VINA RESULT:      -6.3      3.161      5.628
REMARK  Name = 
REMARK  9 active torsions:
REMARK  status: ('A' for Active; 'I' for Inactive)
REMARK    1  A    between atoms: C_1  and  O_2
REMARK    2  A    between atoms: O_2  and  C_3
REMARK    3  A    between atoms: C_6  and  N_7
REMARK    4  A    between atoms: C_10  and  C_11
REMARK    5  A    between atoms: C_11  and  C_12
REMARK    6  A    between atoms: N_14  and  C_15
REMARK    7  A    between atoms: N_21  and  C_22
REMARK    8  A    between atoms: C_22  and  C_23
REMARK    9  A    between atoms: C_23  and  C_24
REMARK                            x       y       z     vdW  Elec       q    Type
REMARK                         _______ _______ _______ _____ _____    ______ ____
ROOT
ATOM      1  N   UNL     1       1.318   9.579  19.296  0.00  0.00    +0.000 N 
ATOM      2  C   UNL     1       1.724   8.769  18.259  0.00  0.00    +0.000 C 
ATOM      3  O   UNL     1       1.870   9.090  17.087  0.00  0.00    +0.000 OA
ATOM      4  C   UNL     1       2.079   7.393  18.824  0.00  0.00    +0.000 C 
ATOM      5  N   UNL     1       1.656   7.541  20.223  0.00  0.00    +0.000 N 
ATOM      6  C   UNL     1       1.212   8.859  20.478  0.00  0.00    +0.000 C 
ATOM      7  S   UNL     1       0.595   9.401  21.935  0.00  0.00    +0.000 S 
ENDROOT
BRANCH   1  11
ATOM      8  C   UNL     1       0.348  13.657  18.787  0.00  0.00    +0.000 A 
ATOM      9  C   UNL     1       1.664  13.271  19.044  0.00  0.00    +0.000 A 
ATOM     10  C   UNL     1       1.990  11.923  19.216  0.00  0.00    +0.000 A 
ATOM     11  C   UNL     1       0.999  10.941  19.103  0.00  0.00    +0.000 A 
ATOM     12  C   UNL     1      -0.321  11.330  18.853  0.00  0.00    +0.000 A 
ATOM     13  C   UNL     1      -0.648  12.683  18.710  0.00  0.00    +0.000 A 
BRANCH   8  15
ATOM     14  C   UNL     1       0.911  15.824  19.553  0.00  0.00    +0.000 C 
ATOM     15  O   UNL     1       0.150  15.005  18.673  0.00  0.00    +0.000 OA
ENDBRANCH   8  15
ENDBRANCH   1  11
BRANCH   4  16
ATOM     16  C   UNL     1       3.581   7.163  18.702  0.00  0.00    +0.000 C 
BRANCH  16  17
ATOM     17  C   UNL     1       3.880   6.134  17.638  0.00  0.00    +0.000 C 
ATOM     18  O   UNL     1       3.093   5.213  17.439  0.00  0.00    +0.000 OA
ATOM     19  N   UNL     1       5.109   6.327  17.035  0.00  0.00    +0.000 N 
ATOM     20  H   UNL     1       5.735   7.011  17.442  0.00  0.00    +0.000 HD
BRANCH  19  21
ATOM     21  C   UNL     1       5.632   5.586  15.957  0.00  0.00    +0.000 A 
ATOM     22  C   UNL     1       4.838   4.793  15.125  0.00  0.00    +0.000 A 
ATOM     23  C   UNL     1       5.420   4.056  14.092  0.00  0.00    +0.000 A 
ATOM     24  C   UNL     1       6.792   4.112  13.878  0.00  0.00    +0.000 A 
ATOM     25  C   UNL     1       7.587   4.927  14.680  0.00  0.00    +0.000 A 
ATOM     26  C   UNL     1       7.005   5.672  15.710  0.00  0.00    +0.000 A 
ENDBRANCH  19  21
ENDBRANCH  16  17
ENDBRANCH   4  16
BRANCH   5  27
ATOM     27  C   UNL     1       1.305   6.358  21.033  0.00  0.00    +0.000 C 
BRANCH  27  28
ATOM     28  C   UNL     1       2.399   5.292  21.120  0.00  0.00    +0.000 C 
BRANCH  28  29
ATOM     29  C   UNL     1       2.043   4.066  20.330  0.00  0.00    +0.000 A 
ATOM     30  C   UNL     1       0.827   3.731  19.768  0.00  0.00    +0.000 A 
ATOM     31  C   UNL     1       0.877   2.481  19.087  0.00  0.00    +0.000 A 
ATOM     32  C   UNL     1       2.125   1.903  19.156  0.00  0.00    +0.000 A 
ATOM     33  S   UNL     1       3.228   2.863  20.038  0.00  0.00    +0.000 S 
ENDBRANCH  28  29
ENDBRANCH  27  28
ENDBRANCH   5  27
TORSDOF 8
ENDMDL
MODEL 9
REMARK VINA RESULT:      -6.3      3.620      5.735
REMARK  Name = 
REMARK  9 active torsions:
REMARK  status: ('A' for Active; 'I' for Inactive)
REMARK    1  A    between atoms: C_1  and  O_2
REMARK    2  A    between atoms: O_2  and  C_3
REMARK    3  A    between atoms: C_6  and  N_7
REMARK    4  A    between atoms: C_10  and  C_11
REMARK    5  A    between atoms: C_11  and  C_12
REMARK    6  A    between atoms: N_14  and  C_15
REMARK    7  A    between atoms: N_21  and  C_22
REMARK    8  A    between atoms: C_22  and  C_23
REMARK    9  A    between atoms: C_23  and  C_24
REMARK                            x       y       z     vdW  Elec       q    Type
REMARK                         _______ _______ _______ _____ _____    ______ ____
ROOT
ATOM      1  N   UNL     1       0.536  10.172  20.066  0.00  0.00    +0.000 N 
ATOM      2  C   UNL     1       0.622   9.661  18.790  0.00  0.00    +0.000 C 
ATOM      3  O   UNL     1       0.205  10.176  17.761  0.00  0.00    +0.000 OA
ATOM      4  C   UNL     1       1.435   8.366  18.836  0.00  0.00    +0.000 C 
ATOM      5  N   UNL     1       1.608   8.189  20.284  0.00  0.00    +0.000 N 
ATOM      6  C   UNL     1       1.068   9.286  20.994  0.00  0.00    +0.000 C 
ATOM      7  S   UNL     1       1.018   9.424  22.660  0.00  0.00    +0.000 S 
ENDROOT
BRANCH   1  11
ATOM      8  C   UNL     1      -1.339  13.881  20.808  0.00  0.00    +0.000 A 
ATOM      9  C   UNL     1      -2.091  12.706  20.765  0.00  0.00    +0.000 A 
ATOM     10  C   UNL     1      -1.476  11.477  20.517  0.00  0.00    +0.000 A 
ATOM     11  C   UNL     1      -0.089  11.408  20.338  0.00  0.00    +0.000 A 
ATOM     12  C   UNL     1       0.661  12.588  20.373  0.00  0.00    +0.000 A 
ATOM     13  C   UNL     1       0.037  13.821  20.593  0.00  0.00    +0.000 A 
BRANCH   8  15
ATOM     14  C   UNL     1      -3.475  14.889  20.967  0.00  0.00    +0.000 C 
ATOM     15  O   UNL     1      -2.060  15.023  21.023  0.00  0.00    +0.000 OA
ENDBRANCH   8  15
ENDBRANCH   1  11
BRANCH   4  16
ATOM     16  C   UNL     1       2.765   8.572  18.121  0.00  0.00    +0.000 C 
BRANCH  16  17
ATOM     17  C   UNL     1       3.334   7.252  17.659  0.00  0.00    +0.000 C 
ATOM     18  O   UNL     1       2.622   6.253  17.637  0.00  0.00    +0.000 OA
ATOM     19  N   UNL     1       4.685   7.321  17.371  0.00  0.00    +0.000 N 
ATOM     20  H   UNL     1       5.182   8.166  17.626  0.00  0.00    +0.000 HD
BRANCH  19  21
ATOM     21  C   UNL     1       5.477   6.283  16.843  0.00  0.00    +0.000 A 
ATOM     22  C   UNL     1       6.417   5.583  17.603  0.00  0.00    +0.000 A 
ATOM     23  C   UNL     1       7.195   4.585  17.013  0.00  0.00    +0.000 A 
ATOM     24  C   UNL     1       7.034   4.274  15.669  0.00  0.00    +0.000 A 
ATOM     25  C   UNL     1       6.074   4.941  14.912  0.00  0.00    +0.000 A 
ATOM     26  C   UNL     1       5.289   5.936  15.502  0.00  0.00    +0.000 A 
ENDBRANCH  19  21
ENDBRANCH  16  17
ENDBRANCH   4  16
BRANCH   5  27
ATOM     27  C   UNL     1       1.857   6.852  20.856  0.00  0.00    +0.000 C 
BRANCH  27  28
ATOM     28  C   UNL     1       0.823   5.789  20.476  0.00  0.00    +0.000 C 
BRANCH  28  29
ATOM     29  C   UNL     1       1.403   4.406  20.533  0.00  0.00    +0.000 A 
ATOM     30  C   UNL     1       2.160   3.833  21.536  0.00  0.00    +0.000 A 
ATOM     31  C   UNL     1       2.528   2.491  21.231  0.00  0.00    +0.000 A 
ATOM     32  C   UNL     1       2.046   2.088  20.007  0.00  0.00    +0.000 A 
ATOM     33  S   UNL     1       1.155   3.320  19.230  0.00  0.00    +0.000 S 
ENDBRANCH  28  29
ENDBRANCH  27  28
ENDBRANCH   5  27
TORSDOF 8
ENDMDL
