MODEL 1
REMARK VINA RESULT:      -7.8      0.000      0.000
REMARK  Name = 
REMARK  7 active torsions:
REMARK  status: ('A' for Active; 'I' for Inactive)
REMARK    1  A    between atoms: N_10  and  C_11
REMARK    2  A    between atoms: C_11  and  C_12
REMARK    3  A    between atoms: C_17  and  C_18
REMARK    4  A    between atoms: C_18  and  C_19
REMARK    5  A    between atoms: C_19  and  P_22
REMARK    6  A    between atoms: P_22  and  O_24
REMARK    7  A    between atoms: P_22  and  O_25
REMARK                            x       y       z     vdW  Elec       q    Type
REMARK                         _______ _______ _______ _____ _____    ______ ____
ROOT
ATOM      1  C   UNL     1       4.021   5.965  17.639  0.00  0.00    +0.000 C 
ATOM      2  C   UNL     1       5.498   6.377  17.622  0.00  0.00    +0.000 C 
ATOM      3  O   UNL     1       6.169   5.858  16.478  0.00  0.00    +0.000 OA
ATOM      4  C   UNL     1       6.181   4.435  16.457  0.00  0.00    +0.000 C 
ATOM      5  C   UNL     1       4.759   3.915  16.318  0.00  0.00    +0.000 C 
ATOM      6  C   UNL     1       3.829   4.422  17.438  0.00  0.00    +0.000 C 
ENDROOT
BRANCH   1   7
ATOM      7  C   UNL     1       3.320   6.504  18.901  0.00  0.00    +0.000 C 
BRANCH   7  17
ATOM      8  O   UNL     1      -0.609  10.978  19.001  0.00  0.00    +0.000 OA
ATOM      9  C   UNL     1       0.046  10.078  19.522  0.00  0.00    +0.000 A 
ATOM     10  N   UNL     1      -0.208   9.633  20.807  0.00  0.00    +0.000 N 
ATOM     11  C   UNL     1       0.483   8.607  21.414  0.00  0.00    +0.000 A 
ATOM     12  N   UNL     1       1.448   7.917  20.873  0.00  0.00    +0.000 NA
ATOM     13  C   UNL     1       1.725   8.325  19.612  0.00  0.00    +0.000 A 
ATOM     14  C   UNL     1       1.131   9.343  18.891  0.00  0.00    +0.000 A 
ATOM     15  N   UNL     1       1.667   9.453  17.637  0.00  0.00    +0.000 NA
ATOM     16  C   UNL     1       2.563   8.488  17.579  0.00  0.00    +0.000 A 
ATOM     17  N   UNL     1       2.625   7.768  18.747  0.00  0.00    +0.000 N 
ATOM     18  H   UNL     1      -0.971  10.103  21.278  0.00  0.00    +0.000 HD
ENDBRANCH   7  17
ENDBRANCH   1   7
BRANCH   6  19
ATOM     19  C   UNL     1       3.941   3.581  18.736  0.00  0.00    +0.000 C 
BRANCH  19  20
ATOM     20  C   UNL     1       2.622   3.004  19.213  0.00  0.00    +0.000 C 
ATOM     21  F   UNL     1       1.575   3.614  18.604  0.00  0.00    +0.000 F 
ATOM     22  F   UNL     1       2.519   1.678  18.992  0.00  0.00    +0.000 F 
BRANCH  20  23
ATOM     23  P   UNL     1       2.218   3.193  20.937  0.00  0.00    +0.000 P 
ATOM     24  O   UNL     1       2.995   2.391  21.937  0.00  0.00    +0.000 OA
BRANCH  23  25
ATOM     25  O   UNL     1       2.315   4.758  21.297  0.00  0.00    +0.000 OA
ATOM     26  H   UNL     1       2.466   5.305  20.503  0.00  0.00    +0.000 HD
ENDBRANCH  23  25
BRANCH  23  27
ATOM     27  O   UNL     1       0.644   2.920  21.136  0.00  0.00    +0.000 OA
ATOM     28  H   UNL     1       0.276   2.315  20.465  0.00  0.00    +0.000 HD
ENDBRANCH  23  27
ENDBRANCH  20  23
ENDBRANCH  19  20
ENDBRANCH   6  19
TORSDOF 7
ENDMDL
MODEL 2
REMARK VINA RESULT:      -7.6      1.267      1.645
REMARK  Name = 
REMARK  7 active torsions:
REMARK  status: ('A' for Active; 'I' for Inactive)
REMARK    1  A    between atoms: N_10  and  C_11
REMARK    2  A    between atoms: C_11  and  C_12
REMARK    3  A    between atoms: C_17  and  C_18
REMARK    4  A    between atoms: C_18  and  C_19
REMARK    5  A    between atoms: C_19  and  P_22
REMARK    6  A    between atoms: P_22  and  O_24
REMARK    7  A    between atoms: P_22  and  O_25
REMARK                            x       y       z     vdW  Elec       q    Type
REMARK                         _______ _______ _______ _____ _____    ______ ____
ROOT
ATOM      1  C   UNL     1       4.170   6.074  17.366  0.00  0.00    +0.000 C 
ATOM      2  C   UNL     1       5.575   6.687  17.409  0.00  0.00    +0.000 C 
ATOM      3  O   UNL     1       6.338   6.315  16.265  0.00  0.00    +0.000 OA
ATOM      4  C   UNL     1       6.549   4.910  16.188  0.00  0.00    +0.000 C 
ATOM      5  C   UNL     1       5.217   4.205  15.987  0.00  0.00    +0.000 C 
ATOM      6  C   UNL     1       4.200   4.530  17.099  0.00  0.00    +0.000 C 
ENDROOT
BRANCH   1   7
ATOM      7  C   UNL     1       3.372   6.457  18.628  0.00  0.00    +0.000 C 
BRANCH   7  17
ATOM      8  O   UNL     1      -0.462  10.981  19.167  0.00  0.00    +0.000 OA
ATOM      9  C   UNL     1       0.191  10.036  19.602  0.00  0.00    +0.000 A 
ATOM     10  N   UNL     1      -0.029   9.508  20.862  0.00  0.00    +0.000 N 
ATOM     11  C   UNL     1       0.662   8.431  21.375  0.00  0.00    +0.000 A 
ATOM     12  N   UNL     1       1.594   7.763  20.754  0.00  0.00    +0.000 NA
ATOM     13  C   UNL     1       1.838   8.252  19.516  0.00  0.00    +0.000 A 
ATOM     14  C   UNL     1       1.240   9.327  18.887  0.00  0.00    +0.000 A 
ATOM     15  N   UNL     1       1.736   9.514  17.625  0.00  0.00    +0.000 NA
ATOM     16  C   UNL     1       2.610   8.539  17.471  0.00  0.00    +0.000 A 
ATOM     17  N   UNL     1       2.697   7.740  18.584  0.00  0.00    +0.000 N 
ATOM     18  H   UNL     1      -0.767   9.958  21.390  0.00  0.00    +0.000 HD
ENDBRANCH   7  17
ENDBRANCH   1   7
BRANCH   6  19
ATOM     19  C   UNL     1       4.397   3.657  18.365  0.00  0.00    +0.000 C 
BRANCH  19  20
ATOM     20  C   UNL     1       3.357   2.566  18.531  0.00  0.00    +0.000 C 
ATOM     21  F   UNL     1       3.416   1.678  17.508  0.00  0.00    +0.000 F 
ATOM     22  F   UNL     1       3.495   1.882  19.686  0.00  0.00    +0.000 F 
BRANCH  20  23
ATOM     23  P   UNL     1       1.645   3.052  18.513  0.00  0.00    +0.000 P 
ATOM     24  O   UNL     1       1.153   3.866  17.355  0.00  0.00    +0.000 OA
BRANCH  23  25
ATOM     25  O   UNL     1       0.753   1.721  18.663  0.00  0.00    +0.000 OA
ATOM     26  H   UNL     1       1.140   0.967  18.178  0.00  0.00    +0.000 HD
ENDBRANCH  23  25
BRANCH  23  27
ATOM     27  O   UNL     1       1.305   3.815  19.889  0.00  0.00    +0.000 OA
ATOM     28  H   UNL     1       0.427   3.582  20.245  0.00  0.00    +0.000 HD
ENDBRANCH  23  27
ENDBRANCH  20  23
ENDBRANCH  19  20
ENDBRANCH   6  19
TORSDOF 7
ENDMDL
MODEL 3
REMARK VINA RESULT:      -7.5      2.683      4.508
REMARK  Name = 
REMARK  7 active torsions:
REMARK  status: ('A' for Active; 'I' for Inactive)
REMARK    1  A    between atoms: N_10  and  C_11
REMARK    2  A    between atoms: C_11  and  C_12
REMARK    3  A    between atoms: C_17  and  C_18
REMARK    4  A    between atoms: C_18  and  C_19
REMARK    5  A    between atoms: C_19  and  P_22
REMARK    6  A    between atoms: P_22  and  O_24
REMARK    7  A    between atoms: P_22  and  O_25
REMARK                            x       y       z     vdW  Elec       q    Type
REMARK                         _______ _______ _______ _____ _____    ______ ____
ROOT
ATOM      1  C   UNL     1       3.035   5.833  19.492  0.00  0.00    +0.000 C 
ATOM      2  C   UNL     1       1.959   4.744  19.593  0.00  0.00    +0.000 C 
ATOM      3  O   UNL     1       2.498   3.529  20.107  0.00  0.00    +0.000 OA
ATOM      4  C   UNL     1       3.501   2.981  19.260  0.00  0.00    +0.000 C 
ATOM      5  C   UNL     1       4.696   3.921  19.209  0.00  0.00    +0.000 C 
ATOM      6  C   UNL     1       4.316   5.338  18.737  0.00  0.00    +0.000 C 
ENDROOT
BRANCH   1   7
ATOM      7  C   UNL     1       2.444   7.127  18.901  0.00  0.00    +0.000 C 
BRANCH   7  17
ATOM      8  O   UNL     1       0.197  11.664  22.036  0.00  0.00    +0.000 OA
ATOM      9  C   UNL     1       0.505  11.096  20.991  0.00  0.00    +0.000 A 
ATOM     10  N   UNL     1       0.512  11.751  19.772  0.00  0.00    +0.000 N 
ATOM     11  C   UNL     1       0.880  11.157  18.584  0.00  0.00    +0.000 A 
ATOM     12  N   UNL     1       1.276   9.923  18.443  0.00  0.00    +0.000 NA
ATOM     13  C   UNL     1       1.283   9.250  19.618  0.00  0.00    +0.000 A 
ATOM     14  C   UNL     1       0.925   9.708  20.870  0.00  0.00    +0.000 A 
ATOM     15  N   UNL     1       1.078   8.741  21.826  0.00  0.00    +0.000 NA
ATOM     16  C   UNL     1       1.557   7.705  21.167  0.00  0.00    +0.000 A 
ATOM     17  N   UNL     1       1.711   7.969  19.828  0.00  0.00    +0.000 N 
ATOM     18  H   UNL     1       0.246  12.727  19.812  0.00  0.00    +0.000 HD
ENDBRANCH   7  17
ENDBRANCH   1   7
BRANCH   6  19
ATOM     19  C   UNL     1       4.243   5.454  17.192  0.00  0.00    +0.000 C 
BRANCH  19  20
ATOM     20  C   UNL     1       5.488   6.043  16.557  0.00  0.00    +0.000 C 
ATOM     21  F   UNL     1       5.181   6.724  15.424  0.00  0.00    +0.000 F 
ATOM     22  F   UNL     1       6.150   6.880  17.381  0.00  0.00    +0.000 F 
BRANCH  20  23
ATOM     23  P   UNL     1       6.737   4.908  15.989  0.00  0.00    +0.000 P 
ATOM     24  O   UNL     1       7.499   5.258  14.747  0.00  0.00    +0.000 OA
BRANCH  23  25
ATOM     25  O   UNL     1       7.760   4.654  17.205  0.00  0.00    +0.000 OA
ATOM     26  H   UNL     1       7.321   4.733  18.073  0.00  0.00    +0.000 HD
ENDBRANCH  23  25
BRANCH  23  27
ATOM     27  O   UNL     1       6.078   3.448  15.823  0.00  0.00    +0.000 OA
ATOM     28  H   UNL     1       5.360   3.429  15.162  0.00  0.00    +0.000 HD
ENDBRANCH  23  27
ENDBRANCH  20  23
ENDBRANCH  19  20
ENDBRANCH   6  19
TORSDOF 7
ENDMDL
MODEL 4
REMARK VINA RESULT:      -7.5      2.675      4.312
REMARK  Name = 
REMARK  7 active torsions:
REMARK  status: ('A' for Active; 'I' for Inactive)
REMARK    1  A    between atoms: N_10  and  C_11
REMARK    2  A    between atoms: C_11  and  C_12
REMARK    3  A    between atoms: C_17  and  C_18
REMARK    4  A    between atoms: C_18  and  C_19
REMARK    5  A    between atoms: C_19  and  P_22
REMARK    6  A    between atoms: P_22  and  O_24
REMARK    7  A    between atoms: P_22  and  O_25
REMARK                            x       y       z     vdW  Elec       q    Type
REMARK                         _______ _______ _______ _____ _____    ______ ____
ROOT
ATOM      1  C   UNL     1       3.108   5.830  19.108  0.00  0.00    +0.000 C 
ATOM      2  C   UNL     1       2.477   4.499  19.538  0.00  0.00    +0.000 C 
ATOM      3  O   UNL     1       3.395   3.710  20.289  0.00  0.00    +0.000 OA
ATOM      4  C   UNL     1       4.544   3.348  19.531  0.00  0.00    +0.000 C 
ATOM      5  C   UNL     1       5.336   4.597  19.178  0.00  0.00    +0.000 C 
ATOM      6  C   UNL     1       4.496   5.634  18.408  0.00  0.00    +0.000 C 
ENDROOT
BRANCH   1   7
ATOM      7  C   UNL     1       2.114   6.654  18.267  0.00  0.00    +0.000 C 
BRANCH   7  17
ATOM      8  O   UNL     1       0.500  11.955  20.448  0.00  0.00    +0.000 OA
ATOM      9  C   UNL     1       0.769  10.761  20.549  0.00  0.00    +0.000 A 
ATOM     10  N   UNL     1       0.509  10.043  21.704  0.00  0.00    +0.000 N 
ATOM     11  C   UNL     1       0.769   8.697  21.845  0.00  0.00    +0.000 A 
ATOM     12  N   UNL     1       1.275   7.921  20.927  0.00  0.00    +0.000 NA
ATOM     13  C   UNL     1       1.543   8.590  19.782  0.00  0.00    +0.000 A 
ATOM     14  C   UNL     1       1.353   9.930  19.508  0.00  0.00    +0.000 A 
ATOM     15  N   UNL     1       1.727  10.243  18.229  0.00  0.00    +0.000 NA
ATOM     16  C   UNL     1       2.114   9.093  17.712  0.00  0.00    +0.000 A 
ATOM     17  N   UNL     1       2.008   8.059  18.610  0.00  0.00    +0.000 N 
ATOM     18  H   UNL     1       0.082  10.577  22.450  0.00  0.00    +0.000 HD
ENDBRANCH   7  17
ENDBRANCH   1   7
BRANCH   6  19
ATOM     19  C   UNL     1       4.418   5.332  16.888  0.00  0.00    +0.000 C 
BRANCH  19  20
ATOM     20  C   UNL     1       5.568   5.910  16.085  0.00  0.00    +0.000 C 
ATOM     21  F   UNL     1       5.138   6.374  14.885  0.00  0.00    +0.000 F 
ATOM     22  F   UNL     1       6.198   6.918  16.721  0.00  0.00    +0.000 F 
BRANCH  20  23
ATOM     23  P   UNL     1       6.879   4.802  15.614  0.00  0.00    +0.000 P 
ATOM     24  O   UNL     1       7.876   4.401  16.658  0.00  0.00    +0.000 OA
BRANCH  23  25
ATOM     25  O   UNL     1       6.208   3.491  14.966  0.00  0.00    +0.000 OA
ATOM     26  H   UNL     1       5.740   2.954  15.633  0.00  0.00    +0.000 HD
ENDBRANCH  23  25
BRANCH  23  27
ATOM     27  O   UNL     1       7.652   5.420  14.343  0.00  0.00    +0.000 OA
ATOM     28  H   UNL     1       7.653   4.822  13.572  0.00  0.00    +0.000 HD
ENDBRANCH  23  27
ENDBRANCH  20  23
ENDBRANCH  19  20
ENDBRANCH   6  19
TORSDOF 7
ENDMDL
MODEL 5
REMARK VINA RESULT:      -7.5      0.875      1.251
REMARK  Name = 
REMARK  7 active torsions:
REMARK  status: ('A' for Active; 'I' for Inactive)
REMARK    1  A    between atoms: N_10  and  C_11
REMARK    2  A    between atoms: C_11  and  C_12
REMARK    3  A    between atoms: C_17  and  C_18
REMARK    4  A    between atoms: C_18  and  C_19
REMARK    5  A    between atoms: C_19  and  P_22
REMARK    6  A    between atoms: P_22  and  O_24
REMARK    7  A    between atoms: P_22  and  O_25
REMARK                            x       y       z     vdW  Elec       q    Type
REMARK                         _______ _______ _______ _____ _____    ______ ____
ROOT
ATOM      1  C   UNL     1       4.315   6.074  17.672  0.00  0.00    +0.000 C 
ATOM      2  C   UNL     1       5.786   6.174  18.098  0.00  0.00    +0.000 C 
ATOM      3  O   UNL     1       6.659   5.782  17.043  0.00  0.00    +0.000 OA
ATOM      4  C   UNL     1       6.474   4.423  16.664  0.00  0.00    +0.000 C 
ATOM      5  C   UNL     1       5.083   4.241  16.077  0.00  0.00    +0.000 C 
ATOM      6  C   UNL     1       3.968   4.679  17.047  0.00  0.00    +0.000 C 
ENDROOT
BRANCH   1   7
ATOM      7  C   UNL     1       3.385   6.466  18.837  0.00  0.00    +0.000 C 
BRANCH   7  17
ATOM      8  O   UNL     1      -0.506  10.971  18.992  0.00  0.00    +0.000 OA
ATOM      9  C   UNL     1       0.141  10.059  19.501  0.00  0.00    +0.000 A 
ATOM     10  N   UNL     1      -0.119   9.599  20.780  0.00  0.00    +0.000 N 
ATOM     11  C   UNL     1       0.563   8.559  21.375  0.00  0.00    +0.000 A 
ATOM     12  N   UNL     1       1.523   7.868  20.825  0.00  0.00    +0.000 NA
ATOM     13  C   UNL     1       1.805   8.291  19.570  0.00  0.00    +0.000 A 
ATOM     14  C   UNL     1       1.220   9.322  18.862  0.00  0.00    +0.000 A 
ATOM     15  N   UNL     1       1.758   9.445  17.610  0.00  0.00    +0.000 NA
ATOM     16  C   UNL     1       2.646   8.473  17.540  0.00  0.00    +0.000 A 
ATOM     17  N   UNL     1       2.701   7.737  18.699  0.00  0.00    +0.000 N 
ATOM     18  H   UNL     1      -0.879  10.069  21.257  0.00  0.00    +0.000 HD
ENDBRANCH   7  17
ENDBRANCH   1   7
BRANCH   6  19
ATOM     19  C   UNL     1       3.606   3.579  18.079  0.00  0.00    +0.000 C 
BRANCH  19  20
ATOM     20  C   UNL     1       2.138   3.200  18.089  0.00  0.00    +0.000 C 
ATOM     21  F   UNL     1       1.403   4.083  17.367  0.00  0.00    +0.000 F 
ATOM     22  F   UNL     1       1.911   1.966  17.595  0.00  0.00    +0.000 F 
BRANCH  20  23
ATOM     23  P   UNL     1       1.298   3.203  19.658  0.00  0.00    +0.000 P 
ATOM     24  O   UNL     1       1.004   4.525  20.301  0.00  0.00    +0.000 OA
BRANCH  23  25
ATOM     25  O   UNL     1      -0.063   2.362  19.490  0.00  0.00    +0.000 OA
ATOM     26  H   UNL     1       0.006   1.696  18.781  0.00  0.00    +0.000 HD
ENDBRANCH  23  25
BRANCH  23  27
ATOM     27  O   UNL     1       2.117   2.274  20.689  0.00  0.00    +0.000 OA
ATOM     28  H   UNL     1       1.990   1.322  20.522  0.00  0.00    +0.000 HD
ENDBRANCH  23  27
ENDBRANCH  20  23
ENDBRANCH  19  20
ENDBRANCH   6  19
TORSDOF 7
ENDMDL
MODEL 6
REMARK VINA RESULT:      -7.4      2.685      4.490
REMARK  Name = 
REMARK  7 active torsions:
REMARK  status: ('A' for Active; 'I' for Inactive)
REMARK    1  A    between atoms: N_10  and  C_11
REMARK    2  A    between atoms: C_11  and  C_12
REMARK    3  A    between atoms: C_17  and  C_18
REMARK    4  A    between atoms: C_18  and  C_19
REMARK    5  A    between atoms: C_19  and  P_22
REMARK    6  A    between atoms: P_22  and  O_24
REMARK    7  A    between atoms: P_22  and  O_25
REMARK                            x       y       z     vdW  Elec       q    Type
REMARK                         _______ _______ _______ _____ _____    ______ ____
ROOT
ATOM      1  C   UNL     1       2.574   5.065  18.796  0.00  0.00    +0.000 C 
ATOM      2  C   UNL     1       1.284   4.386  18.321  0.00  0.00    +0.000 C 
ATOM      3  O   UNL     1       1.312   2.984  18.574  0.00  0.00    +0.000 OA
ATOM      4  C   UNL     1       2.358   2.329  17.866  0.00  0.00    +0.000 C 
ATOM      5  C   UNL     1       3.705   2.821  18.373  0.00  0.00    +0.000 C 
ATOM      6  C   UNL     1       3.860   4.350  18.255  0.00  0.00    +0.000 C 
ENDROOT
BRANCH   1   7
ATOM      7  C   UNL     1       2.541   6.574  18.483  0.00  0.00    +0.000 C 
BRANCH   7  17
ATOM      8  O   UNL     1       0.574  11.047  21.886  0.00  0.00    +0.000 OA
ATOM      9  C   UNL     1       0.871  10.532  20.811  0.00  0.00    +0.000 A 
ATOM     10  N   UNL     1       0.978  11.272  19.647  0.00  0.00    +0.000 N 
ATOM     11  C   UNL     1       1.338  10.737  18.428  0.00  0.00    +0.000 A 
ATOM     12  N   UNL     1       1.633   9.487  18.205  0.00  0.00    +0.000 NA
ATOM     13  C   UNL     1       1.539   8.731  19.324  0.00  0.00    +0.000 A 
ATOM     14  C   UNL     1       1.175   9.126  20.597  0.00  0.00    +0.000 A 
ATOM     15  N   UNL     1       1.210   8.081  21.480  0.00  0.00    +0.000 NA
ATOM     16  C   UNL     1       1.623   7.058  20.758  0.00  0.00    +0.000 A 
ATOM     17  N   UNL     1       1.849   7.405  19.449  0.00  0.00    +0.000 N 
ATOM     18  H   UNL     1       0.795  12.262  19.752  0.00  0.00    +0.000 HD
ENDBRANCH   7  17
ENDBRANCH   1   7
BRANCH   6  19
ATOM     19  C   UNL     1       4.302   4.799  16.837  0.00  0.00    +0.000 C 
BRANCH  19  20
ATOM     20  C   UNL     1       5.658   5.478  16.800  0.00  0.00    +0.000 C 
ATOM     21  F   UNL     1       5.594   6.656  16.131  0.00  0.00    +0.000 F 
ATOM     22  F   UNL     1       6.156   5.722  18.029  0.00  0.00    +0.000 F 
BRANCH  20  23
ATOM     23  P   UNL     1       6.977   4.634  15.954  0.00  0.00    +0.000 P 
ATOM     24  O   UNL     1       7.682   5.354  14.845  0.00  0.00    +0.000 OA
BRANCH  23  25
ATOM     25  O   UNL     1       8.044   4.154  17.060  0.00  0.00    +0.000 OA
ATOM     26  H   UNL     1       7.944   3.207  17.274  0.00  0.00    +0.000 HD
ENDBRANCH  23  25
BRANCH  23  27
ATOM     27  O   UNL     1       6.428   3.220  15.412  0.00  0.00    +0.000 OA
ATOM     28  H   UNL     1       6.533   3.117  14.448  0.00  0.00    +0.000 HD
ENDBRANCH  23  27
ENDBRANCH  20  23
ENDBRANCH  19  20
ENDBRANCH   6  19
TORSDOF 7
ENDMDL
MODEL 7
REMARK VINA RESULT:      -7.3      2.666      4.449
REMARK  Name = 
REMARK  7 active torsions:
REMARK  status: ('A' for Active; 'I' for Inactive)
REMARK    1  A    between atoms: N_10  and  C_11
REMARK    2  A    between atoms: C_11  and  C_12
REMARK    3  A    between atoms: C_17  and  C_18
REMARK    4  A    between atoms: C_18  and  C_19
REMARK    5  A    between atoms: C_19  and  P_22
REMARK    6  A    between atoms: P_22  and  O_24
REMARK    7  A    between atoms: P_22  and  O_25
REMARK                            x       y       z     vdW  Elec       q    Type
REMARK                         _______ _______ _______ _____ _____    ______ ____
ROOT
ATOM      1  C   UNL     1       2.725   4.808  18.893  0.00  0.00    +0.000 C 
ATOM      2  C   UNL     1       1.563   4.183  18.111  0.00  0.00    +0.000 C 
ATOM      3  O   UNL     1       1.453   2.787  18.371  0.00  0.00    +0.000 OA
ATOM      4  C   UNL     1       2.608   2.067  17.957  0.00  0.00    +0.000 C 
ATOM      5  C   UNL     1       3.806   2.503  18.786  0.00  0.00    +0.000 C 
ATOM      6  C   UNL     1       4.066   4.020  18.700  0.00  0.00    +0.000 C 
ENDROOT
BRANCH   1   7
ATOM      7  C   UNL     1       2.852   6.309  18.571  0.00  0.00    +0.000 C 
BRANCH   7  17
ATOM      8  O   UNL     1       0.577  10.995  21.458  0.00  0.00    +0.000 OA
ATOM      9  C   UNL     1       0.983  10.413  20.455  0.00  0.00    +0.000 A 
ATOM     10  N   UNL     1       1.224  11.078  19.266  0.00  0.00    +0.000 N 
ATOM     11  C   UNL     1       1.708  10.467  18.129  0.00  0.00    +0.000 A 
ATOM     12  N   UNL     1       2.012   9.203  18.017  0.00  0.00    +0.000 NA
ATOM     13  C   UNL     1       1.788   8.519  19.164  0.00  0.00    +0.000 A 
ATOM     14  C   UNL     1       1.293   8.995  20.362  0.00  0.00    +0.000 A 
ATOM     15  N   UNL     1       1.220   8.007  21.307  0.00  0.00    +0.000 NA
ATOM     16  C   UNL     1       1.698   6.939  20.699  0.00  0.00    +0.000 A 
ATOM     17  N   UNL     1       2.068   7.203  19.403  0.00  0.00    +0.000 N 
ATOM     18  H   UNL     1       1.042  12.074  19.290  0.00  0.00    +0.000 HD
ENDBRANCH   7  17
ENDBRANCH   1   7
BRANCH   6  19
ATOM     19  C   UNL     1       4.876   4.417  17.439  0.00  0.00    +0.000 C 
BRANCH  19  20
ATOM     20  C   UNL     1       6.205   5.083  17.742  0.00  0.00    +0.000 C 
ATOM     21  F   UNL     1       6.150   5.769  18.911  0.00  0.00    +0.000 F 
ATOM     22  F   UNL     1       7.225   4.204  17.822  0.00  0.00    +0.000 F 
BRANCH  20  23
ATOM     23  P   UNL     1       6.783   6.322  16.603  0.00  0.00    +0.000 P 
ATOM     24  O   UNL     1       7.566   7.476  17.150  0.00  0.00    +0.000 OA
BRANCH  23  25
ATOM     25  O   UNL     1       7.634   5.578  15.457  0.00  0.00    +0.000 OA
ATOM     26  H   UNL     1       8.590   5.752  15.543  0.00  0.00    +0.000 HD
ENDBRANCH  23  25
BRANCH  23  27
ATOM     27  O   UNL     1       5.531   6.875  15.755  0.00  0.00    +0.000 OA
ATOM     28  H   UNL     1       5.653   6.778  14.792  0.00  0.00    +0.000 HD
ENDBRANCH  23  27
ENDBRANCH  20  23
ENDBRANCH  19  20
ENDBRANCH   6  19
TORSDOF 7
ENDMDL
MODEL 8
REMARK VINA RESULT:      -7.2      2.519      4.468
REMARK  Name = 
REMARK  7 active torsions:
REMARK  status: ('A' for Active; 'I' for Inactive)
REMARK    1  A    between atoms: N_10  and  C_11
REMARK    2  A    between atoms: C_11  and  C_12
REMARK    3  A    between atoms: C_17  and  C_18
REMARK    4  A    between atoms: C_18  and  C_19
REMARK    5  A    between atoms: C_19  and  P_22
REMARK    6  A    between atoms: P_22  and  O_24
REMARK    7  A    between atoms: P_22  and  O_25
REMARK                            x       y       z     vdW  Elec       q    Type
REMARK                         _______ _______ _______ _____ _____    ______ ____
ROOT
ATOM      1  C   UNL     1       2.515   5.312  19.832  0.00  0.00    +0.000 C 
ATOM      2  C   UNL     1       1.320   4.474  19.359  0.00  0.00    +0.000 C 
ATOM      3  O   UNL     1       1.379   3.148  19.877  0.00  0.00    +0.000 OA
ATOM      4  C   UNL     1       2.529   2.442  19.427  0.00  0.00    +0.000 C 
ATOM      5  C   UNL     1       3.783   3.107  19.974  0.00  0.00    +0.000 C 
ATOM      6  C   UNL     1       3.885   4.594  19.582  0.00  0.00    +0.000 C 
ENDROOT
BRANCH   1   7
ATOM      7  C   UNL     1       2.454   6.731  19.233  0.00  0.00    +0.000 C 
BRANCH   7  17
ATOM      8  O   UNL     1       0.406  11.721  21.755  0.00  0.00    +0.000 OA
ATOM      9  C   UNL     1       0.745  11.034  20.795  0.00  0.00    +0.000 A 
ATOM     10  N   UNL     1       0.923  11.572  19.532  0.00  0.00    +0.000 N 
ATOM     11  C   UNL     1       1.332  10.841  18.437  0.00  0.00    +0.000 A 
ATOM     12  N   UNL     1       1.615   9.568  18.437  0.00  0.00    +0.000 NA
ATOM     13  C   UNL     1       1.452   9.007  19.658  0.00  0.00    +0.000 A 
ATOM     14  C   UNL     1       1.034   9.609  20.829  0.00  0.00    +0.000 A 
ATOM     15  N   UNL     1       1.006   8.723  21.872  0.00  0.00    +0.000 NA
ATOM     16  C   UNL     1       1.435   7.591  21.348  0.00  0.00    +0.000 A 
ATOM     17  N   UNL     1       1.731   7.717  20.013  0.00  0.00    +0.000 N 
ATOM     18  H   UNL     1       0.754  12.568  19.466  0.00  0.00    +0.000 HD
ENDBRANCH   7  17
ENDBRANCH   1   7
BRANCH   6  19
ATOM     19  C   UNL     1       4.474   4.799  18.162  0.00  0.00    +0.000 C 
BRANCH  19  20
ATOM     20  C   UNL     1       5.859   5.417  18.151  0.00  0.00    +0.000 C 
ATOM     21  F   UNL     1       5.806   6.726  17.800  0.00  0.00    +0.000 F 
ATOM     22  F   UNL     1       6.481   5.329  19.344  0.00  0.00    +0.000 F 
BRANCH  20  23
ATOM     23  P   UNL     1       7.042   4.763  16.993  0.00  0.00    +0.000 P 
ATOM     24  O   UNL     1       8.319   4.192  17.531  0.00  0.00    +0.000 OA
BRANCH  23  25
ATOM     25  O   UNL     1       6.290   3.664  16.089  0.00  0.00    +0.000 OA
ATOM     26  H   UNL     1       6.853   2.884  15.920  0.00  0.00    +0.000 HD
ENDBRANCH  23  25
BRANCH  23  27
ATOM     27  O   UNL     1       7.379   5.894  15.897  0.00  0.00    +0.000 OA
ATOM     28  H   UNL     1       6.579   6.313  15.527  0.00  0.00    +0.000 HD
ENDBRANCH  23  27
ENDBRANCH  20  23
ENDBRANCH  19  20
ENDBRANCH   6  19
TORSDOF 7
ENDMDL
MODEL 9
REMARK VINA RESULT:      -7.2      2.757      4.206
REMARK  Name = 
REMARK  7 active torsions:
REMARK  status: ('A' for Active; 'I' for Inactive)
REMARK    1  A    between atoms: N_10  and  C_11
REMARK    2  A    between atoms: C_11  and  C_12
REMARK    3  A    between atoms: C_17  and  C_18
REMARK    4  A    between atoms: C_18  and  C_19
REMARK    5  A    between atoms: C_19  and  P_22
REMARK    6  A    between atoms: P_22  and  O_24
REMARK    7  A    between atoms: P_22  and  O_25
REMARK                            x       y       z     vdW  Elec       q    Type
REMARK                         _______ _______ _______ _____ _____    ______ ____
ROOT
ATOM      1  C   UNL     1       2.651   5.080  18.624  0.00  0.00    +0.000 C 
ATOM      2  C   UNL     1       1.500   4.325  17.946  0.00  0.00    +0.000 C 
ATOM      3  O   UNL     1       1.588   2.923  18.184  0.00  0.00    +0.000 OA
ATOM      4  C   UNL     1       2.775   2.356  17.641  0.00  0.00    +0.000 C 
ATOM      5  C   UNL     1       3.989   2.928  18.356  0.00  0.00    +0.000 C 
ATOM      6  C   UNL     1       4.051   4.466  18.280  0.00  0.00    +0.000 C 
ENDROOT
BRANCH   1   7
ATOM      7  C   UNL     1       2.560   6.589  18.325  0.00  0.00    +0.000 C 
BRANCH   7  17
ATOM      8  O   UNL     1       0.623  10.950  21.888  0.00  0.00    +0.000 OA
ATOM      9  C   UNL     1       0.916  10.472  20.795  0.00  0.00    +0.000 A 
ATOM     10  N   UNL     1       1.028  11.253  19.658  0.00  0.00    +0.000 N 
ATOM     11  C   UNL     1       1.384  10.760  18.420  0.00  0.00    +0.000 A 
ATOM     12  N   UNL     1       1.671   9.516  18.153  0.00  0.00    +0.000 NA
ATOM     13  C   UNL     1       1.572   8.721  19.244  0.00  0.00    +0.000 A 
ATOM     14  C   UNL     1       1.211   9.073  20.530  0.00  0.00    +0.000 A 
ATOM     15  N   UNL     1       1.239   7.997  21.376  0.00  0.00    +0.000 NA
ATOM     16  C   UNL     1       1.646   6.998  20.617  0.00  0.00    +0.000 A 
ATOM     17  N   UNL     1       1.873   7.390  19.321  0.00  0.00    +0.000 N 
ATOM     18  H   UNL     1       0.852  12.240  19.799  0.00  0.00    +0.000 HD
ENDBRANCH   7  17
ENDBRANCH   1   7
BRANCH   6  19
ATOM     19  C   UNL     1       4.674   4.975  16.954  0.00  0.00    +0.000 C 
BRANCH  19  20
ATOM     20  C   UNL     1       5.862   5.898  17.144  0.00  0.00    +0.000 C 
ATOM     21  F   UNL     1       6.668   5.886  16.052  0.00  0.00    +0.000 F 
ATOM     22  F   UNL     1       5.501   7.175  17.383  0.00  0.00    +0.000 F 
BRANCH  20  23
ATOM     23  P   UNL     1       7.000   5.514  18.458  0.00  0.00    +0.000 P 
ATOM     24  O   UNL     1       6.446   5.291  19.832  0.00  0.00    +0.000 OA
BRANCH  23  25
ATOM     25  O   UNL     1       7.864   4.234  18.003  0.00  0.00    +0.000 OA
ATOM     26  H   UNL     1       8.593   4.481  17.404  0.00  0.00    +0.000 HD
ENDBRANCH  23  25
BRANCH  23  27
ATOM     27  O   UNL     1       8.136   6.655  18.514  0.00  0.00    +0.000 OA
ATOM     28  H   UNL     1       8.785   6.579  17.790  0.00  0.00    +0.000 HD
ENDBRANCH  23  27
ENDBRANCH  20  23
ENDBRANCH  19  20
ENDBRANCH   6  19
TORSDOF 7
ENDMDL
