MODEL 1
REMARK VINA RESULT:      -7.4      0.000      0.000
REMARK  Name = 
REMARK  5 active torsions:
REMARK  status: ('A' for Active; 'I' for Inactive)
REMARK    1  A    between atoms: C_2  and  O_3
REMARK    2  A    between atoms: C_2  and  C_4
REMARK    3  A    between atoms: N_6  and  C_7
REMARK    4  A    between atoms: C_8  and  C_9
REMARK    5  A    between atoms: C_15  and  O_16
REMARK                            x       y       z     vdW  Elec       q    Type
REMARK                         _______ _______ _______ _____ _____    ______ ____
ROOT
ATOM      1  C   UNL     1       2.298   6.855  19.959  0.00  0.00    +0.000 A 
ATOM      2  C   UNL     1       2.874   6.977  18.665  0.00  0.00    +0.000 A 
ATOM      3  C   UNL     1       2.534   8.163  18.002  0.00  0.00    +0.000 A 
ATOM      4  N   UNL     1       1.768   9.149  18.508  0.00  0.00    +0.000 NA
ATOM      5  C   UNL     1       1.241   9.009  19.720  0.00  0.00    +0.000 A 
ATOM      6  C   UNL     1       0.460  10.042  20.216  0.00  0.00    +0.000 A 
ATOM      7  C   UNL     1      -0.120   9.971  21.478  0.00  0.00    +0.000 A 
ATOM      8 CL   UNL     1      -1.061  11.285  22.064  0.00  0.00    +0.000 Cl
ATOM      9  C   UNL     1       0.058   8.844  22.266  0.00  0.00    +0.000 A 
ATOM     10  C   UNL     1       0.834   7.789  21.783  0.00  0.00    +0.000 A 
ATOM     11  C   UNL     1       1.449   7.856  20.505  0.00  0.00    +0.000 A 
ENDROOT
BRANCH   2  12
ATOM     12  C   UNL     1       3.718   5.915  18.035  0.00  0.00    +0.000 A 
ATOM     13  C   UNL     1       3.156   4.756  17.461  0.00  0.00    +0.000 A 
ATOM     14  C   UNL     1       3.945   3.765  16.868  0.00  0.00    +0.000 A 
ATOM     15  C   UNL     1       5.320   3.935  16.774  0.00  0.00    +0.000 A 
ATOM     16  C   UNL     1       5.907   5.077  17.305  0.00  0.00    +0.000 A 
ATOM     17  C   UNL     1       5.119   6.035  17.956  0.00  0.00    +0.000 A 
ENDBRANCH   2  12
BRANCH   1  20
ATOM     18  C   UNL     1       1.709   4.593  20.640  0.00  0.00    +0.000 C 
ATOM     19  O   UNL     1       0.681   4.459  19.989  0.00  0.00    +0.000 OA
ATOM     20  N   UNL     1       2.541   5.693  20.727  0.00  0.00    +0.000 N 
ATOM     21  H   UNL     1       3.506   5.459  20.946  0.00  0.00    +0.000 HD
BRANCH  18  23
ATOM     22  O   UNL     1       1.717   2.978  22.439  0.00  0.00    +0.000 OA
ATOM     23  C   UNL     1       2.238   3.372  21.411  0.00  0.00    +0.000 C 
BRANCH  23  24
ATOM     24  O   UNL     1       3.341   2.867  20.833  0.00  0.00    +0.000 OA
ATOM     25  H   UNL     1       3.245   2.921  19.852  0.00  0.00    +0.000 HD
ENDBRANCH  23  24
ENDBRANCH  18  23
ENDBRANCH   1  20
BRANCH   3  26
ATOM     26  O   UNL     1       2.909   8.432  16.717  0.00  0.00    +0.000 OA
ATOM     27  H   UNL     1       2.116   8.429  16.164  0.00  0.00    +0.000 HD
ENDBRANCH   3  26
TORSDOF 5
ENDMDL
MODEL 2
REMARK VINA RESULT:      -7.1      4.146      8.595
REMARK  Name = 
REMARK  5 active torsions:
REMARK  status: ('A' for Active; 'I' for Inactive)
REMARK    1  A    between atoms: C_2  and  O_3
REMARK    2  A    between atoms: C_2  and  C_4
REMARK    3  A    between atoms: N_6  and  C_7
REMARK    4  A    between atoms: C_8  and  C_9
REMARK    5  A    between atoms: C_15  and  O_16
REMARK                            x       y       z     vdW  Elec       q    Type
REMARK                         _______ _______ _______ _____ _____    ______ ____
ROOT
ATOM      1  C   UNL     1      -0.019  10.802  20.572  0.00  0.00    +0.000 A 
ATOM      2  C   UNL     1      -0.310  10.815  21.963  0.00  0.00    +0.000 A 
ATOM      3  C   UNL     1       0.191   9.707  22.658  0.00  0.00    +0.000 A 
ATOM      4  N   UNL     1       0.921   8.711  22.118  0.00  0.00    +0.000 NA
ATOM      5  C   UNL     1       1.178   8.723  20.814  0.00  0.00    +0.000 A 
ATOM      6  C   UNL     1       1.935   7.687  20.288  0.00  0.00    +0.000 A 
ATOM      7  C   UNL     1       2.250   7.634  18.935  0.00  0.00    +0.000 A 
ATOM      8 CL   UNL     1       3.210   6.345  18.327  0.00  0.00    +0.000 Cl
ATOM      9  C   UNL     1       1.791   8.619  18.072  0.00  0.00    +0.000 A 
ATOM     10  C   UNL     1       1.022   9.667  18.580  0.00  0.00    +0.000 A 
ATOM     11  C   UNL     1       0.710   9.745  19.962  0.00  0.00    +0.000 A 
ENDROOT
BRANCH   2  12
ATOM     12  C   UNL     1      -1.129  11.877  22.625  0.00  0.00    +0.000 A 
ATOM     13  C   UNL     1      -2.441  11.635  23.080  0.00  0.00    +0.000 A 
ATOM     14  C   UNL     1      -3.205  12.628  23.702  0.00  0.00    +0.000 A 
ATOM     15  C   UNL     1      -2.654  13.879  23.947  0.00  0.00    +0.000 A 
ATOM     16  C   UNL     1      -1.353  14.146  23.536  0.00  0.00    +0.000 A 
ATOM     17  C   UNL     1      -0.616  13.169  22.854  0.00  0.00    +0.000 A 
ENDBRANCH   2  12
BRANCH   1  20
ATOM     18  C   UNL     1       0.314  12.933  19.444  0.00  0.00    +0.000 C 
ATOM     19  O   UNL     1       1.446  13.183  19.839  0.00  0.00    +0.000 OA
ATOM     20  N   UNL     1      -0.489  11.851  19.748  0.00  0.00    +0.000 N 
ATOM     21  H   UNL     1      -1.159  11.621  19.018  0.00  0.00    +0.000 HD
BRANCH  18  23
ATOM     22  O   UNL     1      -0.285  15.084  18.516  0.00  0.00    +0.000 OA
ATOM     23  C   UNL     1      -0.307  13.872  18.396  0.00  0.00    +0.000 C 
BRANCH  23  24
ATOM     24  O   UNL     1      -0.898  13.181  17.406  0.00  0.00    +0.000 OA
ATOM     25  H   UNL     1      -0.328  12.412  17.167  0.00  0.00    +0.000 HD
ENDBRANCH  23  24
ENDBRANCH  18  23
ENDBRANCH   1  20
BRANCH   3  26
ATOM     26  O   UNL     1      -0.055   9.484  23.982  0.00  0.00    +0.000 OA
ATOM     27  H   UNL     1      -1.005   9.587  24.134  0.00  0.00    +0.000 HD
ENDBRANCH   3  26
TORSDOF 5
ENDMDL
MODEL 3
REMARK VINA RESULT:      -6.7      3.535      6.470
REMARK  Name = 
REMARK  5 active torsions:
REMARK  status: ('A' for Active; 'I' for Inactive)
REMARK    1  A    between atoms: C_2  and  O_3
REMARK    2  A    between atoms: C_2  and  C_4
REMARK    3  A    between atoms: N_6  and  C_7
REMARK    4  A    between atoms: C_8  and  C_9
REMARK    5  A    between atoms: C_15  and  O_16
REMARK                            x       y       z     vdW  Elec       q    Type
REMARK                         _______ _______ _______ _____ _____    ______ ____
ROOT
ATOM      1  C   UNL     1       1.113   8.736  20.029  0.00  0.00    +0.000 A 
ATOM      2  C   UNL     1       1.228   9.831  19.129  0.00  0.00    +0.000 A 
ATOM      3  C   UNL     1       2.041   9.570  18.019  0.00  0.00    +0.000 A 
ATOM      4  N   UNL     1       2.652   8.397  17.757  0.00  0.00    +0.000 NA
ATOM      5  C   UNL     1       2.529   7.391  18.615  0.00  0.00    +0.000 A 
ATOM      6  C   UNL     1       3.166   6.196  18.316  0.00  0.00    +0.000 A 
ATOM      7  C   UNL     1       3.078   5.096  19.163  0.00  0.00    +0.000 A 
ATOM      8 CL   UNL     1       3.863   3.626  18.743  0.00  0.00    +0.000 Cl
ATOM      9  C   UNL     1       2.358   5.181  20.346  0.00  0.00    +0.000 A 
ATOM     10  C   UNL     1       1.716   6.377  20.669  0.00  0.00    +0.000 A 
ATOM     11  C   UNL     1       1.780   7.501  19.805  0.00  0.00    +0.000 A 
ENDROOT
BRANCH   2  12
ATOM     12  C   UNL     1       0.593  11.164  19.366  0.00  0.00    +0.000 A 
ATOM     13  C   UNL     1       1.267  12.204  20.039  0.00  0.00    +0.000 A 
ATOM     14  C   UNL     1       0.674  13.451  20.258  0.00  0.00    +0.000 A 
ATOM     15  C   UNL     1      -0.590  13.719  19.751  0.00  0.00    +0.000 A 
ATOM     16  C   UNL     1      -1.275  12.727  19.060  0.00  0.00    +0.000 A 
ATOM     17  C   UNL     1      -0.704  11.458  18.901  0.00  0.00    +0.000 A 
ENDBRANCH   2  12
BRANCH   1  20
ATOM     18  C   UNL     1       0.901   9.350  22.375  0.00  0.00    +0.000 C 
ATOM     19  O   UNL     1       2.065   9.654  22.599  0.00  0.00    +0.000 OA
ATOM     20  N   UNL     1       0.340   8.875  21.205  0.00  0.00    +0.000 N 
ATOM     21  H   UNL     1      -0.647   9.100  21.104  0.00  0.00    +0.000 HD
BRANCH  18  23
ATOM     22  O   UNL     1      -1.208  10.131  23.264  0.00  0.00    +0.000 OA
ATOM     23  C   UNL     1      -0.135   9.598  23.485  0.00  0.00    +0.000 C 
BRANCH  23  24
ATOM     24  O   UNL     1       0.327   9.205  24.684  0.00  0.00    +0.000 OA
ATOM     25  H   UNL     1       1.270   9.480  24.771  0.00  0.00    +0.000 HD
ENDBRANCH  23  24
ENDBRANCH  18  23
ENDBRANCH   1  20
BRANCH   3  26
ATOM     26  O   UNL     1       2.353  10.515  17.085  0.00  0.00    +0.000 OA
ATOM     27  H   UNL     1       2.773  11.260  17.538  0.00  0.00    +0.000 HD
ENDBRANCH   3  26
TORSDOF 5
ENDMDL
MODEL 4
REMARK VINA RESULT:      -6.6      2.288      4.246
REMARK  Name = 
REMARK  5 active torsions:
REMARK  status: ('A' for Active; 'I' for Inactive)
REMARK    1  A    between atoms: C_2  and  O_3
REMARK    2  A    between atoms: C_2  and  C_4
REMARK    3  A    between atoms: N_6  and  C_7
REMARK    4  A    between atoms: C_8  and  C_9
REMARK    5  A    between atoms: C_15  and  O_16
REMARK                            x       y       z     vdW  Elec       q    Type
REMARK                         _______ _______ _______ _____ _____    ______ ____
ROOT
ATOM      1  C   UNL     1       2.660   6.520  18.383  0.00  0.00    +0.000 A 
ATOM      2  C   UNL     1       2.446   5.421  19.258  0.00  0.00    +0.000 A 
ATOM      3  C   UNL     1       1.779   5.759  20.442  0.00  0.00    +0.000 A 
ATOM      4  N   UNL     1       1.323   6.987  20.758  0.00  0.00    +0.000 NA
ATOM      5  C   UNL     1       1.537   7.998  19.922  0.00  0.00    +0.000 A 
ATOM      6  C   UNL     1       1.053   9.249  20.273  0.00  0.00    +0.000 A 
ATOM      7  C   UNL     1       1.233  10.354  19.448  0.00  0.00    +0.000 A 
ATOM      8 CL   UNL     1       0.596  11.882  19.909  0.00  0.00    +0.000 Cl
ATOM      9  C   UNL     1       1.923  10.226  18.251  0.00  0.00    +0.000 A 
ATOM     10  C   UNL     1       2.425   8.977  17.883  0.00  0.00    +0.000 A 
ATOM     11  C   UNL     1       2.232   7.837  18.706  0.00  0.00    +0.000 A 
ENDROOT
BRANCH   2  12
ATOM     12  C   UNL     1       2.940   4.037  18.979  0.00  0.00    +0.000 A 
ATOM     13  C   UNL     1       4.024   3.474  19.683  0.00  0.00    +0.000 A 
ATOM     14  C   UNL     1       4.483   2.178  19.424  0.00  0.00    +0.000 A 
ATOM     15  C   UNL     1       3.827   1.380  18.496  0.00  0.00    +0.000 A 
ATOM     16  C   UNL     1       2.738   1.892  17.801  0.00  0.00    +0.000 A 
ATOM     17  C   UNL     1       2.324   3.213  18.016  0.00  0.00    +0.000 A 
ENDBRANCH   2  12
BRANCH   1  20
ATOM     18  C   UNL     1       4.723   6.224  17.126  0.00  0.00    +0.000 C 
ATOM     19  O   UNL     1       5.525   6.338  18.045  0.00  0.00    +0.000 OA
ATOM     20  N   UNL     1       3.345   6.321  17.162  0.00  0.00    +0.000 N 
ATOM     21  H   UNL     1       2.879   5.785  16.434  0.00  0.00    +0.000 HD
BRANCH  18  23
ATOM     22  O   UNL     1       5.661   4.705  15.496  0.00  0.00    +0.000 OA
ATOM     23  C   UNL     1       5.265   5.830  15.741  0.00  0.00    +0.000 C 
BRANCH  23  24
ATOM     24  O   UNL     1       5.284   6.881  14.904  0.00  0.00    +0.000 OA
ATOM     25  H   UNL     1       5.015   7.691  15.399  0.00  0.00    +0.000 HD
ENDBRANCH  23  24
ENDBRANCH  18  23
ENDBRANCH   1  20
BRANCH   3  26
ATOM     26  O   UNL     1       1.557   4.869  21.452  0.00  0.00    +0.000 OA
ATOM     27  H   UNL     1       0.740   4.388  21.258  0.00  0.00    +0.000 HD
ENDBRANCH   3  26
TORSDOF 5
ENDMDL
MODEL 5
REMARK VINA RESULT:      -6.6      2.371      4.157
REMARK  Name = 
REMARK  5 active torsions:
REMARK  status: ('A' for Active; 'I' for Inactive)
REMARK    1  A    between atoms: C_2  and  O_3
REMARK    2  A    between atoms: C_2  and  C_4
REMARK    3  A    between atoms: N_6  and  C_7
REMARK    4  A    between atoms: C_8  and  C_9
REMARK    5  A    between atoms: C_15  and  O_16
REMARK                            x       y       z     vdW  Elec       q    Type
REMARK                         _______ _______ _______ _____ _____    ______ ____
ROOT
ATOM      1  C   UNL     1       2.688   6.415  18.374  0.00  0.00    +0.000 A 
ATOM      2  C   UNL     1       2.452   5.345  19.280  0.00  0.00    +0.000 A 
ATOM      3  C   UNL     1       1.783   5.728  20.449  0.00  0.00    +0.000 A 
ATOM      4  N   UNL     1       1.345   6.972  20.727  0.00  0.00    +0.000 NA
ATOM      5  C   UNL     1       1.579   7.954  19.863  0.00  0.00    +0.000 A 
ATOM      6  C   UNL     1       1.113   9.223  20.174  0.00  0.00    +0.000 A 
ATOM      7  C   UNL     1       1.314  10.300  19.318  0.00  0.00    +0.000 A 
ATOM      8 CL   UNL     1       0.699  11.850  19.731  0.00  0.00    +0.000 Cl
ATOM      9  C   UNL     1       2.009  10.126  18.130  0.00  0.00    +0.000 A 
ATOM     10  C   UNL     1       2.494   8.860  17.801  0.00  0.00    +0.000 A 
ATOM     11  C   UNL     1       2.278   7.747  18.656  0.00  0.00    +0.000 A 
ENDROOT
BRANCH   2  12
ATOM     12  C   UNL     1       2.926   3.946  19.044  0.00  0.00    +0.000 A 
ATOM     13  C   UNL     1       2.327   3.106  18.084  0.00  0.00    +0.000 A 
ATOM     14  C   UNL     1       2.772   1.799  17.863  0.00  0.00    +0.000 A 
ATOM     15  C   UNL     1       3.876   1.313  18.551  0.00  0.00    +0.000 A 
ATOM     16  C   UNL     1       4.509   2.123  19.487  0.00  0.00    +0.000 A 
ATOM     17  C   UNL     1       4.018   3.407  19.753  0.00  0.00    +0.000 A 
ENDBRANCH   2  12
BRANCH   1  20
ATOM     18  C   UNL     1       4.753   6.047  17.140  0.00  0.00    +0.000 C 
ATOM     19  O   UNL     1       5.551   6.173  18.060  0.00  0.00    +0.000 OA
ATOM     20  N   UNL     1       3.377   6.170  17.164  0.00  0.00    +0.000 N 
ATOM     21  H   UNL     1       2.905   5.622  16.448  0.00  0.00    +0.000 HD
BRANCH  18  23
ATOM     22  O   UNL     1       5.698   6.404  14.944  0.00  0.00    +0.000 OA
ATOM     23  C   UNL     1       5.297   5.605  15.770  0.00  0.00    +0.000 C 
BRANCH  23  24
ATOM     24  O   UNL     1       5.212   4.273  15.615  0.00  0.00    +0.000 OA
ATOM     25  H   UNL     1       4.262   4.016  15.551  0.00  0.00    +0.000 HD
ENDBRANCH  23  24
ENDBRANCH  18  23
ENDBRANCH   1  20
BRANCH   3  26
ATOM     26  O   UNL     1       1.542   4.871  21.484  0.00  0.00    +0.000 OA
ATOM     27  H   UNL     1       2.064   4.069  21.340  0.00  0.00    +0.000 HD
ENDBRANCH   3  26
TORSDOF 5
ENDMDL
MODEL 6
REMARK VINA RESULT:      -6.5      2.743      5.626
REMARK  Name = 
REMARK  5 active torsions:
REMARK  status: ('A' for Active; 'I' for Inactive)
REMARK    1  A    between atoms: C_2  and  O_3
REMARK    2  A    between atoms: C_2  and  C_4
REMARK    3  A    between atoms: N_6  and  C_7
REMARK    4  A    between atoms: C_8  and  C_9
REMARK    5  A    between atoms: C_15  and  O_16
REMARK                            x       y       z     vdW  Elec       q    Type
REMARK                         _______ _______ _______ _____ _____    ______ ____
ROOT
ATOM      1  C   UNL     1       2.823   6.456  19.437  0.00  0.00    +0.000 A 
ATOM      2  C   UNL     1       2.206   7.735  19.485  0.00  0.00    +0.000 A 
ATOM      3  C   UNL     1       2.516   8.556  18.392  0.00  0.00    +0.000 A 
ATOM      4  N   UNL     1       3.288   8.203  17.346  0.00  0.00    +0.000 NA
ATOM      5  C   UNL     1       3.852   7.001  17.326  0.00  0.00    +0.000 A 
ATOM      6  C   UNL     1       4.639   6.666  16.234  0.00  0.00    +0.000 A 
ATOM      7  C   UNL     1       5.257   5.424  16.139  0.00  0.00    +0.000 A 
ATOM      8 CL   UNL     1       6.204   5.040  14.757  0.00  0.00    +0.000 Cl
ATOM      9  C   UNL     1       5.112   4.493  17.158  0.00  0.00    +0.000 A 
ATOM     10  C   UNL     1       4.332   4.812  18.269  0.00  0.00    +0.000 A 
ATOM     11  C   UNL     1       3.678   6.068  18.370  0.00  0.00    +0.000 A 
ENDROOT
BRANCH   2  12
ATOM     12  C   UNL     1       1.354   8.198  20.623  0.00  0.00    +0.000 A 
ATOM     13  C   UNL     1       1.881   8.945  21.697  0.00  0.00    +0.000 A 
ATOM     14  C   UNL     1       1.082   9.380  22.759  0.00  0.00    +0.000 A 
ATOM     15  C   UNL     1      -0.285   9.137  22.747  0.00  0.00    +0.000 A 
ATOM     16  C   UNL     1      -0.845   8.427  21.692  0.00  0.00    +0.000 A 
ATOM     17  C   UNL     1      -0.030   7.936  20.664  0.00  0.00    +0.000 A 
ENDBRANCH   2  12
BRANCH   1  20
ATOM     18  C   UNL     1       1.725   4.487  20.357  0.00  0.00    +0.000 C 
ATOM     19  O   UNL     1       0.989   4.221  19.415  0.00  0.00    +0.000 OA
ATOM     20  N   UNL     1       2.613   5.537  20.492  0.00  0.00    +0.000 N 
ATOM     21  H   UNL     1       3.394   5.334  21.111  0.00  0.00    +0.000 HD
BRANCH  18  23
ATOM     22  O   UNL     1       2.656   3.531  22.373  0.00  0.00    +0.000 OA
ATOM     23  C   UNL     1       1.770   3.502  21.537  0.00  0.00    +0.000 C 
BRANCH  23  24
ATOM     24  O   UNL     1       0.763   2.614  21.475  0.00  0.00    +0.000 OA
ATOM     25  H   UNL     1       0.677   2.289  20.547  0.00  0.00    +0.000 HD
ENDBRANCH  23  24
ENDBRANCH  18  23
ENDBRANCH   1  20
BRANCH   3  26
ATOM     26  O   UNL     1       2.100   9.852  18.292  0.00  0.00    +0.000 OA
ATOM     27  H   UNL     1       2.848  10.427  18.507  0.00  0.00    +0.000 HD
ENDBRANCH   3  26
TORSDOF 5
ENDMDL
MODEL 7
REMARK VINA RESULT:      -6.4      7.404      9.336
REMARK  Name = 
REMARK  5 active torsions:
REMARK  status: ('A' for Active; 'I' for Inactive)
REMARK    1  A    between atoms: C_2  and  O_3
REMARK    2  A    between atoms: C_2  and  C_4
REMARK    3  A    between atoms: N_6  and  C_7
REMARK    4  A    between atoms: C_8  and  C_9
REMARK    5  A    between atoms: C_15  and  O_16
REMARK                            x       y       z     vdW  Elec       q    Type
REMARK                         _______ _______ _______ _____ _____    ______ ____
ROOT
ATOM      1  C   UNL     1      -4.553  12.459  19.866  0.00  0.00    +0.000 A 
ATOM      2  C   UNL     1      -5.047  11.489  18.952  0.00  0.00    +0.000 A 
ATOM      3  C   UNL     1      -6.303  10.973  19.296  0.00  0.00    +0.000 A 
ATOM      4  N   UNL     1      -7.038  11.352  20.360  0.00  0.00    +0.000 NA
ATOM      5  C   UNL     1      -6.552  12.260  21.200  0.00  0.00    +0.000 A 
ATOM      6  C   UNL     1      -7.333  12.632  22.284  0.00  0.00    +0.000 A 
ATOM      7  C   UNL     1      -6.895  13.580  23.202  0.00  0.00    +0.000 A 
ATOM      8 CL   UNL     1      -7.904  14.030  24.518  0.00  0.00    +0.000 Cl
ATOM      9  C   UNL     1      -5.645  14.165  23.058  0.00  0.00    +0.000 A 
ATOM     10  C   UNL     1      -4.840  13.799  21.979  0.00  0.00    +0.000 A 
ATOM     11  C   UNL     1      -5.283  12.848  21.023  0.00  0.00    +0.000 A 
ENDROOT
BRANCH   2  12
ATOM     12  C   UNL     1      -4.279  11.010  17.762  0.00  0.00    +0.000 A 
ATOM     13  C   UNL     1      -4.509  11.520  16.468  0.00  0.00    +0.000 A 
ATOM     14  C   UNL     1      -3.788  11.073  15.356  0.00  0.00    +0.000 A 
ATOM     15  C   UNL     1      -2.766  10.148  15.516  0.00  0.00    +0.000 A 
ATOM     16  C   UNL     1      -2.492   9.642  16.781  0.00  0.00    +0.000 A 
ATOM     17  C   UNL     1      -3.261  10.042  17.881  0.00  0.00    +0.000 A 
ENDBRANCH   2  12
BRANCH   1  20
ATOM     18  C   UNL     1      -2.154  12.540  20.267  0.00  0.00    +0.000 C 
ATOM     19  O   UNL     1      -2.064  11.626  21.077  0.00  0.00    +0.000 OA
ATOM     20  N   UNL     1      -3.283  13.042  19.650  0.00  0.00    +0.000 N 
ATOM     21  H   UNL     1      -3.099  13.463  18.742  0.00  0.00    +0.000 HD
BRANCH  18  23
ATOM     22  O   UNL     1       0.245  12.822  20.148  0.00  0.00    +0.000 OA
ATOM     23  C   UNL     1      -0.852  13.191  19.769  0.00  0.00    +0.000 C 
BRANCH  23  24
ATOM     24  O   UNL     1      -1.103  14.213  18.934  0.00  0.00    +0.000 OA
ATOM     25  H   UNL     1      -1.008  15.063  19.427  0.00  0.00    +0.000 HD
ENDBRANCH  23  24
ENDBRANCH  18  23
ENDBRANCH   1  20
BRANCH   3  26
ATOM     26  O   UNL     1      -6.912   9.969  18.600  0.00  0.00    +0.000 OA
ATOM     27  H   UNL     1      -7.869  10.100  18.655  0.00  0.00    +0.000 HD
ENDBRANCH   3  26
TORSDOF 5
ENDMDL
MODEL 8
REMARK VINA RESULT:      -6.3      5.931      8.102
REMARK  Name = 
REMARK  5 active torsions:
REMARK  status: ('A' for Active; 'I' for Inactive)
REMARK    1  A    between atoms: C_2  and  O_3
REMARK    2  A    between atoms: C_2  and  C_4
REMARK    3  A    between atoms: N_6  and  C_7
REMARK    4  A    between atoms: C_8  and  C_9
REMARK    5  A    between atoms: C_15  and  O_16
REMARK                            x       y       z     vdW  Elec       q    Type
REMARK                         _______ _______ _______ _____ _____    ______ ____
ROOT
ATOM      1  C   UNL     1      -2.824  12.118  19.156  0.00  0.00    +0.000 A 
ATOM      2  C   UNL     1      -1.607  12.061  19.888  0.00  0.00    +0.000 A 
ATOM      3  C   UNL     1      -1.758  12.309  21.259  0.00  0.00    +0.000 A 
ATOM      4  N   UNL     1      -2.928  12.548  21.885  0.00  0.00    +0.000 NA
ATOM      5  C   UNL     1      -4.050  12.596  21.175  0.00  0.00    +0.000 A 
ATOM      6  C   UNL     1      -5.238  12.840  21.848  0.00  0.00    +0.000 A 
ATOM      7  C   UNL     1      -6.453  12.899  21.175  0.00  0.00    +0.000 A 
ATOM      8 CL   UNL     1      -7.906  13.179  22.050  0.00  0.00    +0.000 Cl
ATOM      9  C   UNL     1      -6.498  12.732  19.799  0.00  0.00    +0.000 A 
ATOM     10  C   UNL     1      -5.313  12.494  19.101  0.00  0.00    +0.000 A 
ATOM     11  C   UNL     1      -4.068  12.411  19.778  0.00  0.00    +0.000 A 
ENDROOT
BRANCH   2  12
ATOM     12  C   UNL     1      -0.274  11.820  19.256  0.00  0.00    +0.000 A 
ATOM     13  C   UNL     1       0.588  12.878  18.902  0.00  0.00    +0.000 A 
ATOM     14  C   UNL     1       1.837  12.652  18.314  0.00  0.00    +0.000 A 
ATOM     15  C   UNL     1       2.290  11.354  18.122  0.00  0.00    +0.000 A 
ATOM     16  C   UNL     1       1.479  10.284  18.483  0.00  0.00    +0.000 A 
ATOM     17  C   UNL     1       0.202  10.517  19.010  0.00  0.00    +0.000 A 
ENDBRANCH   2  12
BRANCH   1  20
ATOM     18  C   UNL     1      -2.945  10.643  17.223  0.00  0.00    +0.000 C 
ATOM     19  O   UNL     1      -3.037   9.571  17.807  0.00  0.00    +0.000 OA
ATOM     20  N   UNL     1      -2.809  11.910  17.756  0.00  0.00    +0.000 N 
ATOM     21  H   UNL     1      -3.179  12.646  17.160  0.00  0.00    +0.000 HD
BRANCH  18  23
ATOM     22  O   UNL     1      -2.729   9.702  15.007  0.00  0.00    +0.000 OA
ATOM     23  C   UNL     1      -3.085  10.644  15.691  0.00  0.00    +0.000 C 
BRANCH  23  24
ATOM     24  O   UNL     1      -3.585  11.809  15.245  0.00  0.00    +0.000 OA
ATOM     25  H   UNL     1      -4.518  11.669  14.957  0.00  0.00    +0.000 HD
ENDBRANCH  23  24
ENDBRANCH  18  23
ENDBRANCH   1  20
BRANCH   3  26
ATOM     26  O   UNL     1      -0.704  12.390  22.122  0.00  0.00    +0.000 OA
ATOM     27  H   UNL     1       0.047  12.774  21.647  0.00  0.00    +0.000 HD
ENDBRANCH   3  26
TORSDOF 5
ENDMDL
MODEL 9
REMARK VINA RESULT:      -6.3      4.373      8.978
REMARK  Name = 
REMARK  5 active torsions:
REMARK  status: ('A' for Active; 'I' for Inactive)
REMARK    1  A    between atoms: C_2  and  O_3
REMARK    2  A    between atoms: C_2  and  C_4
REMARK    3  A    between atoms: N_6  and  C_7
REMARK    4  A    between atoms: C_8  and  C_9
REMARK    5  A    between atoms: C_15  and  O_16
REMARK                            x       y       z     vdW  Elec       q    Type
REMARK                         _______ _______ _______ _____ _____    ______ ____
ROOT
ATOM      1  C   UNL     1      -0.039  11.393  20.494  0.00  0.00    +0.000 A 
ATOM      2  C   UNL     1      -0.596  11.206  21.788  0.00  0.00    +0.000 A 
ATOM      3  C   UNL     1      -0.366   9.933  22.325  0.00  0.00    +0.000 A 
ATOM      4  N   UNL     1       0.342   8.951  21.733  0.00  0.00    +0.000 NA
ATOM      5  C   UNL     1       0.851   9.153  20.522  0.00  0.00    +0.000 A 
ATOM      6  C   UNL     1       1.577   8.125  19.939  0.00  0.00    +0.000 A 
ATOM      7  C   UNL     1       2.145   8.263  18.678  0.00  0.00    +0.000 A 
ATOM      8 CL   UNL     1       3.059   6.974  18.003  0.00  0.00    +0.000 Cl
ATOM      9  C   UNL     1       1.978   9.440  17.962  0.00  0.00    +0.000 A 
ATOM     10  C   UNL     1       1.244  10.484  18.527  0.00  0.00    +0.000 A 
ATOM     11  C   UNL     1       0.676  10.364  19.822  0.00  0.00    +0.000 A 
ENDROOT
BRANCH   2  12
ATOM     12  C   UNL     1      -1.407  12.244  22.496  0.00  0.00    +0.000 A 
ATOM     13  C   UNL     1      -0.809  13.331  23.166  0.00  0.00    +0.000 A 
ATOM     14  C   UNL     1      -1.568  14.303  23.825  0.00  0.00    +0.000 A 
ATOM     15  C   UNL     1      -2.955  14.253  23.778  0.00  0.00    +0.000 A 
ATOM     16  C   UNL     1      -3.580  13.210  23.104  0.00  0.00    +0.000 A 
ATOM     17  C   UNL     1      -2.815  12.203  22.503  0.00  0.00    +0.000 A 
ENDBRANCH   2  12
BRANCH   1  20
ATOM     18  C   UNL     1       0.709  13.644  19.946  0.00  0.00    +0.000 C 
ATOM     19  O   UNL     1       1.725  13.679  20.629  0.00  0.00    +0.000 OA
ATOM     20  N   UNL     1      -0.219  12.627  19.826  0.00  0.00    +0.000 N 
ATOM     21  H   UNL     1      -0.704  12.620  18.932  0.00  0.00    +0.000 HD
BRANCH  18  23
ATOM     22  O   UNL     1       1.324  15.519  18.548  0.00  0.00    +0.000 OA
ATOM     23  C   UNL     1       0.430  14.831  19.008  0.00  0.00    +0.000 C 
BRANCH  23  24
ATOM     24  O   UNL     1      -0.889  15.014  18.828  0.00  0.00    +0.000 OA
ATOM     25  H   UNL     1      -1.338  15.009  19.706  0.00  0.00    +0.000 HD
ENDBRANCH  23  24
ENDBRANCH  18  23
ENDBRANCH   1  20
BRANCH   3  26
ATOM     26  O   UNL     1      -0.893   9.520  23.515  0.00  0.00    +0.000 OA
ATOM     27  H   UNL     1      -0.188   9.535  24.179  0.00  0.00    +0.000 HD
ENDBRANCH   3  26
TORSDOF 5
ENDMDL
