MODEL 1
REMARK VINA RESULT:      -6.4      0.000      0.000
REMARK  Name = 
REMARK  17 active torsions:
REMARK  status: ('A' for Active; 'I' for Inactive)
REMARK    1  A    between atoms: C_1  and  C_2
REMARK    2  A    between atoms: C_2  and  C_3
REMARK    3  A    between atoms: C_3  and  O_4
REMARK    4  A    between atoms: O_4  and  C_5
REMARK    5  A    between atoms: C_5  and  C_7
REMARK    6  A    between atoms: C_7  and  N_8
REMARK    7  A    between atoms: C_7  and  C_9
REMARK    8  A    between atoms: C_9  and  C_10
REMARK    9  A    between atoms: C_10  and  C_11
REMARK   10  A    between atoms: N_13  and  C_14
REMARK   11  A    between atoms: C_14  and  C_15
REMARK   12  A    between atoms: C_15  and  S_16
REMARK   13  A    between atoms: S_16  and  C_17
REMARK   14  A    between atoms: C_17  and  C_19
REMARK   15  A    between atoms: C_19  and  C_20
REMARK   16  A    between atoms: C_19  and  C_21
REMARK   17  A    between atoms: C_19  and  C_22
REMARK                            x       y       z     vdW  Elec       q    Type
REMARK                         _______ _______ _______ _____ _____    ______ ____
ROOT
ATOM      1  C   UNL     1       6.757   4.815  16.198  0.00  0.00    +0.000 C 
ATOM      2  O   UNL     1       7.902   4.638  16.608  0.00  0.00    +0.000 OA
ATOM      3  N   UNL     1       5.648   4.724  16.999  0.00  0.00    +0.000 N 
ATOM      4  H   UNL     1       4.727   4.896  16.608  0.00  0.00    +0.000 HD
ENDROOT
BRANCH   1   5
ATOM      5  C   UNL     1       6.461   5.130  14.746  0.00  0.00    +0.000 C 
BRANCH   5   6
ATOM      6  C   UNL     1       5.749   3.974  14.040  0.00  0.00    +0.000 C 
BRANCH   6   7
ATOM      7  C   UNL     1       6.501   3.419  12.829  0.00  0.00    +0.000 C 
BRANCH   7   8
ATOM      8  N   UNL     1       7.299   4.513  12.211  0.00  0.00    +0.000 NA
ATOM      9  H   UNL     1       7.581   4.214  11.275  0.00  0.00    +0.000 HD
ATOM     10  H   UNL     1       8.175   4.606  12.729  0.00  0.00    +0.000 HD
ENDBRANCH   7   8
BRANCH   7  11
ATOM     11  C   UNL     1       5.548   2.781  11.798  0.00  0.00    +0.000 C 
ATOM     12  O   UNL     1       5.692   1.651  11.347  0.00  0.00    +0.000 OA
BRANCH  11  13
ATOM     13  O   UNL     1       4.553   3.647  11.440  0.00  0.00    +0.000 OA
BRANCH  13  14
ATOM     14  C   UNL     1       3.306   3.048  11.064  0.00  0.00    +0.000 C 
BRANCH  14  16
ATOM     15  C   UNL     1       2.615   4.716   9.343  0.00  0.00    +0.000 C 
ATOM     16  C   UNL     1       2.996   3.264   9.591  0.00  0.00    +0.000 C 
ENDBRANCH  14  16
ENDBRANCH  13  14
ENDBRANCH  11  13
ENDBRANCH   7  11
ENDBRANCH   6   7
ENDBRANCH   5   6
ENDBRANCH   1   5
BRANCH   3  17
ATOM     17  C   UNL     1       5.741   4.454  18.425  0.00  0.00    +0.000 C 
BRANCH  17  18
ATOM     18  C   UNL     1       4.747   5.256  19.275  0.00  0.00    +0.000 C 
BRANCH  18  19
ATOM     19  S   UNL     1       3.080   5.157  18.548  0.00  0.00    +0.000 S 
BRANCH  19  20
ATOM     20  C   UNL     1       2.128   4.672  19.964  0.00  0.00    +0.000 C 
ATOM     21  O   UNL     1       1.749   5.503  20.782  0.00  0.00    +0.000 OA
BRANCH  20  22
ATOM     22  C   UNL     1       1.846   3.154  20.092  0.00  0.00    +0.000 C 
ATOM     23  C   UNL     1       0.522   2.800  19.398  0.00  0.00    +0.000 C 
ATOM     24  C   UNL     1       2.975   2.362  19.408  0.00  0.00    +0.000 C 
ATOM     25  C   UNL     1       1.802   2.731  21.570  0.00  0.00    +0.000 C 
ENDBRANCH  20  22
ENDBRANCH  19  20
ENDBRANCH  18  19
ENDBRANCH  17  18
ENDBRANCH   3  17
TORSDOF 13
ENDMDL
MODEL 2
REMARK VINA RESULT:      -6.3      2.894      4.461
REMARK  Name = 
REMARK  17 active torsions:
REMARK  status: ('A' for Active; 'I' for Inactive)
REMARK    1  A    between atoms: C_1  and  C_2
REMARK    2  A    between atoms: C_2  and  C_3
REMARK    3  A    between atoms: C_3  and  O_4
REMARK    4  A    between atoms: O_4  and  C_5
REMARK    5  A    between atoms: C_5  and  C_7
REMARK    6  A    between atoms: C_7  and  N_8
REMARK    7  A    between atoms: C_7  and  C_9
REMARK    8  A    between atoms: C_9  and  C_10
REMARK    9  A    between atoms: C_10  and  C_11
REMARK   10  A    between atoms: N_13  and  C_14
REMARK   11  A    between atoms: C_14  and  C_15
REMARK   12  A    between atoms: C_15  and  S_16
REMARK   13  A    between atoms: S_16  and  C_17
REMARK   14  A    between atoms: C_17  and  C_19
REMARK   15  A    between atoms: C_19  and  C_20
REMARK   16  A    between atoms: C_19  and  C_21
REMARK   17  A    between atoms: C_19  and  C_22
REMARK                            x       y       z     vdW  Elec       q    Type
REMARK                         _______ _______ _______ _____ _____    ______ ____
ROOT
ATOM      1  C   UNL     1       3.139   7.099  18.472  0.00  0.00    +0.000 C 
ATOM      2  O   UNL     1       2.412   8.089  18.486  0.00  0.00    +0.000 OA
ATOM      3  N   UNL     1       3.090   6.115  19.426  0.00  0.00    +0.000 N 
ATOM      4  H   UNL     1       3.705   5.310  19.354  0.00  0.00    +0.000 HD
ENDROOT
BRANCH   1   5
ATOM      5  C   UNL     1       4.186   6.882  17.399  0.00  0.00    +0.000 C 
BRANCH   5   6
ATOM      6  C   UNL     1       5.491   6.325  17.972  0.00  0.00    +0.000 C 
BRANCH   6   7
ATOM      7  C   UNL     1       5.820   4.902  17.515  0.00  0.00    +0.000 C 
BRANCH   7   8
ATOM      8  N   UNL     1       6.178   4.082  18.705  0.00  0.00    +0.000 NA
ATOM      9  H   UNL     1       6.681   4.679  19.365  0.00  0.00    +0.000 HD
ATOM     10  H   UNL     1       6.859   3.377  18.418  0.00  0.00    +0.000 HD
ENDBRANCH   7   8
BRANCH   7  11
ATOM     11  C   UNL     1       6.951   4.878  16.467  0.00  0.00    +0.000 C 
ATOM     12  O   UNL     1       8.063   4.408  16.677  0.00  0.00    +0.000 OA
BRANCH  11  13
ATOM     13  O   UNL     1       6.558   5.471  15.300  0.00  0.00    +0.000 OA
BRANCH  13  14
ATOM     14  C   UNL     1       6.908   4.776  14.096  0.00  0.00    +0.000 C 
BRANCH  14  16
ATOM     15  C   UNL     1       6.002   3.414  12.212  0.00  0.00    +0.000 C 
ATOM     16  C   UNL     1       5.827   3.792  13.675  0.00  0.00    +0.000 C 
ENDBRANCH  14  16
ENDBRANCH  13  14
ENDBRANCH  11  13
ENDBRANCH   7  11
ENDBRANCH   6   7
ENDBRANCH   5   6
ENDBRANCH   1   5
BRANCH   3  17
ATOM     17  C   UNL     1       2.130   6.141  20.519  0.00  0.00    +0.000 C 
BRANCH  17  18
ATOM     18  C   UNL     1       1.018   5.092  20.394  0.00  0.00    +0.000 C 
BRANCH  18  19
ATOM     19  S   UNL     1       1.570   3.508  21.104  0.00  0.00    +0.000 S 
BRANCH  19  20
ATOM     20  C   UNL     1       2.870   3.075  19.979  0.00  0.00    +0.000 C 
ATOM     21  O   UNL     1       4.045   3.278  20.267  0.00  0.00    +0.000 OA
BRANCH  20  22
ATOM     22  C   UNL     1       2.413   2.460  18.633  0.00  0.00    +0.000 C 
ATOM     23  C   UNL     1       0.999   1.874  18.770  0.00  0.00    +0.000 C 
ATOM     24  C   UNL     1       2.376   3.557  17.553  0.00  0.00    +0.000 C 
ATOM     25  C   UNL     1       3.396   1.373  18.168  0.00  0.00    +0.000 C 
ENDBRANCH  20  22
ENDBRANCH  19  20
ENDBRANCH  18  19
ENDBRANCH  17  18
ENDBRANCH   3  17
TORSDOF 13
ENDMDL
MODEL 3
REMARK VINA RESULT:      -6.1      4.024      7.544
REMARK  Name = 
REMARK  17 active torsions:
REMARK  status: ('A' for Active; 'I' for Inactive)
REMARK    1  A    between atoms: C_1  and  C_2
REMARK    2  A    between atoms: C_2  and  C_3
REMARK    3  A    between atoms: C_3  and  O_4
REMARK    4  A    between atoms: O_4  and  C_5
REMARK    5  A    between atoms: C_5  and  C_7
REMARK    6  A    between atoms: C_7  and  N_8
REMARK    7  A    between atoms: C_7  and  C_9
REMARK    8  A    between atoms: C_9  and  C_10
REMARK    9  A    between atoms: C_10  and  C_11
REMARK   10  A    between atoms: N_13  and  C_14
REMARK   11  A    between atoms: C_14  and  C_15
REMARK   12  A    between atoms: C_15  and  S_16
REMARK   13  A    between atoms: S_16  and  C_17
REMARK   14  A    between atoms: C_17  and  C_19
REMARK   15  A    between atoms: C_19  and  C_20
REMARK   16  A    between atoms: C_19  and  C_21
REMARK   17  A    between atoms: C_19  and  C_22
REMARK                            x       y       z     vdW  Elec       q    Type
REMARK                         _______ _______ _______ _____ _____    ______ ____
ROOT
ATOM      1  C   UNL     1       2.951   5.577  18.963  0.00  0.00    +0.000 C 
ATOM      2  O   UNL     1       2.795   5.378  17.760  0.00  0.00    +0.000 OA
ATOM      3  N   UNL     1       4.156   5.916  19.521  0.00  0.00    +0.000 N 
ATOM      4  H   UNL     1       4.221   6.084  20.520  0.00  0.00    +0.000 HD
ENDROOT
BRANCH   1   5
ATOM      5  C   UNL     1       1.814   5.440  19.955  0.00  0.00    +0.000 C 
BRANCH   5   6
ATOM      6  C   UNL     1       2.122   4.410  21.044  0.00  0.00    +0.000 C 
BRANCH   6   7
ATOM      7  C   UNL     1       1.171   3.211  21.062  0.00  0.00    +0.000 C 
BRANCH   7   8
ATOM      8  N   UNL     1       1.591   2.275  22.140  0.00  0.00    +0.000 NA
ATOM      9  H   UNL     1       1.534   1.322  21.776  0.00  0.00    +0.000 HD
ATOM     10  H   UNL     1       0.895   2.311  22.888  0.00  0.00    +0.000 HD
ENDBRANCH   7   8
BRANCH   7  11
ATOM     11  C   UNL     1       1.119   2.494  19.697  0.00  0.00    +0.000 C 
ATOM     12  O   UNL     1       0.216   2.646  18.883  0.00  0.00    +0.000 OA
BRANCH  11  13
ATOM     13  O   UNL     1       2.186   1.655  19.537  0.00  0.00    +0.000 OA
BRANCH  13  14
ATOM     14  C   UNL     1       3.022   1.915  18.402  0.00  0.00    +0.000 C 
BRANCH  14  16
ATOM     15  C   UNL     1       4.669   1.934  20.276  0.00  0.00    +0.000 C 
ATOM     16  C   UNL     1       4.438   2.288  18.815  0.00  0.00    +0.000 C 
ENDBRANCH  14  16
ENDBRANCH  13  14
ENDBRANCH  11  13
ENDBRANCH   7  11
ENDBRANCH   6   7
ENDBRANCH   5   6
ENDBRANCH   1   5
BRANCH   3  17
ATOM     17  C   UNL     1       5.353   6.116  18.719  0.00  0.00    +0.000 C 
BRANCH  17  18
ATOM     18  C   UNL     1       6.604   5.436  19.290  0.00  0.00    +0.000 C 
BRANCH  18  19
ATOM     19  S   UNL     1       7.542   4.629  17.953  0.00  0.00    +0.000 S 
BRANCH  19  20
ATOM     20  C   UNL     1       7.193   5.718  16.598  0.00  0.00    +0.000 C 
ATOM     21  O   UNL     1       7.629   6.865  16.584  0.00  0.00    +0.000 OA
BRANCH  20  22
ATOM     22  C   UNL     1       6.298   5.129  15.480  0.00  0.00    +0.000 C 
ATOM     23  C   UNL     1       5.705   3.784  15.927  0.00  0.00    +0.000 C 
ATOM     24  C   UNL     1       5.135   6.095  15.189  0.00  0.00    +0.000 C 
ATOM     25  C   UNL     1       7.099   4.950  14.178  0.00  0.00    +0.000 C 
ENDBRANCH  20  22
ENDBRANCH  19  20
ENDBRANCH  18  19
ENDBRANCH  17  18
ENDBRANCH   3  17
TORSDOF 13
ENDMDL
MODEL 4
REMARK VINA RESULT:      -6.0      4.507      8.275
REMARK  Name = 
REMARK  17 active torsions:
REMARK  status: ('A' for Active; 'I' for Inactive)
REMARK    1  A    between atoms: C_1  and  C_2
REMARK    2  A    between atoms: C_2  and  C_3
REMARK    3  A    between atoms: C_3  and  O_4
REMARK    4  A    between atoms: O_4  and  C_5
REMARK    5  A    between atoms: C_5  and  C_7
REMARK    6  A    between atoms: C_7  and  N_8
REMARK    7  A    between atoms: C_7  and  C_9
REMARK    8  A    between atoms: C_9  and  C_10
REMARK    9  A    between atoms: C_10  and  C_11
REMARK   10  A    between atoms: N_13  and  C_14
REMARK   11  A    between atoms: C_14  and  C_15
REMARK   12  A    between atoms: C_15  and  S_16
REMARK   13  A    between atoms: S_16  and  C_17
REMARK   14  A    between atoms: C_17  and  C_19
REMARK   15  A    between atoms: C_19  and  C_20
REMARK   16  A    between atoms: C_19  and  C_21
REMARK   17  A    between atoms: C_19  and  C_22
REMARK                            x       y       z     vdW  Elec       q    Type
REMARK                         _______ _______ _______ _____ _____    ______ ____
ROOT
ATOM      1  C   UNL     1       2.710   6.377  18.312  0.00  0.00    +0.000 C 
ATOM      2  O   UNL     1       1.944   5.559  17.807  0.00  0.00    +0.000 OA
ATOM      3  N   UNL     1       3.664   6.045  19.239  0.00  0.00    +0.000 N 
ATOM      4  H   UNL     1       4.279   6.761  19.610  0.00  0.00    +0.000 HD
ENDROOT
BRANCH   1   5
ATOM      5  C   UNL     1       2.654   7.852  17.969  0.00  0.00    +0.000 C 
BRANCH   5   6
ATOM      6  C   UNL     1       1.700   8.620  18.887  0.00  0.00    +0.000 C 
BRANCH   6   7
ATOM      7  C   UNL     1       1.005   9.808  18.218  0.00  0.00    +0.000 C 
BRANCH   7   8
ATOM      8  N   UNL     1       2.029  10.645  17.534  0.00  0.00    +0.000 NA
ATOM      9  H   UNL     1       2.300  10.173  16.668  0.00  0.00    +0.000 HD
ATOM     10  H   UNL     1       2.876  10.651  18.105  0.00  0.00    +0.000 HD
ENDBRANCH   7   8
BRANCH   7  11
ATOM     11  C   UNL     1       0.192  10.645  19.226  0.00  0.00    +0.000 C 
ATOM     12  O   UNL     1       0.654  11.588  19.857  0.00  0.00    +0.000 OA
BRANCH  11  13
ATOM     13  O   UNL     1      -1.088  10.178  19.340  0.00  0.00    +0.000 OA
BRANCH  13  14
ATOM     14  C   UNL     1      -2.063  10.814  18.504  0.00  0.00    +0.000 C 
BRANCH  14  16
ATOM     15  C   UNL     1      -2.472  10.035  16.169  0.00  0.00    +0.000 C 
ATOM     16  C   UNL     1      -2.806   9.809  17.636  0.00  0.00    +0.000 C 
ENDBRANCH  14  16
ENDBRANCH  13  14
ENDBRANCH  11  13
ENDBRANCH   7  11
ENDBRANCH   6   7
ENDBRANCH   5   6
ENDBRANCH   1   5
BRANCH   3  17
ATOM     17  C   UNL     1       3.880   4.672  19.671  0.00  0.00    +0.000 C 
BRANCH  17  18
ATOM     18  C   UNL     1       5.198   4.065  19.173  0.00  0.00    +0.000 C 
BRANCH  18  19
ATOM     19  S   UNL     1       6.360   5.389  18.708  0.00  0.00    +0.000 S 
BRANCH  19  20
ATOM     20  C   UNL     1       6.988   4.756  17.175  0.00  0.00    +0.000 C 
ATOM     21  O   UNL     1       8.069   4.179  17.128  0.00  0.00    +0.000 OA
BRANCH  20  22
ATOM     22  C   UNL     1       6.098   5.009  15.933  0.00  0.00    +0.000 C 
ATOM     23  C   UNL     1       5.489   6.418  15.994  0.00  0.00    +0.000 C 
ATOM     24  C   UNL     1       6.954   4.909  14.658  0.00  0.00    +0.000 C 
ATOM     25  C   UNL     1       4.984   3.952  15.837  0.00  0.00    +0.000 C 
ENDBRANCH  20  22
ENDBRANCH  19  20
ENDBRANCH  18  19
ENDBRANCH  17  18
ENDBRANCH   3  17
TORSDOF 13
ENDMDL
MODEL 5
REMARK VINA RESULT:      -6.0      2.150      2.917
REMARK  Name = 
REMARK  17 active torsions:
REMARK  status: ('A' for Active; 'I' for Inactive)
REMARK    1  A    between atoms: C_1  and  C_2
REMARK    2  A    between atoms: C_2  and  C_3
REMARK    3  A    between atoms: C_3  and  O_4
REMARK    4  A    between atoms: O_4  and  C_5
REMARK    5  A    between atoms: C_5  and  C_7
REMARK    6  A    between atoms: C_7  and  N_8
REMARK    7  A    between atoms: C_7  and  C_9
REMARK    8  A    between atoms: C_9  and  C_10
REMARK    9  A    between atoms: C_10  and  C_11
REMARK   10  A    between atoms: N_13  and  C_14
REMARK   11  A    between atoms: C_14  and  C_15
REMARK   12  A    between atoms: C_15  and  S_16
REMARK   13  A    between atoms: S_16  and  C_17
REMARK   14  A    between atoms: C_17  and  C_19
REMARK   15  A    between atoms: C_19  and  C_20
REMARK   16  A    between atoms: C_19  and  C_21
REMARK   17  A    between atoms: C_19  and  C_22
REMARK                            x       y       z     vdW  Elec       q    Type
REMARK                         _______ _______ _______ _____ _____    ______ ____
ROOT
ATOM      1  C   UNL     1       4.849   6.672  16.871  0.00  0.00    +0.000 C 
ATOM      2  O   UNL     1       5.608   6.521  17.826  0.00  0.00    +0.000 OA
ATOM      3  N   UNL     1       3.592   7.208  16.984  0.00  0.00    +0.000 N 
ATOM      4  H   UNL     1       3.016   7.324  16.157  0.00  0.00    +0.000 HD
ENDROOT
BRANCH   1   5
ATOM      5  C   UNL     1       5.229   6.252  15.466  0.00  0.00    +0.000 C 
BRANCH   5   6
ATOM      6  C   UNL     1       5.377   4.734  15.339  0.00  0.00    +0.000 C 
BRANCH   6   7
ATOM      7  C   UNL     1       6.796   4.267  15.006  0.00  0.00    +0.000 C 
BRANCH   7   8
ATOM      8  N   UNL     1       7.708   4.657  16.115  0.00  0.00    +0.000 NA
ATOM      9  H   UNL     1       8.086   3.804  16.533  0.00  0.00    +0.000 HD
ATOM     10  H   UNL     1       7.150   5.086  16.856  0.00  0.00    +0.000 HD
ENDBRANCH   7   8
BRANCH   7  11
ATOM     11  C   UNL     1       7.290   4.833  13.659  0.00  0.00    +0.000 C 
ATOM     12  O   UNL     1       8.271   5.557  13.544  0.00  0.00    +0.000 OA
BRANCH  11  13
ATOM     13  O   UNL     1       6.476   4.446  12.630  0.00  0.00    +0.000 OA
BRANCH  13  14
ATOM     14  C   UNL     1       6.815   3.206  11.997  0.00  0.00    +0.000 C 
BRANCH  14  16
ATOM     15  C   UNL     1       4.381   3.274  11.454  0.00  0.00    +0.000 C 
ATOM     16  C   UNL     1       5.581   2.370  11.691  0.00  0.00    +0.000 C 
ENDBRANCH  14  16
ENDBRANCH  13  14
ENDBRANCH  11  13
ENDBRANCH   7  11
ENDBRANCH   6   7
ENDBRANCH   5   6
ENDBRANCH   1   5
BRANCH   3  17
ATOM     17  C   UNL     1       3.067   7.691  18.252  0.00  0.00    +0.000 C 
BRANCH  17  18
ATOM     18  C   UNL     1       2.147   6.690  18.964  0.00  0.00    +0.000 C 
BRANCH  18  19
ATOM     19  S   UNL     1       3.105   5.695  20.151  0.00  0.00    +0.000 S 
BRANCH  19  20
ATOM     20  C   UNL     1       3.032   4.099  19.381  0.00  0.00    +0.000 C 
ATOM     21  O   UNL     1       3.704   3.848  18.386  0.00  0.00    +0.000 OA
BRANCH  20  22
ATOM     22  C   UNL     1       2.057   3.086  20.032  0.00  0.00    +0.000 C 
ATOM     23  C   UNL     1       1.920   1.837  19.149  0.00  0.00    +0.000 C 
ATOM     24  C   UNL     1       2.609   2.649  21.401  0.00  0.00    +0.000 C 
ATOM     25  C   UNL     1       0.679   3.727  20.263  0.00  0.00    +0.000 C 
ENDBRANCH  20  22
ENDBRANCH  19  20
ENDBRANCH  18  19
ENDBRANCH  17  18
ENDBRANCH   3  17
TORSDOF 13
ENDMDL
MODEL 6
REMARK VINA RESULT:      -6.0      3.704      7.083
REMARK  Name = 
REMARK  17 active torsions:
REMARK  status: ('A' for Active; 'I' for Inactive)
REMARK    1  A    between atoms: C_1  and  C_2
REMARK    2  A    between atoms: C_2  and  C_3
REMARK    3  A    between atoms: C_3  and  O_4
REMARK    4  A    between atoms: O_4  and  C_5
REMARK    5  A    between atoms: C_5  and  C_7
REMARK    6  A    between atoms: C_7  and  N_8
REMARK    7  A    between atoms: C_7  and  C_9
REMARK    8  A    between atoms: C_9  and  C_10
REMARK    9  A    between atoms: C_10  and  C_11
REMARK   10  A    between atoms: N_13  and  C_14
REMARK   11  A    between atoms: C_14  and  C_15
REMARK   12  A    between atoms: C_15  and  S_16
REMARK   13  A    between atoms: S_16  and  C_17
REMARK   14  A    between atoms: C_17  and  C_19
REMARK   15  A    between atoms: C_19  and  C_20
REMARK   16  A    between atoms: C_19  and  C_21
REMARK   17  A    between atoms: C_19  and  C_22
REMARK                            x       y       z     vdW  Elec       q    Type
REMARK                         _______ _______ _______ _____ _____    ______ ____
ROOT
ATOM      1  C   UNL     1       4.460   2.526  19.849  0.00  0.00    +0.000 C 
ATOM      2  O   UNL     1       5.098   2.148  20.830  0.00  0.00    +0.000 OA
ATOM      3  N   UNL     1       4.866   3.553  19.037  0.00  0.00    +0.000 N 
ATOM      4  H   UNL     1       4.306   3.811  18.230  0.00  0.00    +0.000 HD
ENDROOT
BRANCH   1   5
ATOM      5  C   UNL     1       3.138   1.898  19.457  0.00  0.00    +0.000 C 
BRANCH   5   6
ATOM      6  C   UNL     1       2.546   2.542  18.201  0.00  0.00    +0.000 C 
BRANCH   6   7
ATOM      7  C   UNL     1       1.341   3.447  18.468  0.00  0.00    +0.000 C 
BRANCH   7   8
ATOM      8  N   UNL     1       0.989   4.167  17.214  0.00  0.00    +0.000 NA
ATOM      9  H   UNL     1       1.850   4.544  16.810  0.00  0.00    +0.000 HD
ATOM     10  H   UNL     1       0.434   4.988  17.458  0.00  0.00    +0.000 HD
ENDBRANCH   7   8
BRANCH   7  11
ATOM     11  C   UNL     1       1.606   4.438  19.619  0.00  0.00    +0.000 C 
ATOM     12  O   UNL     1       1.027   4.399  20.698  0.00  0.00    +0.000 OA
BRANCH  11  13
ATOM     13  O   UNL     1       2.541   5.371  19.264  0.00  0.00    +0.000 OA
BRANCH  13  14
ATOM     14  C   UNL     1       2.398   6.662  19.871  0.00  0.00    +0.000 C 
BRANCH  14  16
ATOM     15  C   UNL     1       3.032   7.916  17.810  0.00  0.00    +0.000 C 
ATOM     16  C   UNL     1       1.956   7.715  18.866  0.00  0.00    +0.000 C 
ENDBRANCH  14  16
ENDBRANCH  13  14
ENDBRANCH  11  13
ENDBRANCH   7  11
ENDBRANCH   6   7
ENDBRANCH   5   6
ENDBRANCH   1   5
BRANCH   3  17
ATOM     17  C   UNL     1       6.122   4.257  19.245  0.00  0.00    +0.000 C 
BRANCH  17  18
ATOM     18  C   UNL     1       6.011   5.781  19.105  0.00  0.00    +0.000 C 
BRANCH  18  19
ATOM     19  S   UNL     1       7.180   6.379  17.842  0.00  0.00    +0.000 S 
BRANCH  19  20
ATOM     20  C   UNL     1       7.203   4.998  16.730  0.00  0.00    +0.000 C 
ATOM     21  O   UNL     1       8.043   4.112  16.844  0.00  0.00    +0.000 OA
BRANCH  20  22
ATOM     22  C   UNL     1       6.124   5.016  15.619  0.00  0.00    +0.000 C 
ATOM     23  C   UNL     1       5.403   6.373  15.600  0.00  0.00    +0.000 C 
ATOM     24  C   UNL     1       6.792   4.807  14.248  0.00  0.00    +0.000 C 
ATOM     25  C   UNL     1       5.109   3.879  15.826  0.00  0.00    +0.000 C 
ENDBRANCH  20  22
ENDBRANCH  19  20
ENDBRANCH  18  19
ENDBRANCH  17  18
ENDBRANCH   3  17
TORSDOF 13
ENDMDL
MODEL 7
REMARK VINA RESULT:      -5.9      5.643      8.255
REMARK  Name = 
REMARK  17 active torsions:
REMARK  status: ('A' for Active; 'I' for Inactive)
REMARK    1  A    between atoms: C_1  and  C_2
REMARK    2  A    between atoms: C_2  and  C_3
REMARK    3  A    between atoms: C_3  and  O_4
REMARK    4  A    between atoms: O_4  and  C_5
REMARK    5  A    between atoms: C_5  and  C_7
REMARK    6  A    between atoms: C_7  and  N_8
REMARK    7  A    between atoms: C_7  and  C_9
REMARK    8  A    between atoms: C_9  and  C_10
REMARK    9  A    between atoms: C_10  and  C_11
REMARK   10  A    between atoms: N_13  and  C_14
REMARK   11  A    between atoms: C_14  and  C_15
REMARK   12  A    between atoms: C_15  and  S_16
REMARK   13  A    between atoms: S_16  and  C_17
REMARK   14  A    between atoms: C_17  and  C_19
REMARK   15  A    between atoms: C_19  and  C_20
REMARK   16  A    between atoms: C_19  and  C_21
REMARK   17  A    between atoms: C_19  and  C_22
REMARK                            x       y       z     vdW  Elec       q    Type
REMARK                         _______ _______ _______ _____ _____    ______ ____
ROOT
ATOM      1  C   UNL     1       7.621   7.118  17.877  0.00  0.00    +0.000 C 
ATOM      2  O   UNL     1       7.181   7.267  16.740  0.00  0.00    +0.000 OA
ATOM      3  N   UNL     1       7.354   6.018  18.652  0.00  0.00    +0.000 N 
ATOM      4  H   UNL     1       7.759   5.943  19.579  0.00  0.00    +0.000 HD
ENDROOT
BRANCH   1   5
ATOM      5  C   UNL     1       8.490   8.163  18.548  0.00  0.00    +0.000 C 
BRANCH   5   6
ATOM      6  C   UNL     1       8.302   9.551  17.930  0.00  0.00    +0.000 C 
BRANCH   6   7
ATOM      7  C   UNL     1       9.318  10.592  18.404  0.00  0.00    +0.000 C 
BRANCH   7   8
ATOM      8  N   UNL     1       9.424  10.525  19.887  0.00  0.00    +0.000 NA
ATOM      9  H   UNL     1       9.537  11.477  20.243  0.00  0.00    +0.000 HD
ATOM     10  H   UNL     1      10.296  10.051  20.128  0.00  0.00    +0.000 HD
ENDBRANCH   7   8
BRANCH   7  11
ATOM     11  C   UNL     1       8.947  12.015  17.940  0.00  0.00    +0.000 C 
ATOM     12  O   UNL     1       7.969  12.272  17.248  0.00  0.00    +0.000 OA
BRANCH  11  13
ATOM     13  O   UNL     1       9.862  12.933  18.376  0.00  0.00    +0.000 OA
BRANCH  13  14
ATOM     14  C   UNL     1      10.747  13.456  17.378  0.00  0.00    +0.000 C 
BRANCH  14  16
ATOM     15  C   UNL     1      12.308  13.099  19.291  0.00  0.00    +0.000 C 
ATOM     16  C   UNL     1      12.112  13.800  17.955  0.00  0.00    +0.000 C 
ENDBRANCH  14  16
ENDBRANCH  13  14
ENDBRANCH  11  13
ENDBRANCH   7  11
ENDBRANCH   6   7
ENDBRANCH   5   6
ENDBRANCH   1   5
BRANCH   3  17
ATOM     17  C   UNL     1       6.558   4.902  18.165  0.00  0.00    +0.000 C 
BRANCH  17  18
ATOM     18  C   UNL     1       5.268   4.666  18.961  0.00  0.00    +0.000 C 
BRANCH  18  19
ATOM     19  S   UNL     1       4.185   3.505  18.068  0.00  0.00    +0.000 S 
BRANCH  19  20
ATOM     20  C   UNL     1       2.592   4.197  18.423  0.00  0.00    +0.000 C 
ATOM     21  O   UNL     1       2.201   5.206  17.846  0.00  0.00    +0.000 OA
BRANCH  20  22
ATOM     22  C   UNL     1       1.770   3.459  19.508  0.00  0.00    +0.000 C 
ATOM     23  C   UNL     1       0.728   2.540  18.852  0.00  0.00    +0.000 C 
ATOM     24  C   UNL     1       2.709   2.590  20.363  0.00  0.00    +0.000 C 
ATOM     25  C   UNL     1       1.076   4.464  20.444  0.00  0.00    +0.000 C 
ENDBRANCH  20  22
ENDBRANCH  19  20
ENDBRANCH  18  19
ENDBRANCH  17  18
ENDBRANCH   3  17
TORSDOF 13
ENDMDL
MODEL 8
REMARK VINA RESULT:      -5.9      4.654      7.203
REMARK  Name = 
REMARK  17 active torsions:
REMARK  status: ('A' for Active; 'I' for Inactive)
REMARK    1  A    between atoms: C_1  and  C_2
REMARK    2  A    between atoms: C_2  and  C_3
REMARK    3  A    between atoms: C_3  and  O_4
REMARK    4  A    between atoms: O_4  and  C_5
REMARK    5  A    between atoms: C_5  and  C_7
REMARK    6  A    between atoms: C_7  and  N_8
REMARK    7  A    between atoms: C_7  and  C_9
REMARK    8  A    between atoms: C_9  and  C_10
REMARK    9  A    between atoms: C_10  and  C_11
REMARK   10  A    between atoms: N_13  and  C_14
REMARK   11  A    between atoms: C_14  and  C_15
REMARK   12  A    between atoms: C_15  and  S_16
REMARK   13  A    between atoms: S_16  and  C_17
REMARK   14  A    between atoms: C_17  and  C_19
REMARK   15  A    between atoms: C_19  and  C_20
REMARK   16  A    between atoms: C_19  and  C_21
REMARK   17  A    between atoms: C_19  and  C_22
REMARK                            x       y       z     vdW  Elec       q    Type
REMARK                         _______ _______ _______ _____ _____    ______ ____
ROOT
ATOM      1  C   UNL     1       1.863   3.457  20.817  0.00  0.00    +0.000 C 
ATOM      2  O   UNL     1       2.068   3.375  22.026  0.00  0.00    +0.000 OA
ATOM      3  N   UNL     1       1.624   4.643  20.172  0.00  0.00    +0.000 N 
ATOM      4  H   UNL     1       1.477   4.651  19.167  0.00  0.00    +0.000 HD
ENDROOT
BRANCH   1   5
ATOM      5  C   UNL     1       1.830   2.236  19.921  0.00  0.00    +0.000 C 
BRANCH   5   6
ATOM      6  C   UNL     1       1.930   2.606  18.440  0.00  0.00    +0.000 C 
BRANCH   6   7
ATOM      7  C   UNL     1       3.290   2.303  17.807  0.00  0.00    +0.000 C 
BRANCH   7   8
ATOM      8  N   UNL     1       3.977   1.257  18.613  0.00  0.00    +0.000 NA
ATOM      9  H   UNL     1       4.986   1.402  18.532  0.00  0.00    +0.000 HD
ATOM     10  H   UNL     1       3.808   0.349  18.177  0.00  0.00    +0.000 HD
ENDBRANCH   7   8
BRANCH   7  11
ATOM     11  C   UNL     1       4.164   3.567  17.681  0.00  0.00    +0.000 C 
ATOM     12  O   UNL     1       4.216   4.260  16.673  0.00  0.00    +0.000 OA
BRANCH  11  13
ATOM     13  O   UNL     1       4.885   3.787  18.822  0.00  0.00    +0.000 OA
BRANCH  13  14
ATOM     14  C   UNL     1       5.189   5.156  19.116  0.00  0.00    +0.000 C 
BRANCH  14  16
ATOM     15  C   UNL     1       7.417   5.313  18.002  0.00  0.00    +0.000 C 
ATOM     16  C   UNL     1       6.680   5.371  19.332  0.00  0.00    +0.000 C 
ENDBRANCH  14  16
ENDBRANCH  13  14
ENDBRANCH  11  13
ENDBRANCH   7  11
ENDBRANCH   6   7
ENDBRANCH   5   6
ENDBRANCH   1   5
BRANCH   3  17
ATOM     17  C   UNL     1       1.642   5.921  20.867  0.00  0.00    +0.000 C 
BRANCH  17  18
ATOM     18  C   UNL     1       2.098   7.097  19.993  0.00  0.00    +0.000 C 
BRANCH  18  19
ATOM     19  S   UNL     1       1.357   8.648  20.595  0.00  0.00    +0.000 S 
BRANCH  19  20
ATOM     20  C   UNL     1       1.061   9.491  19.063  0.00  0.00    +0.000 C 
ATOM     21  O   UNL     1       1.684   9.192  18.049  0.00  0.00    +0.000 OA
BRANCH  20  22
ATOM     22  C   UNL     1       0.003  10.621  19.115  0.00  0.00    +0.000 C 
ATOM     23  C   UNL     1       0.652  11.972  18.778  0.00  0.00    +0.000 C 
ATOM     24  C   UNL     1      -1.097  10.343  18.074  0.00  0.00    +0.000 C 
ATOM     25  C   UNL     1      -0.663  10.681  20.500  0.00  0.00    +0.000 C 
ENDBRANCH  20  22
ENDBRANCH  19  20
ENDBRANCH  18  19
ENDBRANCH  17  18
ENDBRANCH   3  17
TORSDOF 13
ENDMDL
MODEL 9
REMARK VINA RESULT:      -5.8      4.516      6.355
REMARK  Name = 
REMARK  17 active torsions:
REMARK  status: ('A' for Active; 'I' for Inactive)
REMARK    1  A    between atoms: C_1  and  C_2
REMARK    2  A    between atoms: C_2  and  C_3
REMARK    3  A    between atoms: C_3  and  O_4
REMARK    4  A    between atoms: O_4  and  C_5
REMARK    5  A    between atoms: C_5  and  C_7
REMARK    6  A    between atoms: C_7  and  N_8
REMARK    7  A    between atoms: C_7  and  C_9
REMARK    8  A    between atoms: C_9  and  C_10
REMARK    9  A    between atoms: C_10  and  C_11
REMARK   10  A    between atoms: N_13  and  C_14
REMARK   11  A    between atoms: C_14  and  C_15
REMARK   12  A    between atoms: C_15  and  S_16
REMARK   13  A    between atoms: S_16  and  C_17
REMARK   14  A    between atoms: C_17  and  C_19
REMARK   15  A    between atoms: C_19  and  C_20
REMARK   16  A    between atoms: C_19  and  C_21
REMARK   17  A    between atoms: C_19  and  C_22
REMARK                            x       y       z     vdW  Elec       q    Type
REMARK                         _______ _______ _______ _____ _____    ______ ____
ROOT
ATOM      1  C   UNL     1       3.411   7.343  17.571  0.00  0.00    +0.000 C 
ATOM      2  O   UNL     1       2.788   8.377  17.341  0.00  0.00    +0.000 OA
ATOM      3  N   UNL     1       3.228   6.588  18.701  0.00  0.00    +0.000 N 
ATOM      4  H   UNL     1       3.760   5.733  18.829  0.00  0.00    +0.000 HD
ENDROOT
BRANCH   1   5
ATOM      5  C   UNL     1       4.470   6.813  16.625  0.00  0.00    +0.000 C 
BRANCH   5   6
ATOM      6  C   UNL     1       5.367   5.768  17.293  0.00  0.00    +0.000 C 
BRANCH   6   7
ATOM      7  C   UNL     1       6.858   5.938  16.995  0.00  0.00    +0.000 C 
BRANCH   7   8
ATOM      8  N   UNL     1       7.468   4.595  16.794  0.00  0.00    +0.000 NA
ATOM      9  H   UNL     1       6.779   3.888  17.061  0.00  0.00    +0.000 HD
ATOM     10  H   UNL     1       8.231   4.483  17.464  0.00  0.00    +0.000 HD
ENDBRANCH   7   8
BRANCH   7  11
ATOM     11  C   UNL     1       7.586   6.713  18.112  0.00  0.00    +0.000 C 
ATOM     12  O   UNL     1       7.915   6.216  19.182  0.00  0.00    +0.000 OA
BRANCH  11  13
ATOM     13  O   UNL     1       7.783   8.020  17.761  0.00  0.00    +0.000 OA
BRANCH  13  14
ATOM     14  C   UNL     1       8.714   8.752  18.568  0.00  0.00    +0.000 C 
BRANCH  14  16
ATOM     15  C   UNL     1       9.725  10.971  19.096  0.00  0.00    +0.000 C 
ATOM     16  C   UNL     1       8.700  10.237  18.242  0.00  0.00    +0.000 C 
ENDBRANCH  14  16
ENDBRANCH  13  14
ENDBRANCH  11  13
ENDBRANCH   7  11
ENDBRANCH   6   7
ENDBRANCH   5   6
ENDBRANCH   1   5
BRANCH   3  17
ATOM     17  C   UNL     1       2.236   6.929  19.709  0.00  0.00    +0.000 C 
BRANCH  17  18
ATOM     18  C   UNL     1       2.194   5.955  20.894  0.00  0.00    +0.000 C 
BRANCH  18  19
ATOM     19  S   UNL     1       1.425   4.385  20.385  0.00  0.00    +0.000 S 
BRANCH  19  20
ATOM     20  C   UNL     1       2.804   3.571  19.623  0.00  0.00    +0.000 C 
ATOM     21  O   UNL     1       3.951   3.793  19.996  0.00  0.00    +0.000 OA
BRANCH  20  22
ATOM     22  C   UNL     1       2.453   2.606  18.464  0.00  0.00    +0.000 C 
ATOM     23  C   UNL     1       1.018   2.081  18.624  0.00  0.00    +0.000 C 
ATOM     24  C   UNL     1       2.543   3.357  17.123  0.00  0.00    +0.000 C 
ATOM     25  C   UNL     1       3.445   1.431  18.413  0.00  0.00    +0.000 C 
ENDBRANCH  20  22
ENDBRANCH  19  20
ENDBRANCH  18  19
ENDBRANCH  17  18
ENDBRANCH   3  17
TORSDOF 13
ENDMDL
