MODEL 1
REMARK VINA RESULT:      -7.9      0.000      0.000
REMARK  Name = 
REMARK  12 active torsions:
REMARK  status: ('A' for Active; 'I' for Inactive)
REMARK    1  A    between atoms: C_1  and  O_2
REMARK    2  A    between atoms: O_2  and  C_3
REMARK    3  A    between atoms: C_3  and  C_5
REMARK    4  A    between atoms: C_5  and  C_6
REMARK    5  A    between atoms: C_5  and  N_28
REMARK    6  A    between atoms: C_6  and  S_7
REMARK    7  A    between atoms: S_7  and  C_8
REMARK    8  A    between atoms: C_11  and  C_12
REMARK    9  A    between atoms: C_12  and  O_14
REMARK   10  A    between atoms: C_21  and  C_22
REMARK   11  A    between atoms: C_22  and  O_24
REMARK   12  A    between atoms: C_29  and  C_30
REMARK                            x       y       z     vdW  Elec       q    Type
REMARK                         _______ _______ _______ _____ _____    ______ ____
ROOT
ATOM      1  C   UNL     1       3.912   5.173  18.145  0.00  0.00    +0.000 A 
ATOM      2  C   UNL     1       4.248   3.851  18.462  0.00  0.00    +0.000 A 
ATOM      3  C   UNL     1       3.648   3.223  19.543  0.00  0.00    +0.000 A 
ATOM      4  C   UNL     1       2.689   3.904  20.299  0.00  0.00    +0.000 A 
ATOM      5  C   UNL     1       2.363   5.232  20.012  0.00  0.00    +0.000 A 
ATOM      6  N   UNL     1       1.441   5.868  20.774  0.00  0.00    +0.000 NA
ATOM      7  C   UNL     1       1.159   7.155  20.533  0.00  0.00    +0.000 A 
ATOM      8  C   UNL     1       0.230   7.770  21.358  0.00  0.00    +0.000 A 
ATOM      9  C   UNL     1      -0.087   9.113  21.208  0.00  0.00    +0.000 A 
ATOM     10  C   UNL     1       0.539   9.842  20.210  0.00  0.00    +0.000 A 
ATOM     11  C   UNL     1       1.467   9.222  19.352  0.00  0.00    +0.000 A 
ATOM     12  C   UNL     1       1.789   7.863  19.496  0.00  0.00    +0.000 A 
ATOM     13  N   UNL     1       2.687   7.214  18.694  0.00  0.00    +0.000 NA
ATOM     14  C   UNL     1       2.991   5.900  18.934  0.00  0.00    +0.000 A 
ENDROOT
BRANCH   4  15
ATOM     15  C   UNL     1       2.045   3.135  21.408  0.00  0.00    +0.000 C 
ATOM     16  O   UNL     1       2.686   2.743  22.372  0.00  0.00    +0.000 OA
BRANCH  15  17
ATOM     17  O   UNL     1       0.728   2.881  21.284  0.00  0.00    +0.000 OA
ATOM     18  H   UNL     1       0.188   3.696  21.161  0.00  0.00    +0.000 HD
ENDBRANCH  15  17
ENDBRANCH   4  15
BRANCH  11  19
ATOM     19  C   UNL     1       2.092  10.085  18.309  0.00  0.00    +0.000 C 
ATOM     20  O   UNL     1       2.233  11.288  18.466  0.00  0.00    +0.000 OA
BRANCH  19  21
ATOM     21  O   UNL     1       2.478   9.459  17.178  0.00  0.00    +0.000 OA
ATOM     22  H   UNL     1       3.292   8.915  17.303  0.00  0.00    +0.000 HD
ENDBRANCH  19  21
ENDBRANCH  11  19
BRANCH   1  23
ATOM     23  S   UNL     1       4.598   5.787  16.591  0.00  0.00    +0.000 S 
BRANCH  23  24
ATOM     24  C   UNL     1       5.405   4.287  15.924  0.00  0.00    +0.000 C 
BRANCH  24  25
ATOM     25  C   UNL     1       6.942   4.410  15.828  0.00  0.00    +0.000 C 
BRANCH  25  26
ATOM     26  N   UNL     1       7.373   5.164  14.647  0.00  0.00    +0.000 N 
ATOM     27  C   UNL     1       7.173   4.683  13.373  0.00  0.00    +0.000 C 
ATOM     28  C   UNL     1       7.741   5.551  12.280  0.00  0.00    +0.000 C 
ATOM     29  O   UNL     1       6.576   3.637  13.129  0.00  0.00    +0.000 OA
ATOM     30  H   UNL     1       7.981   5.965  14.788  0.00  0.00    +0.000 HD
ENDBRANCH  25  26
BRANCH  25  31
ATOM     31  C   UNL     1       7.407   5.173  17.071  0.00  0.00    +0.000 C 
ATOM     32  O   UNL     1       7.517   4.662  18.179  0.00  0.00    +0.000 OA
BRANCH  31  34
ATOM     33  C   UNL     1       7.774   7.292  17.985  0.00  0.00    +0.000 C 
ATOM     34  O   UNL     1       7.621   6.491  16.809  0.00  0.00    +0.000 OA
ENDBRANCH  31  34
ENDBRANCH  25  31
ENDBRANCH  24  25
ENDBRANCH  23  24
ENDBRANCH   1  23
TORSDOF 10
ENDMDL
MODEL 2
REMARK VINA RESULT:      -7.8      1.219      2.654
REMARK  Name = 
REMARK  12 active torsions:
REMARK  status: ('A' for Active; 'I' for Inactive)
REMARK    1  A    between atoms: C_1  and  O_2
REMARK    2  A    between atoms: O_2  and  C_3
REMARK    3  A    between atoms: C_3  and  C_5
REMARK    4  A    between atoms: C_5  and  C_6
REMARK    5  A    between atoms: C_5  and  N_28
REMARK    6  A    between atoms: C_6  and  S_7
REMARK    7  A    between atoms: S_7  and  C_8
REMARK    8  A    between atoms: C_11  and  C_12
REMARK    9  A    between atoms: C_12  and  O_14
REMARK   10  A    between atoms: C_21  and  C_22
REMARK   11  A    between atoms: C_22  and  O_24
REMARK   12  A    between atoms: C_29  and  C_30
REMARK                            x       y       z     vdW  Elec       q    Type
REMARK                         _______ _______ _______ _____ _____    ______ ____
ROOT
ATOM      1  C   UNL     1       3.611   6.148  18.174  0.00  0.00    +0.000 A 
ATOM      2  C   UNL     1       4.012   4.818  18.359  0.00  0.00    +0.000 A 
ATOM      3  C   UNL     1       3.469   4.068  19.391  0.00  0.00    +0.000 A 
ATOM      4  C   UNL     1       2.502   4.633  20.229  0.00  0.00    +0.000 A 
ATOM      5  C   UNL     1       2.112   5.965  20.074  0.00  0.00    +0.000 A 
ATOM      6  N   UNL     1       1.186   6.486  20.913  0.00  0.00    +0.000 NA
ATOM      7  C   UNL     1       0.843   7.776  20.800  0.00  0.00    +0.000 A 
ATOM      8  C   UNL     1      -0.089   8.270  21.700  0.00  0.00    +0.000 A 
ATOM      9  C   UNL     1      -0.467   9.606  21.684  0.00  0.00    +0.000 A 
ATOM     10  C   UNL     1       0.100  10.451  20.743  0.00  0.00    +0.000 A 
ATOM     11  C   UNL     1       1.030   9.955  19.809  0.00  0.00    +0.000 A 
ATOM     12  C   UNL     1       1.413   8.604  19.819  0.00  0.00    +0.000 A 
ATOM     13  N   UNL     1       2.315   8.073  18.939  0.00  0.00    +0.000 NA
ATOM     14  C   UNL     1       2.682   6.757  19.048  0.00  0.00    +0.000 A 
ENDROOT
BRANCH   4  15
ATOM     15  C   UNL     1       1.923   3.737  21.277  0.00  0.00    +0.000 C 
ATOM     16  O   UNL     1       2.520   3.496  22.314  0.00  0.00    +0.000 OA
BRANCH  15  17
ATOM     17  O   UNL     1       0.718   3.195  21.011  0.00  0.00    +0.000 OA
ATOM     18  H   UNL     1       0.649   2.837  20.096  0.00  0.00    +0.000 HD
ENDBRANCH  15  17
ENDBRANCH   4  15
BRANCH  11  19
ATOM     19  C   UNL     1       1.588  10.937  18.837  0.00  0.00    +0.000 C 
ATOM     20  O   UNL     1       1.826  12.093  19.151  0.00  0.00    +0.000 OA
BRANCH  19  21
ATOM     21  O   UNL     1       1.802  10.475  17.587  0.00  0.00    +0.000 OA
ATOM     22  H   UNL     1       1.729  11.181  16.903  0.00  0.00    +0.000 HD
ENDBRANCH  19  21
ENDBRANCH  11  19
BRANCH   1  23
ATOM     23  S   UNL     1       4.227   6.932  16.668  0.00  0.00    +0.000 S 
BRANCH  23  24
ATOM     24  C   UNL     1       5.101   5.544  15.858  0.00  0.00    +0.000 C 
BRANCH  24  25
ATOM     25  C   UNL     1       6.636   5.718  15.836  0.00  0.00    +0.000 C 
BRANCH  25  26
ATOM     26  N   UNL     1       7.283   5.159  17.026  0.00  0.00    +0.000 N 
ATOM     27  C   UNL     1       7.618   5.949  18.103  0.00  0.00    +0.000 C 
ATOM     28  C   UNL     1       8.340   5.226  19.209  0.00  0.00    +0.000 C 
ATOM     29  O   UNL     1       7.352   7.147  18.174  0.00  0.00    +0.000 OA
ATOM     30  H   UNL     1       7.641   4.210  16.974  0.00  0.00    +0.000 HD
ENDBRANCH  25  26
BRANCH  25  31
ATOM     31  C   UNL     1       7.155   4.956  14.615  0.00  0.00    +0.000 C 
ATOM     32  O   UNL     1       8.078   5.351  13.911  0.00  0.00    +0.000 OA
BRANCH  31  34
ATOM     33  C   UNL     1       6.253   3.553  12.979  0.00  0.00    +0.000 C 
ATOM     34  O   UNL     1       6.432   3.830  14.371  0.00  0.00    +0.000 OA
ENDBRANCH  31  34
ENDBRANCH  25  31
ENDBRANCH  24  25
ENDBRANCH  23  24
ENDBRANCH   1  23
TORSDOF 10
ENDMDL
MODEL 3
REMARK VINA RESULT:      -7.8      2.037      4.573
REMARK  Name = 
REMARK  12 active torsions:
REMARK  status: ('A' for Active; 'I' for Inactive)
REMARK    1  A    between atoms: C_1  and  O_2
REMARK    2  A    between atoms: O_2  and  C_3
REMARK    3  A    between atoms: C_3  and  C_5
REMARK    4  A    between atoms: C_5  and  C_6
REMARK    5  A    between atoms: C_5  and  N_28
REMARK    6  A    between atoms: C_6  and  S_7
REMARK    7  A    between atoms: S_7  and  C_8
REMARK    8  A    between atoms: C_11  and  C_12
REMARK    9  A    between atoms: C_12  and  O_14
REMARK   10  A    between atoms: C_21  and  C_22
REMARK   11  A    between atoms: C_22  and  O_24
REMARK   12  A    between atoms: C_29  and  C_30
REMARK                            x       y       z     vdW  Elec       q    Type
REMARK                         _______ _______ _______ _____ _____    ______ ____
ROOT
ATOM      1  C   UNL     1       3.125   7.512  17.742  0.00  0.00    +0.000 A 
ATOM      2  C   UNL     1       2.660   8.828  17.872  0.00  0.00    +0.000 A 
ATOM      3  C   UNL     1       1.925   9.196  18.989  0.00  0.00    +0.000 A 
ATOM      4  C   UNL     1       1.670   8.259  19.995  0.00  0.00    +0.000 A 
ATOM      5  C   UNL     1       2.103   6.937  19.867  0.00  0.00    +0.000 A 
ATOM      6  N   UNL     1       1.825   6.051  20.852  0.00  0.00    +0.000 NA
ATOM      7  C   UNL     1       2.196   4.770  20.714  0.00  0.00    +0.000 A 
ATOM      8  C   UNL     1       1.864   3.896  21.737  0.00  0.00    +0.000 A 
ATOM      9  C   UNL     1       2.168   2.544  21.654  0.00  0.00    +0.000 A 
ATOM     10  C   UNL     1       2.820   2.072  20.526  0.00  0.00    +0.000 A 
ATOM     11  C   UNL     1       3.183   2.955  19.491  0.00  0.00    +0.000 A 
ATOM     12  C   UNL     1       2.881   4.324  19.571  0.00  0.00    +0.000 A 
ATOM     13  N   UNL     1       3.204   5.223  18.593  0.00  0.00    +0.000 NA
ATOM     14  C   UNL     1       2.824   6.534  18.718  0.00  0.00    +0.000 A 
ENDROOT
BRANCH   4  15
ATOM     15  C   UNL     1       0.925   8.754  21.193  0.00  0.00    +0.000 C 
ATOM     16  O   UNL     1       1.415   9.568  21.960  0.00  0.00    +0.000 OA
BRANCH  15  17
ATOM     17  O   UNL     1      -0.306   8.244  21.393  0.00  0.00    +0.000 OA
ATOM     18  H   UNL     1      -0.367   7.285  21.174  0.00  0.00    +0.000 HD
ENDBRANCH  15  17
ENDBRANCH   4  15
BRANCH  11  19
ATOM     19  C   UNL     1       3.879   2.358  18.316  0.00  0.00    +0.000 C 
ATOM     20  O   UNL     1       3.497   1.319  17.800  0.00  0.00    +0.000 OA
BRANCH  19  21
ATOM     21  O   UNL     1       4.960   3.027  17.867  0.00  0.00    +0.000 OA
ATOM     22  H   UNL     1       5.635   3.177  18.572  0.00  0.00    +0.000 HD
ENDBRANCH  19  21
ENDBRANCH  11  19
BRANCH   1  23
ATOM     23  S   UNL     1       4.249   7.230  16.358  0.00  0.00    +0.000 S 
BRANCH  23  24
ATOM     24  C   UNL     1       5.811   6.834  17.224  0.00  0.00    +0.000 C 
BRANCH  24  25
ATOM     25  C   UNL     1       6.500   5.559  16.690  0.00  0.00    +0.000 C 
BRANCH  25  26
ATOM     26  N   UNL     1       7.120   5.762  15.377  0.00  0.00    +0.000 N 
ATOM     27  C   UNL     1       7.012   4.823  14.376  0.00  0.00    +0.000 C 
ATOM     28  C   UNL     1       7.769   5.160  13.118  0.00  0.00    +0.000 C 
ATOM     29  O   UNL     1       6.351   3.793  14.481  0.00  0.00    +0.000 OA
ATOM     30  H   UNL     1       7.780   6.526  15.275  0.00  0.00    +0.000 HD
ENDBRANCH  25  26
BRANCH  25  31
ATOM     31  C   UNL     1       7.606   5.197  17.684  0.00  0.00    +0.000 C 
ATOM     32  O   UNL     1       8.228   4.141  17.651  0.00  0.00    +0.000 OA
BRANCH  31  34
ATOM     33  C   UNL     1       8.036   5.628  19.939  0.00  0.00    +0.000 C 
ATOM     34  O   UNL     1       7.767   6.155  18.637  0.00  0.00    +0.000 OA
ENDBRANCH  31  34
ENDBRANCH  25  31
ENDBRANCH  24  25
ENDBRANCH  23  24
ENDBRANCH   1  23
TORSDOF 10
ENDMDL
MODEL 4
REMARK VINA RESULT:      -7.7      1.035      1.247
REMARK  Name = 
REMARK  12 active torsions:
REMARK  status: ('A' for Active; 'I' for Inactive)
REMARK    1  A    between atoms: C_1  and  O_2
REMARK    2  A    between atoms: O_2  and  C_3
REMARK    3  A    between atoms: C_3  and  C_5
REMARK    4  A    between atoms: C_5  and  C_6
REMARK    5  A    between atoms: C_5  and  N_28
REMARK    6  A    between atoms: C_6  and  S_7
REMARK    7  A    between atoms: S_7  and  C_8
REMARK    8  A    between atoms: C_11  and  C_12
REMARK    9  A    between atoms: C_12  and  O_14
REMARK   10  A    between atoms: C_21  and  C_22
REMARK   11  A    between atoms: C_22  and  O_24
REMARK   12  A    between atoms: C_29  and  C_30
REMARK                            x       y       z     vdW  Elec       q    Type
REMARK                         _______ _______ _______ _____ _____    ______ ____
ROOT
ATOM      1  C   UNL     1       3.581   6.011  18.151  0.00  0.00    +0.000 A 
ATOM      2  C   UNL     1       3.964   4.678  18.346  0.00  0.00    +0.000 A 
ATOM      3  C   UNL     1       3.424   3.947  19.394  0.00  0.00    +0.000 A 
ATOM      4  C   UNL     1       2.479   4.537  20.239  0.00  0.00    +0.000 A 
ATOM      5  C   UNL     1       2.107   5.874  20.075  0.00  0.00    +0.000 A 
ATOM      6  N   UNL     1       1.202   6.418  20.921  0.00  0.00    +0.000 NA
ATOM      7  C   UNL     1       0.877   7.712  20.798  0.00  0.00    +0.000 A 
ATOM      8  C   UNL     1      -0.034   8.231  21.705  0.00  0.00    +0.000 A 
ATOM      9  C   UNL     1      -0.391   9.572  21.679  0.00  0.00    +0.000 A 
ATOM     10  C   UNL     1       0.176  10.397  20.721  0.00  0.00    +0.000 A 
ATOM     11  C   UNL     1       1.084   9.877  19.779  0.00  0.00    +0.000 A 
ATOM     12  C   UNL     1       1.446   8.520  19.799  0.00  0.00    +0.000 A 
ATOM     13  N   UNL     1       2.327   7.965  18.913  0.00  0.00    +0.000 NA
ATOM     14  C   UNL     1       2.675   6.645  19.032  0.00  0.00    +0.000 A 
ENDROOT
BRANCH   4  15
ATOM     15  C   UNL     1       1.900   3.662  21.304  0.00  0.00    +0.000 C 
ATOM     16  O   UNL     1       0.931   2.949  21.092  0.00  0.00    +0.000 OA
BRANCH  15  17
ATOM     17  O   UNL     1       2.490   3.711  22.515  0.00  0.00    +0.000 OA
ATOM     18  H   UNL     1       3.474   3.699  22.465  0.00  0.00    +0.000 HD
ENDBRANCH  15  17
ENDBRANCH   4  15
BRANCH  11  19
ATOM     19  C   UNL     1       1.644  10.839  18.788  0.00  0.00    +0.000 C 
ATOM     20  O   UNL     1       1.895  11.997  19.084  0.00  0.00    +0.000 OA
BRANCH  19  21
ATOM     21  O   UNL     1       1.843  10.357  17.544  0.00  0.00    +0.000 OA
ATOM     22  H   UNL     1       2.775  10.071  17.391  0.00  0.00    +0.000 HD
ENDBRANCH  19  21
ENDBRANCH  11  19
BRANCH   1  23
ATOM     23  S   UNL     1       4.189   6.769  16.629  0.00  0.00    +0.000 S 
BRANCH  23  24
ATOM     24  C   UNL     1       5.996   6.774  16.912  0.00  0.00    +0.000 C 
BRANCH  24  25
ATOM     25  C   UNL     1       6.679   5.444  16.526  0.00  0.00    +0.000 C 
BRANCH  25  26
ATOM     26  N   UNL     1       7.445   5.546  15.280  0.00  0.00    +0.000 N 
ATOM     27  C   UNL     1       7.021   4.935  14.121  0.00  0.00    +0.000 C 
ATOM     28  C   UNL     1       7.962   5.082  12.955  0.00  0.00    +0.000 C 
ATOM     29  O   UNL     1       5.960   4.321  14.027  0.00  0.00    +0.000 OA
ATOM     30  H   UNL     1       8.384   5.928  15.327  0.00  0.00    +0.000 HD
ENDBRANCH  25  26
BRANCH  25  31
ATOM     31  C   UNL     1       7.655   5.098  17.652  0.00  0.00    +0.000 C 
ATOM     32  O   UNL     1       8.341   4.082  17.667  0.00  0.00    +0.000 OA
BRANCH  31  34
ATOM     33  C   UNL     1       8.128   5.525  19.900  0.00  0.00    +0.000 C 
ATOM     34  O   UNL     1       7.621   6.016  18.656  0.00  0.00    +0.000 OA
ENDBRANCH  31  34
ENDBRANCH  25  31
ENDBRANCH  24  25
ENDBRANCH  23  24
ENDBRANCH   1  23
TORSDOF 10
ENDMDL
MODEL 5
REMARK VINA RESULT:      -7.4      1.310      2.711
REMARK  Name = 
REMARK  12 active torsions:
REMARK  status: ('A' for Active; 'I' for Inactive)
REMARK    1  A    between atoms: C_1  and  O_2
REMARK    2  A    between atoms: O_2  and  C_3
REMARK    3  A    between atoms: C_3  and  C_5
REMARK    4  A    between atoms: C_5  and  C_6
REMARK    5  A    between atoms: C_5  and  N_28
REMARK    6  A    between atoms: C_6  and  S_7
REMARK    7  A    between atoms: S_7  and  C_8
REMARK    8  A    between atoms: C_11  and  C_12
REMARK    9  A    between atoms: C_12  and  O_14
REMARK   10  A    between atoms: C_21  and  C_22
REMARK   11  A    between atoms: C_22  and  O_24
REMARK   12  A    between atoms: C_29  and  C_30
REMARK                            x       y       z     vdW  Elec       q    Type
REMARK                         _______ _______ _______ _____ _____    ______ ____
ROOT
ATOM      1  C   UNL     1       3.547   3.858  17.837  0.00  0.00    +0.000 A 
ATOM      2  C   UNL     1       3.800   2.544  18.250  0.00  0.00    +0.000 A 
ATOM      3  C   UNL     1       3.404   2.124  19.511  0.00  0.00    +0.000 A 
ATOM      4  C   UNL     1       2.731   3.009  20.359  0.00  0.00    +0.000 A 
ATOM      5  C   UNL     1       2.495   4.331  19.973  0.00  0.00    +0.000 A 
ATOM      6  N   UNL     1       1.855   5.166  20.824  0.00  0.00    +0.000 NA
ATOM      7  C   UNL     1       1.668   6.447  20.479  0.00  0.00    +0.000 A 
ATOM      8  C   UNL     1       1.032   7.269  21.396  0.00  0.00    +0.000 A 
ATOM      9  C   UNL     1       0.839   8.620  21.139  0.00  0.00    +0.000 A 
ATOM     10  C   UNL     1       1.291   9.143  19.938  0.00  0.00    +0.000 A 
ATOM     11  C   UNL     1       1.917   8.313  18.989  0.00  0.00    +0.000 A 
ATOM     12  C   UNL     1       2.111   6.946  19.243  0.00  0.00    +0.000 A 
ATOM     13  N   UNL     1       2.719   6.097  18.359  0.00  0.00    +0.000 NA
ATOM     14  C   UNL     1       2.923   4.786  18.703  0.00  0.00    +0.000 A 
ENDROOT
BRANCH   4  15
ATOM     15  C   UNL     1       2.284   2.459  21.676  0.00  0.00    +0.000 C 
ATOM     16  O   UNL     1       1.152   2.645  22.096  0.00  0.00    +0.000 OA
BRANCH  15  17
ATOM     17  O   UNL     1       3.197   1.764  22.383  0.00  0.00    +0.000 OA
ATOM     18  H   UNL     1       3.758   1.181  21.820  0.00  0.00    +0.000 HD
ENDBRANCH  15  17
ENDBRANCH   4  15
BRANCH  11  19
ATOM     19  C   UNL     1       2.371   8.964  17.728  0.00  0.00    +0.000 C 
ATOM     20  O   UNL     1       2.046  10.105  17.438  0.00  0.00    +0.000 OA
BRANCH  19  21
ATOM     21  O   UNL     1       3.151   8.213  16.923  0.00  0.00    +0.000 OA
ATOM     22  H   UNL     1       4.112   8.309  17.126  0.00  0.00    +0.000 HD
ENDBRANCH  19  21
ENDBRANCH  11  19
BRANCH   1  23
ATOM     23  S   UNL     1       3.914   4.202  16.103  0.00  0.00    +0.000 S 
BRANCH  23  24
ATOM     24  C   UNL     1       5.743   4.159  16.095  0.00  0.00    +0.000 C 
BRANCH  24  25
ATOM     25  C   UNL     1       6.380   5.404  15.441  0.00  0.00    +0.000 C 
BRANCH  25  26
ATOM     26  N   UNL     1       7.340   6.074  16.323  0.00  0.00    +0.000 N 
ATOM     27  C   UNL     1       6.936   7.000  17.258  0.00  0.00    +0.000 C 
ATOM     28  C   UNL     1       8.059   7.642  18.030  0.00  0.00    +0.000 C 
ATOM     29  O   UNL     1       5.759   7.286  17.464  0.00  0.00    +0.000 OA
ATOM     30  H   UNL     1       8.329   5.975  16.114  0.00  0.00    +0.000 HD
ENDBRANCH  25  26
BRANCH  25  31
ATOM     31  C   UNL     1       7.135   4.922  14.200  0.00  0.00    +0.000 C 
ATOM     32  O   UNL     1       8.035   5.559  13.663  0.00  0.00    +0.000 OA
BRANCH  31  34
ATOM     33  C   UNL     1       6.544   3.686  12.308  0.00  0.00    +0.000 C 
ATOM     34  O   UNL     1       6.648   3.741  13.734  0.00  0.00    +0.000 OA
ENDBRANCH  31  34
ENDBRANCH  25  31
ENDBRANCH  24  25
ENDBRANCH  23  24
ENDBRANCH   1  23
TORSDOF 10
ENDMDL
MODEL 6
REMARK VINA RESULT:      -7.4      1.983      4.615
REMARK  Name = 
REMARK  12 active torsions:
REMARK  status: ('A' for Active; 'I' for Inactive)
REMARK    1  A    between atoms: C_1  and  O_2
REMARK    2  A    between atoms: O_2  and  C_3
REMARK    3  A    between atoms: C_3  and  C_5
REMARK    4  A    between atoms: C_5  and  C_6
REMARK    5  A    between atoms: C_5  and  N_28
REMARK    6  A    between atoms: C_6  and  S_7
REMARK    7  A    between atoms: S_7  and  C_8
REMARK    8  A    between atoms: C_11  and  C_12
REMARK    9  A    between atoms: C_12  and  O_14
REMARK   10  A    between atoms: C_21  and  C_22
REMARK   11  A    between atoms: C_22  and  O_24
REMARK   12  A    between atoms: C_29  and  C_30
REMARK                            x       y       z     vdW  Elec       q    Type
REMARK                         _______ _______ _______ _____ _____    ______ ____
ROOT
ATOM      1  C   UNL     1       3.399   7.087  17.579  0.00  0.00    +0.000 A 
ATOM      2  C   UNL     1       3.087   8.451  17.627  0.00  0.00    +0.000 A 
ATOM      3  C   UNL     1       2.312   8.950  18.663  0.00  0.00    +0.000 A 
ATOM      4  C   UNL     1       1.864   8.092  19.672  0.00  0.00    +0.000 A 
ATOM      5  C   UNL     1       2.143   6.724  19.624  0.00  0.00    +0.000 A 
ATOM      6  N   UNL     1       1.680   5.918  20.609  0.00  0.00    +0.000 NA
ATOM      7  C   UNL     1       1.905   4.599  20.544  0.00  0.00    +0.000 A 
ATOM      8  C   UNL     1       1.387   3.813  21.562  0.00  0.00    +0.000 A 
ATOM      9  C   UNL     1       1.533   2.432  21.549  0.00  0.00    +0.000 A 
ATOM     10  C   UNL     1       2.214   1.841  20.497  0.00  0.00    +0.000 A 
ATOM     11  C   UNL     1       2.764   2.631  19.471  0.00  0.00    +0.000 A 
ATOM     12  C   UNL     1       2.623   4.028  19.480  0.00  0.00    +0.000 A 
ATOM     13  N   UNL     1       3.132   4.842  18.506  0.00  0.00    +0.000 NA
ATOM     14  C   UNL     1       2.904   6.192  18.556  0.00  0.00    +0.000 A 
ENDROOT
BRANCH   4  15
ATOM     15  C   UNL     1       1.087   8.720  20.785  0.00  0.00    +0.000 C 
ATOM     16  O   UNL     1       0.016   9.273  20.585  0.00  0.00    +0.000 OA
BRANCH  15  17
ATOM     17  O   UNL     1       1.634   8.662  22.014  0.00  0.00    +0.000 OA
ATOM     18  H   UNL     1       2.358   7.996  22.083  0.00  0.00    +0.000 HD
ENDBRANCH  15  17
ENDBRANCH   4  15
BRANCH  11  19
ATOM     19  C   UNL     1       3.478   1.908  18.380  0.00  0.00    +0.000 C 
ATOM     20  O   UNL     1       4.171   0.927  18.603  0.00  0.00    +0.000 OA
BRANCH  19  21
ATOM     21  O   UNL     1       3.323   2.410  17.138  0.00  0.00    +0.000 OA
ATOM     22  H   UNL     1       4.129   2.301  16.580  0.00  0.00    +0.000 HD
ENDBRANCH  19  21
ENDBRANCH  11  19
BRANCH   1  23
ATOM     23  S   UNL     1       4.592   6.617  16.308  0.00  0.00    +0.000 S 
BRANCH  23  24
ATOM     24  C   UNL     1       5.552   5.315  17.163  0.00  0.00    +0.000 C 
BRANCH  24  25
ATOM     25  C   UNL     1       7.066   5.380  16.868  0.00  0.00    +0.000 C 
BRANCH  25  26
ATOM     26  N   UNL     1       7.354   5.671  15.460  0.00  0.00    +0.000 N 
ATOM     27  C   UNL     1       7.067   4.766  14.464  0.00  0.00    +0.000 C 
ATOM     28  C   UNL     1       7.492   5.197  13.085  0.00  0.00    +0.000 C 
ATOM     29  O   UNL     1       6.504   3.692  14.665  0.00  0.00    +0.000 OA
ATOM     30  H   UNL     1       7.930   6.480  15.248  0.00  0.00    +0.000 HD
ENDBRANCH  25  26
BRANCH  25  31
ATOM     31  C   UNL     1       7.638   6.521  17.712  0.00  0.00    +0.000 C 
ATOM     32  O   UNL     1       7.888   6.421  18.908  0.00  0.00    +0.000 OA
BRANCH  31  34
ATOM     33  C   UNL     1       7.999   8.828  17.800  0.00  0.00    +0.000 C 
ATOM     34  O   UNL     1       7.774   7.668  16.993  0.00  0.00    +0.000 OA
ENDBRANCH  31  34
ENDBRANCH  25  31
ENDBRANCH  24  25
ENDBRANCH  23  24
ENDBRANCH   1  23
TORSDOF 10
ENDMDL
MODEL 7
REMARK VINA RESULT:      -7.3      2.205      7.547
REMARK  Name = 
REMARK  12 active torsions:
REMARK  status: ('A' for Active; 'I' for Inactive)
REMARK    1  A    between atoms: C_1  and  O_2
REMARK    2  A    between atoms: O_2  and  C_3
REMARK    3  A    between atoms: C_3  and  C_5
REMARK    4  A    between atoms: C_5  and  C_6
REMARK    5  A    between atoms: C_5  and  N_28
REMARK    6  A    between atoms: C_6  and  S_7
REMARK    7  A    between atoms: S_7  and  C_8
REMARK    8  A    between atoms: C_11  and  C_12
REMARK    9  A    between atoms: C_12  and  O_14
REMARK   10  A    between atoms: C_21  and  C_22
REMARK   11  A    between atoms: C_22  and  O_24
REMARK   12  A    between atoms: C_29  and  C_30
REMARK                            x       y       z     vdW  Elec       q    Type
REMARK                         _______ _______ _______ _____ _____    ______ ____
ROOT
ATOM      1  C   UNL     1       4.517   3.593  17.389  0.00  0.00    +0.000 A 
ATOM      2  C   UNL     1       4.705   3.839  18.755  0.00  0.00    +0.000 A 
ATOM      3  C   UNL     1       5.789   4.593  19.181  0.00  0.00    +0.000 A 
ATOM      4  C   UNL     1       6.678   5.126  18.243  0.00  0.00    +0.000 A 
ATOM      5  C   UNL     1       6.519   4.866  16.879  0.00  0.00    +0.000 A 
ATOM      6  N   UNL     1       7.407   5.384  15.998  0.00  0.00    +0.000 NA
ATOM      7  C   UNL     1       7.288   5.100  14.694  0.00  0.00    +0.000 A 
ATOM      8  C   UNL     1       8.238   5.631  13.836  0.00  0.00    +0.000 A 
ATOM      9  C   UNL     1       8.216   5.349  12.476  0.00  0.00    +0.000 A 
ATOM     10  C   UNL     1       7.220   4.525  11.980  0.00  0.00    +0.000 A 
ATOM     11  C   UNL     1       6.236   3.999  12.838  0.00  0.00    +0.000 A 
ATOM     12  C   UNL     1       6.251   4.283  14.213  0.00  0.00    +0.000 A 
ATOM     13  N   UNL     1       5.324   3.794  15.092  0.00  0.00    +0.000 NA
ATOM     14  C   UNL     1       5.439   4.070  16.429  0.00  0.00    +0.000 A 
ENDROOT
BRANCH   4  15
ATOM     15  C   UNL     1       7.783   5.978  18.781  0.00  0.00    +0.000 C 
ATOM     16  O   UNL     1       8.487   5.603  19.706  0.00  0.00    +0.000 OA
BRANCH  15  17
ATOM     17  O   UNL     1       7.952   7.184  18.206  0.00  0.00    +0.000 OA
ATOM     18  H   UNL     1       8.873   7.525  18.288  0.00  0.00    +0.000 HD
ENDBRANCH  15  17
ENDBRANCH   4  15
BRANCH  11  19
ATOM     19  C   UNL     1       5.206   3.121  12.215  0.00  0.00    +0.000 C 
ATOM     20  O   UNL     1       4.064   3.508  12.015  0.00  0.00    +0.000 OA
BRANCH  19  21
ATOM     21  O   UNL     1       5.605   1.872  11.900  0.00  0.00    +0.000 OA
ATOM     22  H   UNL     1       6.587   1.783  11.868  0.00  0.00    +0.000 HD
ENDBRANCH  19  21
ENDBRANCH  11  19
BRANCH   1  23
ATOM     23  S   UNL     1       2.955   2.793  16.962  0.00  0.00    +0.000 S 
BRANCH  23  24
ATOM     24  C   UNL     1       1.742   4.090  17.400  0.00  0.00    +0.000 C 
BRANCH  24  25
ATOM     25  C   UNL     1       2.246   5.052  18.499  0.00  0.00    +0.000 C 
BRANCH  25  26
ATOM     26  N   UNL     1       1.849   6.442  18.256  0.00  0.00    +0.000 N 
ATOM     27  C   UNL     1       2.766   7.398  17.882  0.00  0.00    +0.000 C 
ATOM     28  C   UNL     1       2.201   8.788  17.744  0.00  0.00    +0.000 C 
ATOM     29  O   UNL     1       3.952   7.154  17.670  0.00  0.00    +0.000 OA
ATOM     30  H   UNL     1       0.917   6.729  18.538  0.00  0.00    +0.000 HD
ENDBRANCH  25  26
BRANCH  25  31
ATOM     31  C   UNL     1       1.606   4.602  19.815  0.00  0.00    +0.000 C 
ATOM     32  O   UNL     1       1.585   5.291  20.829  0.00  0.00    +0.000 OA
BRANCH  31  34
ATOM     33  C   UNL     1       1.668   2.454  20.730  0.00  0.00    +0.000 C 
ATOM     34  O   UNL     1       1.125   3.332  19.740  0.00  0.00    +0.000 OA
ENDBRANCH  31  34
ENDBRANCH  25  31
ENDBRANCH  24  25
ENDBRANCH  23  24
ENDBRANCH   1  23
TORSDOF 10
ENDMDL
MODEL 8
REMARK VINA RESULT:      -7.2      6.325     10.067
REMARK  Name = 
REMARK  12 active torsions:
REMARK  status: ('A' for Active; 'I' for Inactive)
REMARK    1  A    between atoms: C_1  and  O_2
REMARK    2  A    between atoms: O_2  and  C_3
REMARK    3  A    between atoms: C_3  and  C_5
REMARK    4  A    between atoms: C_5  and  C_6
REMARK    5  A    between atoms: C_5  and  N_28
REMARK    6  A    between atoms: C_6  and  S_7
REMARK    7  A    between atoms: S_7  and  C_8
REMARK    8  A    between atoms: C_11  and  C_12
REMARK    9  A    between atoms: C_12  and  O_14
REMARK   10  A    between atoms: C_21  and  C_22
REMARK   11  A    between atoms: C_22  and  O_24
REMARK   12  A    between atoms: C_29  and  C_30
REMARK                            x       y       z     vdW  Elec       q    Type
REMARK                         _______ _______ _______ _____ _____    ______ ____
ROOT
ATOM      1  C   UNL     1      -2.610  13.168  22.571  0.00  0.00    +0.000 A 
ATOM      2  C   UNL     1      -2.926  13.657  23.846  0.00  0.00    +0.000 A 
ATOM      3  C   UNL     1      -4.252  13.755  24.242  0.00  0.00    +0.000 A 
ATOM      4  C   UNL     1      -5.269  13.342  23.376  0.00  0.00    +0.000 A 
ATOM      5  C   UNL     1      -4.972  12.878  22.092  0.00  0.00    +0.000 A 
ATOM      6  N   UNL     1      -5.982  12.502  21.273  0.00  0.00    +0.000 NA
ATOM      7  C   UNL     1      -5.707  12.101  20.025  0.00  0.00    +0.000 A 
ATOM      8  C   UNL     1      -6.777  11.752  19.216  0.00  0.00    +0.000 A 
ATOM      9  C   UNL     1      -6.585  11.370  17.895  0.00  0.00    +0.000 A 
ATOM     10  C   UNL     1      -5.296  11.336  17.388  0.00  0.00    +0.000 A 
ATOM     11  C   UNL     1      -4.200  11.666  18.207  0.00  0.00    +0.000 A 
ATOM     12  C   UNL     1      -4.387  12.049  19.545  0.00  0.00    +0.000 A 
ATOM     13  N   UNL     1      -3.359  12.385  20.381  0.00  0.00    +0.000 NA
ATOM     14  C   UNL     1      -3.627  12.804  21.659  0.00  0.00    +0.000 A 
ENDROOT
BRANCH   4  15
ATOM     15  C   UNL     1      -6.666  13.423  23.904  0.00  0.00    +0.000 C 
ATOM     16  O   UNL     1      -7.180  14.492  24.195  0.00  0.00    +0.000 OA
BRANCH  15  17
ATOM     17  O   UNL     1      -7.324  12.257  24.058  0.00  0.00    +0.000 OA
ATOM     18  H   UNL     1      -8.295  12.374  24.171  0.00  0.00    +0.000 HD
ENDBRANCH  15  17
ENDBRANCH   4  15
BRANCH  11  19
ATOM     19  C   UNL     1      -2.852  11.602  17.576  0.00  0.00    +0.000 C 
ATOM     20  O   UNL     1      -2.553  10.728  16.777  0.00  0.00    +0.000 OA
BRANCH  19  21
ATOM     21  O   UNL     1      -1.978  12.560  17.950  0.00  0.00    +0.000 OA
ATOM     22  H   UNL     1      -2.146  13.423  17.503  0.00  0.00    +0.000 HD
ENDBRANCH  19  21
ENDBRANCH  11  19
BRANCH   1  23
ATOM     23  S   UNL     1      -0.852  12.886  22.273  0.00  0.00    +0.000 S 
BRANCH  23  24
ATOM     24  C   UNL     1      -0.733  11.069  22.447  0.00  0.00    +0.000 C 
BRANCH  24  25
ATOM     25  C   UNL     1       0.051  10.396  21.299  0.00  0.00    +0.000 C 
BRANCH  25  26
ATOM     26  N   UNL     1       0.914  11.337  20.579  0.00  0.00    +0.000 N 
ATOM     27  C   UNL     1       1.012  11.319  19.206  0.00  0.00    +0.000 C 
ATOM     28  C   UNL     1       1.997  12.306  18.636  0.00  0.00    +0.000 C 
ATOM     29  O   UNL     1       0.353  10.570  18.488  0.00  0.00    +0.000 OA
ATOM     30  H   UNL     1       1.574  11.888  21.119  0.00  0.00    +0.000 HD
ENDBRANCH  25  26
BRANCH  25  31
ATOM     31  C   UNL     1       0.945   9.327  21.933  0.00  0.00    +0.000 C 
ATOM     32  O   UNL     1       1.755   9.562  22.823  0.00  0.00    +0.000 OA
BRANCH  31  34
ATOM     33  C   UNL     1       1.740   7.823  20.333  0.00  0.00    +0.000 C 
ATOM     34  O   UNL     1       0.776   8.110  21.350  0.00  0.00    +0.000 OA
ENDBRANCH  31  34
ENDBRANCH  25  31
ENDBRANCH  24  25
ENDBRANCH  23  24
ENDBRANCH   1  23
TORSDOF 10
ENDMDL
MODEL 9
REMARK VINA RESULT:      -7.1      1.375      1.932
REMARK  Name = 
REMARK  12 active torsions:
REMARK  status: ('A' for Active; 'I' for Inactive)
REMARK    1  A    between atoms: C_1  and  O_2
REMARK    2  A    between atoms: O_2  and  C_3
REMARK    3  A    between atoms: C_3  and  C_5
REMARK    4  A    between atoms: C_5  and  C_6
REMARK    5  A    between atoms: C_5  and  N_28
REMARK    6  A    between atoms: C_6  and  S_7
REMARK    7  A    between atoms: S_7  and  C_8
REMARK    8  A    between atoms: C_11  and  C_12
REMARK    9  A    between atoms: C_12  and  O_14
REMARK   10  A    between atoms: C_21  and  C_22
REMARK   11  A    between atoms: C_22  and  O_24
REMARK   12  A    between atoms: C_29  and  C_30
REMARK                            x       y       z     vdW  Elec       q    Type
REMARK                         _______ _______ _______ _____ _____    ______ ____
ROOT
ATOM      1  C   UNL     1       3.910   4.487  17.899  0.00  0.00    +0.000 A 
ATOM      2  C   UNL     1       4.225   3.171  18.264  0.00  0.00    +0.000 A 
ATOM      3  C   UNL     1       3.713   2.635  19.435  0.00  0.00    +0.000 A 
ATOM      4  C   UNL     1       2.862   3.401  20.238  0.00  0.00    +0.000 A 
ATOM      5  C   UNL     1       2.560   4.723  19.902  0.00  0.00    +0.000 A 
ATOM      6  N   UNL     1       1.746   5.443  20.710  0.00  0.00    +0.000 NA
ATOM      7  C   UNL     1       1.491   6.726  20.419  0.00  0.00    +0.000 A 
ATOM      8  C   UNL     1       0.674   7.428  21.291  0.00  0.00    +0.000 A 
ATOM      9  C   UNL     1       0.396   8.773  21.090  0.00  0.00    +0.000 A 
ATOM     10  C   UNL     1       0.947   9.414  19.992  0.00  0.00    +0.000 A 
ATOM     11  C   UNL     1       1.759   8.705  19.086  0.00  0.00    +0.000 A 
ATOM     12  C   UNL     1       2.040   7.343  19.282  0.00  0.00    +0.000 A 
ATOM     13  N   UNL     1       2.827   6.610  18.438  0.00  0.00    +0.000 NA
ATOM     14  C   UNL     1       3.102   5.299  18.728  0.00  0.00    +0.000 A 
ENDROOT
BRANCH   4  15
ATOM     15  C   UNL     1       2.304   2.727  21.451  0.00  0.00    +0.000 C 
ATOM     16  O   UNL     1       3.026   2.164  22.259  0.00  0.00    +0.000 OA
BRANCH  15  17
ATOM     17  O   UNL     1       0.965   2.758  21.598  0.00  0.00    +0.000 OA
ATOM     18  H   UNL     1       0.606   3.672  21.671  0.00  0.00    +0.000 HD
ENDBRANCH  15  17
ENDBRANCH   4  15
BRANCH  11  19
ATOM     19  C   UNL     1       2.308   9.476  17.936  0.00  0.00    +0.000 C 
ATOM     20  O   UNL     1       2.946   8.938  17.044  0.00  0.00    +0.000 OA
BRANCH  19  21
ATOM     21  O   UNL     1       2.069  10.804  17.946  0.00  0.00    +0.000 OA
ATOM     22  H   UNL     1       2.785  11.316  18.391  0.00  0.00    +0.000 HD
ENDBRANCH  19  21
ENDBRANCH  11  19
BRANCH   1  23
ATOM     23  S   UNL     1       4.459   4.978  16.251  0.00  0.00    +0.000 S 
BRANCH  23  24
ATOM     24  C   UNL     1       5.782   3.758  15.922  0.00  0.00    +0.000 C 
BRANCH  24  25
ATOM     25  C   UNL     1       6.341   3.835  14.484  0.00  0.00    +0.000 C 
BRANCH  25  26
ATOM     26  N   UNL     1       5.283   3.929  13.474  0.00  0.00    +0.000 N 
ATOM     27  C   UNL     1       5.370   3.260  12.274  0.00  0.00    +0.000 C 
ATOM     28  C   UNL     1       4.230   3.525  11.325  0.00  0.00    +0.000 C 
ATOM     29  O   UNL     1       6.292   2.500  11.987  0.00  0.00    +0.000 OA
ATOM     30  H   UNL     1       4.565   4.636  13.599  0.00  0.00    +0.000 HD
ENDBRANCH  25  26
BRANCH  25  31
ATOM     31  C   UNL     1       7.188   5.106  14.400  0.00  0.00    +0.000 C 
ATOM     32  O   UNL     1       7.657   5.675  15.380  0.00  0.00    +0.000 OA
BRANCH  31  34
ATOM     33  C   UNL     1       8.645   5.872  12.743  0.00  0.00    +0.000 C 
ATOM     34  O   UNL     1       7.302   5.559  13.122  0.00  0.00    +0.000 OA
ENDBRANCH  31  34
ENDBRANCH  25  31
ENDBRANCH  24  25
ENDBRANCH  23  24
ENDBRANCH   1  23
TORSDOF 10
ENDMDL
