MODEL 1
REMARK VINA RESULT:      -6.2      0.000      0.000
REMARK  Name = 
REMARK  7 active torsions:
REMARK  status: ('A' for Active; 'I' for Inactive)
REMARK    1  A    between atoms: C_1  and  C_2
REMARK    2  A    between atoms: C_2  and  C_3
REMARK    3  A    between atoms: C_3  and  N_4
REMARK    4  A    between atoms: N_4  and  C_5
REMARK    5  A    between atoms: N_4  and  C_8
REMARK    6  A    between atoms: C_5  and  C_6
REMARK    7  A    between atoms: C_6  and  C_7
REMARK                            x       y       z     vdW  Elec       q    Type
REMARK                         _______ _______ _______ _____ _____    ______ ____
ROOT
ATOM      1  C   UNL     1       4.174   3.433  17.974  0.00  0.00    +0.000 C 
ATOM      2  C   UNL     1       2.821   3.348  17.191  0.00  0.00    +0.000 C 
ATOM      3  C   UNL     1       1.643   3.960  17.979  0.00  0.00    +0.000 C 
ATOM      4  C   UNL     1       1.640   3.451  19.375  0.00  0.00    +0.000 A 
ATOM      5  N   UNL     1       0.595   3.545  20.200  0.00  0.00    +0.000 NA
ATOM      6  N   UNL     1       1.043   2.976  21.335  0.00  0.00    +0.000 N 
ATOM      7  C   UNL     1       2.320   2.501  21.244  0.00  0.00    +0.000 A 
ATOM      8  C   UNL     1       2.745   2.811  19.977  0.00  0.00    +0.000 A 
ATOM      9  C   UNL     1       4.016   2.537  19.256  0.00  0.00    +0.000 C 
ATOM     10  H   UNL     1       0.415   2.936  22.129  0.00  0.00    +0.000 HD
ENDROOT
BRANCH   1  11
ATOM     11  N   UNL     1       4.606   4.852  18.201  0.00  0.00    +0.000 NA
BRANCH  11  12
ATOM     12  C   UNL     1       5.816   4.950  19.042  0.00  0.00    +0.000 C 
BRANCH  12  14
ATOM     13  C   UNL     1       7.879   6.433  18.714  0.00  0.00    +0.000 C 
ATOM     14  C   UNL     1       7.155   5.156  18.309  0.00  0.00    +0.000 C 
ENDBRANCH  12  14
ENDBRANCH  11  12
BRANCH  11  15
ATOM     15  C   UNL     1       4.736   5.618  16.938  0.00  0.00    +0.000 C 
BRANCH  15  16
ATOM     16  C   UNL     1       4.346   7.103  17.012  0.00  0.00    +0.000 C 
ATOM     17  C   UNL     1       3.171   7.337  17.950  0.00  0.00    +0.000 C 
ENDBRANCH  15  16
ENDBRANCH  11  15
ENDBRANCH   1  11
TORSDOF 5
ENDMDL
MODEL 2
REMARK VINA RESULT:      -6.1      1.119      1.719
REMARK  Name = 
REMARK  7 active torsions:
REMARK  status: ('A' for Active; 'I' for Inactive)
REMARK    1  A    between atoms: C_1  and  C_2
REMARK    2  A    between atoms: C_2  and  C_3
REMARK    3  A    between atoms: C_3  and  N_4
REMARK    4  A    between atoms: N_4  and  C_5
REMARK    5  A    between atoms: N_4  and  C_8
REMARK    6  A    between atoms: C_5  and  C_6
REMARK    7  A    between atoms: C_6  and  C_7
REMARK                            x       y       z     vdW  Elec       q    Type
REMARK                         _______ _______ _______ _____ _____    ______ ____
ROOT
ATOM      1  C   UNL     1       3.892   3.041  17.684  0.00  0.00    +0.000 C 
ATOM      2  C   UNL     1       2.462   3.212  17.071  0.00  0.00    +0.000 C 
ATOM      3  C   UNL     1       1.533   4.059  17.967  0.00  0.00    +0.000 C 
ATOM      4  C   UNL     1       1.605   3.585  19.374  0.00  0.00    +0.000 A 
ATOM      5  N   UNL     1       0.709   3.899  20.312  0.00  0.00    +0.000 NA
ATOM      6  N   UNL     1       1.175   3.272  21.409  0.00  0.00    +0.000 N 
ATOM      7  C   UNL     1       2.314   2.552  21.188  0.00  0.00    +0.000 A 
ATOM      8  C   UNL     1       2.631   2.750  19.867  0.00  0.00    +0.000 A 
ATOM      9  C   UNL     1       3.724   2.217  19.013  0.00  0.00    +0.000 C 
ATOM     10  H   UNL     1       0.656   3.372  22.273  0.00  0.00    +0.000 HD
ENDROOT
BRANCH   1  11
ATOM     11  N   UNL     1       4.616   4.351  17.799  0.00  0.00    +0.000 NA
BRANCH  11  12
ATOM     12  C   UNL     1       5.833   4.256  18.631  0.00  0.00    +0.000 C 
BRANCH  12  14
ATOM     13  C   UNL     1       7.746   5.955  18.757  0.00  0.00    +0.000 C 
ATOM     14  C   UNL     1       6.357   5.568  19.246  0.00  0.00    +0.000 C 
ENDBRANCH  12  14
ENDBRANCH  11  12
BRANCH  11  15
ATOM     15  C   UNL     1       4.885   4.972  16.480  0.00  0.00    +0.000 C 
BRANCH  15  16
ATOM     16  C   UNL     1       5.672   4.109  15.480  0.00  0.00    +0.000 C 
ATOM     17  C   UNL     1       6.997   4.749  15.097  0.00  0.00    +0.000 C 
ENDBRANCH  15  16
ENDBRANCH  11  15
ENDBRANCH   1  11
TORSDOF 5
ENDMDL
MODEL 3
REMARK VINA RESULT:      -6.1      2.111      3.509
REMARK  Name = 
REMARK  7 active torsions:
REMARK  status: ('A' for Active; 'I' for Inactive)
REMARK    1  A    between atoms: C_1  and  C_2
REMARK    2  A    between atoms: C_2  and  C_3
REMARK    3  A    between atoms: C_3  and  N_4
REMARK    4  A    between atoms: N_4  and  C_5
REMARK    5  A    between atoms: N_4  and  C_8
REMARK    6  A    between atoms: C_5  and  C_6
REMARK    7  A    between atoms: C_6  and  C_7
REMARK                            x       y       z     vdW  Elec       q    Type
REMARK                         _______ _______ _______ _____ _____    ______ ____
ROOT
ATOM      1  C   UNL     1       3.851   5.504  17.390  0.00  0.00    +0.000 C 
ATOM      2  C   UNL     1       3.829   5.782  18.930  0.00  0.00    +0.000 C 
ATOM      3  C   UNL     1       4.694   4.779  19.723  0.00  0.00    +0.000 C 
ATOM      4  C   UNL     1       4.396   3.389  19.290  0.00  0.00    +0.000 A 
ATOM      5  N   UNL     1       4.742   2.303  19.983  0.00  0.00    +0.000 NA
ATOM      6  N   UNL     1       4.290   1.289  19.220  0.00  0.00    +0.000 N 
ATOM      7  C   UNL     1       3.647   1.700  18.087  0.00  0.00    +0.000 A 
ATOM      8  C   UNL     1       3.714   3.071  18.095  0.00  0.00    +0.000 A 
ATOM      9  C   UNL     1       3.178   4.101  17.168  0.00  0.00    +0.000 C 
ATOM     10  H   UNL     1       4.447   0.342  19.542  0.00  0.00    +0.000 HD
ENDROOT
BRANCH   1  11
ATOM     11  N   UNL     1       5.221   5.687  16.805  0.00  0.00    +0.000 NA
BRANCH  11  12
ATOM     12  C   UNL     1       5.285   5.306  15.379  0.00  0.00    +0.000 C 
BRANCH  12  14
ATOM     13  C   UNL     1       6.247   3.813  13.533  0.00  0.00    +0.000 C 
ATOM     14  C   UNL     1       6.123   4.061  15.030  0.00  0.00    +0.000 C 
ENDBRANCH  12  14
ENDBRANCH  11  12
BRANCH  11  15
ATOM     15  C   UNL     1       5.771   7.042  17.049  0.00  0.00    +0.000 C 
BRANCH  15  16
ATOM     16  C   UNL     1       7.239   7.098  17.502  0.00  0.00    +0.000 C 
ATOM     17  C   UNL     1       7.671   5.813  18.191  0.00  0.00    +0.000 C 
ENDBRANCH  15  16
ENDBRANCH  11  15
ENDBRANCH   1  11
TORSDOF 5
ENDMDL
MODEL 4
REMARK VINA RESULT:      -6.0      2.013      5.281
REMARK  Name = 
REMARK  7 active torsions:
REMARK  status: ('A' for Active; 'I' for Inactive)
REMARK    1  A    between atoms: C_1  and  C_2
REMARK    2  A    between atoms: C_2  and  C_3
REMARK    3  A    between atoms: C_3  and  N_4
REMARK    4  A    between atoms: N_4  and  C_5
REMARK    5  A    between atoms: N_4  and  C_8
REMARK    6  A    between atoms: C_5  and  C_6
REMARK    7  A    between atoms: C_6  and  C_7
REMARK                            x       y       z     vdW  Elec       q    Type
REMARK                         _______ _______ _______ _____ _____    ______ ____
ROOT
ATOM      1  C   UNL     1       4.263   4.096  18.258  0.00  0.00    +0.000 C 
ATOM      2  C   UNL     1       5.496   4.606  19.076  0.00  0.00    +0.000 C 
ATOM      3  C   UNL     1       6.235   5.763  18.369  0.00  0.00    +0.000 C 
ATOM      4  C   UNL     1       6.473   5.423  16.942  0.00  0.00    +0.000 A 
ATOM      5  N   UNL     1       7.342   6.065  16.159  0.00  0.00    +0.000 NA
ATOM      6  N   UNL     1       7.215   5.439  14.973  0.00  0.00    +0.000 N 
ATOM      7  C   UNL     1       6.319   4.408  14.991  0.00  0.00    +0.000 A 
ATOM      8  C   UNL     1       5.804   4.382  16.263  0.00  0.00    +0.000 A 
ATOM      9  C   UNL     1       4.821   3.482  16.923  0.00  0.00    +0.000 C 
ATOM     10  H   UNL     1       7.780   5.763  14.198  0.00  0.00    +0.000 HD
ENDROOT
BRANCH   1  11
ATOM     11  N   UNL     1       3.205   5.151  18.116  0.00  0.00    +0.000 NA
BRANCH  11  12
ATOM     12  C   UNL     1       1.882   4.588  17.779  0.00  0.00    +0.000 C 
BRANCH  12  14
ATOM     13  C   UNL     1       0.862   3.355  19.780  0.00  0.00    +0.000 C 
ATOM     14  C   UNL     1       1.523   3.230  18.413  0.00  0.00    +0.000 C 
ENDBRANCH  12  14
ENDBRANCH  11  12
BRANCH  11  15
ATOM     15  C   UNL     1       3.146   6.061  19.285  0.00  0.00    +0.000 C 
BRANCH  15  16
ATOM     16  C   UNL     1       2.391   7.383  19.068  0.00  0.00    +0.000 C 
ATOM     17  C   UNL     1       2.844   8.095  17.802  0.00  0.00    +0.000 C 
ENDBRANCH  15  16
ENDBRANCH  11  15
ENDBRANCH   1  11
TORSDOF 5
ENDMDL
MODEL 5
REMARK VINA RESULT:      -6.0      1.931      5.264
REMARK  Name = 
REMARK  7 active torsions:
REMARK  status: ('A' for Active; 'I' for Inactive)
REMARK    1  A    between atoms: C_1  and  C_2
REMARK    2  A    between atoms: C_2  and  C_3
REMARK    3  A    between atoms: C_3  and  N_4
REMARK    4  A    between atoms: N_4  and  C_5
REMARK    5  A    between atoms: N_4  and  C_8
REMARK    6  A    between atoms: C_5  and  C_6
REMARK    7  A    between atoms: C_6  and  C_7
REMARK                            x       y       z     vdW  Elec       q    Type
REMARK                         _______ _______ _______ _____ _____    ______ ____
ROOT
ATOM      1  C   UNL     1       3.727   4.277  18.499  0.00  0.00    +0.000 C 
ATOM      2  C   UNL     1       5.029   3.848  19.255  0.00  0.00    +0.000 C 
ATOM      3  C   UNL     1       6.186   4.848  19.050  0.00  0.00    +0.000 C 
ATOM      4  C   UNL     1       6.329   5.181  17.609  0.00  0.00    +0.000 A 
ATOM      5  N   UNL     1       7.409   5.761  17.082  0.00  0.00    +0.000 NA
ATOM      6  N   UNL     1       7.094   5.879  15.778  0.00  0.00    +0.000 N 
ATOM      7  C   UNL     1       5.868   5.367  15.461  0.00  0.00    +0.000 A 
ATOM      8  C   UNL     1       5.334   4.917  16.642  0.00  0.00    +0.000 A 
ATOM      9  C   UNL     1       4.054   4.231  16.962  0.00  0.00    +0.000 C 
ATOM     10  H   UNL     1       7.771   6.310  15.160  0.00  0.00    +0.000 HD
ENDROOT
BRANCH   1  11
ATOM     11  N   UNL     1       3.169   5.567  19.024  0.00  0.00    +0.000 NA
BRANCH  11  12
ATOM     12  C   UNL     1       2.467   6.348  17.985  0.00  0.00    +0.000 C 
BRANCH  12  14
ATOM     13  C   UNL     1       1.818   8.825  17.942  0.00  0.00    +0.000 C 
ATOM     14  C   UNL     1       2.933   7.801  17.776  0.00  0.00    +0.000 C 
ENDBRANCH  12  14
ENDBRANCH  11  12
BRANCH  11  15
ATOM     15  C   UNL     1       2.342   5.379  20.240  0.00  0.00    +0.000 C 
BRANCH  15  16
ATOM     16  C   UNL     1       1.281   4.269  20.163  0.00  0.00    +0.000 C 
ATOM     17  C   UNL     1       1.488   3.210  21.235  0.00  0.00    +0.000 C 
ENDBRANCH  15  16
ENDBRANCH  11  15
ENDBRANCH   1  11
TORSDOF 5
ENDMDL
MODEL 6
REMARK VINA RESULT:      -6.0      1.480      2.816
REMARK  Name = 
REMARK  7 active torsions:
REMARK  status: ('A' for Active; 'I' for Inactive)
REMARK    1  A    between atoms: C_1  and  C_2
REMARK    2  A    between atoms: C_2  and  C_3
REMARK    3  A    between atoms: C_3  and  N_4
REMARK    4  A    between atoms: N_4  and  C_5
REMARK    5  A    between atoms: N_4  and  C_8
REMARK    6  A    between atoms: C_5  and  C_6
REMARK    7  A    between atoms: C_6  and  C_7
REMARK                            x       y       z     vdW  Elec       q    Type
REMARK                         _______ _______ _______ _____ _____    ______ ____
ROOT
ATOM      1  C   UNL     1       3.097   5.364  17.644  0.00  0.00    +0.000 C 
ATOM      2  C   UNL     1       2.736   6.368  18.789  0.00  0.00    +0.000 C 
ATOM      3  C   UNL     1       2.686   5.689  20.175  0.00  0.00    +0.000 C 
ATOM      4  C   UNL     1       1.887   4.438  20.106  0.00  0.00    +0.000 A 
ATOM      5  N   UNL     1       1.408   3.801  21.176  0.00  0.00    +0.000 NA
ATOM      6  N   UNL     1       0.775   2.736  20.646  0.00  0.00    +0.000 N 
ATOM      7  C   UNL     1       0.815   2.698  19.281  0.00  0.00    +0.000 A 
ATOM      8  C   UNL     1       1.550   3.790  18.897  0.00  0.00    +0.000 A 
ATOM      9  C   UNL     1       1.922   4.323  17.560  0.00  0.00    +0.000 C 
ATOM     10  H   UNL     1       0.328   2.084  21.278  0.00  0.00    +0.000 HD
ENDROOT
BRANCH   1  11
ATOM     11  N   UNL     1       4.478   4.799  17.805  0.00  0.00    +0.000 NA
BRANCH  11  12
ATOM     12  C   UNL     1       4.896   3.980  16.648  0.00  0.00    +0.000 C 
BRANCH  12  14
ATOM     13  C   UNL     1       6.832   4.498  15.054  0.00  0.00    +0.000 C 
ATOM     14  C   UNL     1       5.368   4.740  15.394  0.00  0.00    +0.000 C 
ENDBRANCH  12  14
ENDBRANCH  11  12
BRANCH  11  15
ATOM     15  C   UNL     1       5.482   5.833  18.152  0.00  0.00    +0.000 C 
BRANCH  15  16
ATOM     16  C   UNL     1       6.490   5.449  19.247  0.00  0.00    +0.000 C 
ATOM     17  C   UNL     1       7.885   5.974  18.944  0.00  0.00    +0.000 C 
ENDBRANCH  15  16
ENDBRANCH  11  15
ENDBRANCH   1  11
TORSDOF 5
ENDMDL
MODEL 7
REMARK VINA RESULT:      -5.9      1.696      5.218
REMARK  Name = 
REMARK  7 active torsions:
REMARK  status: ('A' for Active; 'I' for Inactive)
REMARK    1  A    between atoms: C_1  and  C_2
REMARK    2  A    between atoms: C_2  and  C_3
REMARK    3  A    between atoms: C_3  and  N_4
REMARK    4  A    between atoms: N_4  and  C_5
REMARK    5  A    between atoms: N_4  and  C_8
REMARK    6  A    between atoms: C_5  and  C_6
REMARK    7  A    between atoms: C_6  and  C_7
REMARK                            x       y       z     vdW  Elec       q    Type
REMARK                         _______ _______ _______ _____ _____    ______ ____
ROOT
ATOM      1  C   UNL     1       4.265   5.562  19.197  0.00  0.00    +0.000 C 
ATOM      2  C   UNL     1       4.055   6.577  18.024  0.00  0.00    +0.000 C 
ATOM      3  C   UNL     1       4.493   6.002  16.660  0.00  0.00    +0.000 C 
ATOM      4  C   UNL     1       5.838   5.380  16.773  0.00  0.00    +0.000 A 
ATOM      5  N   UNL     1       6.609   5.078  15.726  0.00  0.00    +0.000 NA
ATOM      6  N   UNL     1       7.703   4.534  16.292  0.00  0.00    +0.000 N 
ATOM      7  C   UNL     1       7.660   4.510  17.657  0.00  0.00    +0.000 A 
ATOM      8  C   UNL     1       6.443   5.042  18.003  0.00  0.00    +0.000 A 
ATOM      9  C   UNL     1       5.814   5.321  19.320  0.00  0.00    +0.000 C 
ATOM     10  H   UNL     1       8.445   4.211  15.684  0.00  0.00    +0.000 HD
ENDROOT
BRANCH   1  11
ATOM     11  N   UNL     1       3.409   4.339  19.044  0.00  0.00    +0.000 NA
BRANCH  11  12
ATOM     12  C   UNL     1       4.140   3.092  19.349  0.00  0.00    +0.000 C 
BRANCH  12  14
ATOM     13  C   UNL     1       2.741   2.079  17.458  0.00  0.00    +0.000 C 
ATOM     14  C   UNL     1       3.646   1.810  18.652  0.00  0.00    +0.000 C 
ENDBRANCH  12  14
ENDBRANCH  11  12
BRANCH  11  15
ATOM     15  C   UNL     1       2.133   4.438  19.790  0.00  0.00    +0.000 C 
BRANCH  15  16
ATOM     16  C   UNL     1       2.182   4.000  21.263  0.00  0.00    +0.000 C 
ATOM     17  C   UNL     1       1.343   2.756  21.514  0.00  0.00    +0.000 C 
ENDBRANCH  15  16
ENDBRANCH  11  15
ENDBRANCH   1  11
TORSDOF 5
ENDMDL
MODEL 8
REMARK VINA RESULT:      -5.9      1.824      5.194
REMARK  Name = 
REMARK  7 active torsions:
REMARK  status: ('A' for Active; 'I' for Inactive)
REMARK    1  A    between atoms: C_1  and  C_2
REMARK    2  A    between atoms: C_2  and  C_3
REMARK    3  A    between atoms: C_3  and  N_4
REMARK    4  A    between atoms: N_4  and  C_5
REMARK    5  A    between atoms: N_4  and  C_8
REMARK    6  A    between atoms: C_5  and  C_6
REMARK    7  A    between atoms: C_6  and  C_7
REMARK                            x       y       z     vdW  Elec       q    Type
REMARK                         _______ _______ _______ _____ _____    ______ ____
ROOT
ATOM      1  C   UNL     1       3.722   5.461  18.628  0.00  0.00    +0.000 C 
ATOM      2  C   UNL     1       3.880   6.873  17.971  0.00  0.00    +0.000 C 
ATOM      3  C   UNL     1       4.553   6.806  16.583  0.00  0.00    +0.000 C 
ATOM      4  C   UNL     1       5.771   5.956  16.643  0.00  0.00    +0.000 A 
ATOM      5  N   UNL     1       6.722   5.952  15.708  0.00  0.00    +0.000 NA
ATOM      6  N   UNL     1       7.603   5.041  16.165  0.00  0.00    +0.000 N 
ATOM      7  C   UNL     1       7.254   4.495  17.367  0.00  0.00    +0.000 A 
ATOM      8  C   UNL     1       6.050   5.062  17.700  0.00  0.00    +0.000 A 
ATOM      9  C   UNL     1       5.172   4.914  18.890  0.00  0.00    +0.000 C 
ATOM     10  H   UNL     1       8.427   4.852  15.607  0.00  0.00    +0.000 HD
ENDROOT
BRANCH   1  11
ATOM     11  N   UNL     1       2.806   4.572  17.839  0.00  0.00    +0.000 NA
BRANCH  11  12
ATOM     12  C   UNL     1       3.482   3.356  17.343  0.00  0.00    +0.000 C 
BRANCH  12  14
ATOM     13  C   UNL     1       3.717   1.222  18.741  0.00  0.00    +0.000 C 
ATOM     14  C   UNL     1       2.865   2.004  17.750  0.00  0.00    +0.000 C 
ENDBRANCH  12  14
ENDBRANCH  11  12
BRANCH  11  15
ATOM     15  C   UNL     1       1.550   4.260  18.562  0.00  0.00    +0.000 C 
BRANCH  15  16
ATOM     16  C   UNL     1       1.552   4.562  20.070  0.00  0.00    +0.000 C 
ATOM     17  C   UNL     1       1.274   3.317  20.899  0.00  0.00    +0.000 C 
ENDBRANCH  15  16
ENDBRANCH  11  15
ENDBRANCH   1  11
TORSDOF 5
ENDMDL
MODEL 9
REMARK VINA RESULT:      -5.8      2.161      3.771
REMARK  Name = 
REMARK  7 active torsions:
REMARK  status: ('A' for Active; 'I' for Inactive)
REMARK    1  A    between atoms: C_1  and  C_2
REMARK    2  A    between atoms: C_2  and  C_3
REMARK    3  A    between atoms: C_3  and  N_4
REMARK    4  A    between atoms: N_4  and  C_5
REMARK    5  A    between atoms: N_4  and  C_8
REMARK    6  A    between atoms: C_5  and  C_6
REMARK    7  A    between atoms: C_6  and  C_7
REMARK                            x       y       z     vdW  Elec       q    Type
REMARK                         _______ _______ _______ _____ _____    ______ ____
ROOT
ATOM      1  C   UNL     1       4.022   5.761  18.750  0.00  0.00    +0.000 C 
ATOM      2  C   UNL     1       4.121   5.324  17.250  0.00  0.00    +0.000 C 
ATOM      3  C   UNL     1       3.401   3.986  16.976  0.00  0.00    +0.000 C 
ATOM      4  C   UNL     1       3.791   2.975  17.994  0.00  0.00    +0.000 A 
ATOM      5  N   UNL     1       3.588   1.664  17.856  0.00  0.00    +0.000 NA
ATOM      6  N   UNL     1       4.077   1.151  19.001  0.00  0.00    +0.000 N 
ATOM      7  C   UNL     1       4.606   2.090  19.841  0.00  0.00    +0.000 A 
ATOM      8  C   UNL     1       4.420   3.298  19.216  0.00  0.00    +0.000 A 
ATOM      9  C   UNL     1       4.801   4.685  19.592  0.00  0.00    +0.000 C 
ATOM     10  H   UNL     1       4.026   0.149  19.136  0.00  0.00    +0.000 HD
ENDROOT
BRANCH   1  11
ATOM     11  N   UNL     1       2.606   6.035  19.166  0.00  0.00    +0.000 NA
BRANCH  11  12
ATOM     12  C   UNL     1       2.232   5.332  20.410  0.00  0.00    +0.000 C 
BRANCH  12  14
ATOM     13  C   UNL     1       1.306   3.062  21.151  0.00  0.00    +0.000 C 
ATOM     14  C   UNL     1       1.081   4.312  20.311  0.00  0.00    +0.000 C 
ENDBRANCH  12  14
ENDBRANCH  11  12
BRANCH  11  15
ATOM     15  C   UNL     1       2.299   7.484  19.226  0.00  0.00    +0.000 C 
BRANCH  15  16
ATOM     16  C   UNL     1       2.127   8.190  17.871  0.00  0.00    +0.000 C 
ATOM     17  C   UNL     1       1.389   9.513  18.008  0.00  0.00    +0.000 C 
ENDBRANCH  15  16
ENDBRANCH  11  15
ENDBRANCH   1  11
TORSDOF 5
ENDMDL
