MODEL 1
REMARK VINA RESULT:      -7.7      0.000      0.000
REMARK  Name = 
REMARK  5 active torsions:
REMARK  status: ('A' for Active; 'I' for Inactive)
REMARK    1  A    between atoms: C_2  and  C_3
REMARK    2  A    between atoms: C_2  and  C_26
REMARK    3  A    between atoms: C_3  and  N_4
REMARK    4  A    between atoms: C_7  and  N_8
REMARK    5  A    between atoms: C_21  and  C_22
REMARK                            x       y       z     vdW  Elec       q    Type
REMARK                         _______ _______ _______ _____ _____    ______ ____
ROOT
ATOM      1  N   UNL     1      -0.680  11.854  20.041  0.00  0.00    +0.000 N 
ATOM      2  C   UNL     1      -1.691  11.471  19.166  0.00  0.00    +0.000 A 
ATOM      3  N   UNL     1      -2.883  11.981  19.281  0.00  0.00    +0.000 NA
ATOM      4  C   UNL     1      -3.901  11.613  18.433  0.00  0.00    +0.000 A 
ATOM      5  C   UNL     1      -3.682  10.716  17.459  0.00  0.00    +0.000 A 
ATOM      6  C   UNL     1      -2.351  10.152  17.275  0.00  0.00    +0.000 A 
ATOM      7  O   UNL     1      -2.145   9.400  16.321  0.00  0.00    +0.000 OA
ATOM      8  N   UNL     1      -1.399  10.533  18.192  0.00  0.00    +0.000 N 
ATOM      9  C   UNL     1      -0.060  10.017  17.993  0.00  0.00    +0.000 C 
ATOM     10  C   UNL     1       0.783  10.076  19.249  0.00  0.00    +0.000 C 
ATOM     11  C   UNL     1       0.740  11.485  19.823  0.00  0.00    +0.000 C 
ENDROOT
BRANCH   4  12
ATOM     12  N   UNL     1      -5.163  12.176  18.572  0.00  0.00    +0.000 N 
ATOM     13  C   UNL     1      -6.247  12.239  17.571  0.00  0.00    +0.000 C 
ATOM     14  C   UNL     1      -7.246  13.200  18.265  0.00  0.00    +0.000 C 
ATOM     15  C   UNL     1      -6.312  14.159  18.982  0.00  0.00    +0.000 C 
ATOM     16  C   UNL     1      -5.607  13.016  19.703  0.00  0.00    +0.000 C 
ATOM     17  C   UNL     1      -6.823  12.326  20.347  0.00  0.00    +0.000 C 
ATOM     18  O   UNL     1      -7.889  12.494  19.362  0.00  0.00    +0.000 OA
ENDBRANCH   4  12
BRANCH  11  19
ATOM     19  C   UNL     1       1.552  12.509  18.989  0.00  0.00    +0.000 C 
ATOM     20  F   UNL     1       2.464  11.918  18.184  0.00  0.00    +0.000 F 
ATOM     21  F   UNL     1       0.718  13.209  18.177  0.00  0.00    +0.000 F 
ATOM     22  F   UNL     1       2.206  13.412  19.750  0.00  0.00    +0.000 F 
ENDBRANCH  11  19
BRANCH   1  23
ATOM     23  C   UNL     1      -0.917  12.912  21.041  0.00  0.00    +0.000 C 
BRANCH  23  25
ATOM     24  O   UNL     1      -0.625  11.579  23.078  0.00  0.00    +0.000 OA
ATOM     25  C   UNL     1      -1.302  12.360  22.417  0.00  0.00    +0.000 C 
BRANCH  25  26
ATOM     26  C   UNL     1      -2.602  12.814  22.954  0.00  0.00    +0.000 A 
ATOM     27  C   UNL     1      -3.251  12.050  23.913  0.00  0.00    +0.000 A 
ATOM     28  N   UNL     1      -4.519  12.290  24.333  0.00  0.00    +0.000 NA
ATOM     29  C   UNL     1      -5.162  13.338  23.782  0.00  0.00    +0.000 A 
ATOM     30  C   UNL     1      -4.542  14.208  22.874  0.00  0.00    +0.000 A 
ATOM     31  C   UNL     1      -3.241  13.951  22.468  0.00  0.00    +0.000 A 
ATOM     32  O   UNL     1      -5.131  15.337  22.359  0.00  0.00    +0.000 OA
ATOM     33  C   UNL     1      -6.552  15.370  22.569  0.00  0.00    +0.000 C 
ATOM     34  C   UNL     1      -6.959  14.860  23.957  0.00  0.00    +0.000 C 
ATOM     35  N   UNL     1      -6.510  13.490  24.104  0.00  0.00    +0.000 N 
ATOM     36  H   UNL     1      -6.732  12.970  24.946  0.00  0.00    +0.000 HD
ENDBRANCH  25  26
ENDBRANCH  23  25
ENDBRANCH   1  23
TORSDOF 5
ENDMDL
MODEL 2
REMARK VINA RESULT:      -7.7      4.248      7.021
REMARK  Name = 
REMARK  5 active torsions:
REMARK  status: ('A' for Active; 'I' for Inactive)
REMARK    1  A    between atoms: C_2  and  C_3
REMARK    2  A    between atoms: C_2  and  C_26
REMARK    3  A    between atoms: C_3  and  N_4
REMARK    4  A    between atoms: C_7  and  N_8
REMARK    5  A    between atoms: C_21  and  C_22
REMARK                            x       y       z     vdW  Elec       q    Type
REMARK                         _______ _______ _______ _____ _____    ______ ____
ROOT
ATOM      1  N   UNL     1       0.834   9.306  20.142  0.00  0.00    +0.000 N 
ATOM      2  C   UNL     1       1.585   8.316  19.517  0.00  0.00    +0.000 A 
ATOM      3  N   UNL     1       1.606   7.108  20.004  0.00  0.00    +0.000 NA
ATOM      4  C   UNL     1       2.347   6.114  19.409  0.00  0.00    +0.000 A 
ATOM      5  C   UNL     1       3.063   6.369  18.303  0.00  0.00    +0.000 A 
ATOM      6  C   UNL     1       3.033   7.699  17.708  0.00  0.00    +0.000 A 
ATOM      7  O   UNL     1       3.622   7.893  16.644  0.00  0.00    +0.000 OA
ATOM      8  N   UNL     1       2.308   8.651  18.388  0.00  0.00    +0.000 N 
ATOM      9  C   UNL     1       2.231   9.965  17.782  0.00  0.00    +0.000 C 
ATOM     10  C   UNL     1       1.849  11.044  18.772  0.00  0.00    +0.000 C 
ATOM     11  C   UNL     1       0.589  10.628  19.516  0.00  0.00    +0.000 C 
ENDROOT
BRANCH   4  12
ATOM     12  N   UNL     1       2.349   4.832  19.944  0.00  0.00    +0.000 N 
ATOM     13  C   UNL     1       2.269   4.440  21.366  0.00  0.00    +0.000 C 
ATOM     14  C   UNL     1       2.578   2.923  21.281  0.00  0.00    +0.000 C 
ATOM     15  C   UNL     1       3.589   2.872  20.149  0.00  0.00    +0.000 C 
ATOM     16  C   UNL     1       2.639   3.591  19.198  0.00  0.00    +0.000 C 
ATOM     17  C   UNL     1       1.407   2.675  19.320  0.00  0.00    +0.000 C 
ATOM     18  O   UNL     1       1.424   2.242  20.715  0.00  0.00    +0.000 OA
ENDBRANCH   4  12
BRANCH  11  19
ATOM     19  C   UNL     1      -0.689  10.700  18.640  0.00  0.00    +0.000 C 
ATOM     20  F   UNL     1      -1.821  10.770  19.376  0.00  0.00    +0.000 F 
ATOM     21  F   UNL     1      -0.659  11.818  17.870  0.00  0.00    +0.000 F 
ATOM     22  F   UNL     1      -0.815   9.650  17.801  0.00  0.00    +0.000 F 
ENDBRANCH  11  19
BRANCH   1  23
ATOM     23  C   UNL     1      -0.022   8.980  21.298  0.00  0.00    +0.000 C 
BRANCH  23  25
ATOM     24  O   UNL     1       1.063   9.755  23.356  0.00  0.00    +0.000 OA
ATOM     25  C   UNL     1       0.206   9.912  22.493  0.00  0.00    +0.000 C 
BRANCH  25  26
ATOM     26  C   UNL     1      -0.705  11.073  22.589  0.00  0.00    +0.000 A 
ATOM     27  C   UNL     1      -0.274  12.319  22.156  0.00  0.00    +0.000 A 
ATOM     28  N   UNL     1      -0.966  13.467  22.365  0.00  0.00    +0.000 NA
ATOM     29  C   UNL     1      -2.138  13.369  23.023  0.00  0.00    +0.000 A 
ATOM     30  C   UNL     1      -2.681  12.136  23.413  0.00  0.00    +0.000 A 
ATOM     31  C   UNL     1      -1.962  10.973  23.178  0.00  0.00    +0.000 A 
ATOM     32  O   UNL     1      -3.911  11.986  24.004  0.00  0.00    +0.000 OA
ATOM     33  C   UNL     1      -4.451  13.224  24.493  0.00  0.00    +0.000 C 
ATOM     34  C   UNL     1      -4.199  14.399  23.540  0.00  0.00    +0.000 C 
ATOM     35  N   UNL     1      -2.770  14.563  23.365  0.00  0.00    +0.000 N 
ATOM     36  H   UNL     1      -2.411  15.327  22.802  0.00  0.00    +0.000 HD
ENDBRANCH  25  26
ENDBRANCH  23  25
ENDBRANCH   1  23
TORSDOF 5
ENDMDL
MODEL 3
REMARK VINA RESULT:      -7.6      1.101      1.656
REMARK  Name = 
REMARK  5 active torsions:
REMARK  status: ('A' for Active; 'I' for Inactive)
REMARK    1  A    between atoms: C_2  and  C_3
REMARK    2  A    between atoms: C_2  and  C_26
REMARK    3  A    between atoms: C_3  and  N_4
REMARK    4  A    between atoms: C_7  and  N_8
REMARK    5  A    between atoms: C_21  and  C_22
REMARK                            x       y       z     vdW  Elec       q    Type
REMARK                         _______ _______ _______ _____ _____    ______ ____
ROOT
ATOM      1  N   UNL     1      -0.509  12.030  20.088  0.00  0.00    +0.000 N 
ATOM      2  C   UNL     1      -1.545  11.601  19.265  0.00  0.00    +0.000 A 
ATOM      3  N   UNL     1      -2.726  12.141  19.367  0.00  0.00    +0.000 NA
ATOM      4  C   UNL     1      -3.768  11.730  18.570  0.00  0.00    +0.000 A 
ATOM      5  C   UNL     1      -3.586  10.760  17.661  0.00  0.00    +0.000 A 
ATOM      6  C   UNL     1      -2.269  10.159  17.491  0.00  0.00    +0.000 A 
ATOM      7  O   UNL     1      -2.098   9.335  16.592  0.00  0.00    +0.000 OA
ATOM      8  N   UNL     1      -1.291  10.589  18.357  0.00  0.00    +0.000 N 
ATOM      9  C   UNL     1       0.035  10.035  18.169  0.00  0.00    +0.000 C 
ATOM     10  C   UNL     1       0.906  10.172  19.399  0.00  0.00    +0.000 C 
ATOM     11  C   UNL     1       0.899  11.620  19.868  0.00  0.00    +0.000 C 
ENDROOT
BRANCH   4  12
ATOM     12  N   UNL     1      -5.017  12.325  18.694  0.00  0.00    +0.000 N 
ATOM     13  C   UNL     1      -5.447  13.340  19.677  0.00  0.00    +0.000 C 
ATOM     14  C   UNL     1      -6.977  13.371  19.432  0.00  0.00    +0.000 C 
ATOM     15  C   UNL     1      -7.273  11.918  19.104  0.00  0.00    +0.000 C 
ATOM     16  C   UNL     1      -6.242  11.907  17.981  0.00  0.00    +0.000 C 
ATOM     17  C   UNL     1      -6.738  13.113  17.162  0.00  0.00    +0.000 C 
ATOM     18  O   UNL     1      -7.235  14.046  18.170  0.00  0.00    +0.000 OA
ENDBRANCH   4  12
BRANCH  11  19
ATOM     19  C   UNL     1       1.709  12.564  18.943  0.00  0.00    +0.000 C 
ATOM     20  F   UNL     1       0.918  13.313  18.141  0.00  0.00    +0.000 F 
ATOM     21  F   UNL     1       2.434  13.435  19.692  0.00  0.00    +0.000 F 
ATOM     22  F   UNL     1       2.584  11.908  18.151  0.00  0.00    +0.000 F 
ENDBRANCH  11  19
BRANCH   1  23
ATOM     23  C   UNL     1      -0.705  13.163  21.011  0.00  0.00    +0.000 C 
BRANCH  23  25
ATOM     24  O   UNL     1      -0.777  11.969  23.152  0.00  0.00    +0.000 OA
ATOM     25  C   UNL     1      -1.303  12.741  22.357  0.00  0.00    +0.000 C 
BRANCH  25  26
ATOM     26  C   UNL     1      -2.624  13.319  22.686  0.00  0.00    +0.000 A 
ATOM     27  C   UNL     1      -2.724  14.668  22.991  0.00  0.00    +0.000 A 
ATOM     28  N   UNL     1      -3.853  15.248  23.474  0.00  0.00    +0.000 NA
ATOM     29  C   UNL     1      -4.926  14.452  23.651  0.00  0.00    +0.000 A 
ATOM     30  C   UNL     1      -4.928  13.099  23.283  0.00  0.00    +0.000 A 
ATOM     31  C   UNL     1      -3.767  12.531  22.780  0.00  0.00    +0.000 A 
ATOM     32  O   UNL     1      -6.026  12.278  23.364  0.00  0.00    +0.000 OA
ATOM     33  C   UNL     1      -7.080  12.831  24.169  0.00  0.00    +0.000 C 
ATOM     34  C   UNL     1      -7.265  14.338  23.949  0.00  0.00    +0.000 C 
ATOM     35  N   UNL     1      -6.031  15.018  24.285  0.00  0.00    +0.000 N 
ATOM     36  H   UNL     1      -5.981  16.030  24.246  0.00  0.00    +0.000 HD
ENDBRANCH  25  26
ENDBRANCH  23  25
ENDBRANCH   1  23
TORSDOF 5
ENDMDL
MODEL 4
REMARK VINA RESULT:      -7.6      7.141     10.889
REMARK  Name = 
REMARK  5 active torsions:
REMARK  status: ('A' for Active; 'I' for Inactive)
REMARK    1  A    between atoms: C_2  and  C_3
REMARK    2  A    between atoms: C_2  and  C_26
REMARK    3  A    between atoms: C_3  and  N_4
REMARK    4  A    between atoms: C_7  and  N_8
REMARK    5  A    between atoms: C_21  and  C_22
REMARK                            x       y       z     vdW  Elec       q    Type
REMARK                         _______ _______ _______ _____ _____    ______ ____
ROOT
ATOM      1  N   UNL     1       5.904   6.274  17.167  0.00  0.00    +0.000 N 
ATOM      2  C   UNL     1       4.570   6.220  17.561  0.00  0.00    +0.000 A 
ATOM      3  N   UNL     1       3.943   7.310  17.895  0.00  0.00    +0.000 NA
ATOM      4  C   UNL     1       2.628   7.281  18.295  0.00  0.00    +0.000 A 
ATOM      5  C   UNL     1       1.958   6.120  18.342  0.00  0.00    +0.000 A 
ATOM      6  C   UNL     1       2.615   4.883  17.938  0.00  0.00    +0.000 A 
ATOM      7  O   UNL     1       1.960   3.841  17.901  0.00  0.00    +0.000 OA
ATOM      8  N   UNL     1       3.944   4.987  17.598  0.00  0.00    +0.000 N 
ATOM      9  C   UNL     1       4.598   3.774  17.149  0.00  0.00    +0.000 C 
ATOM     10  C   UNL     1       6.106   3.850  17.253  0.00  0.00    +0.000 C 
ATOM     11  C   UNL     1       6.600   5.112  16.563  0.00  0.00    +0.000 C 
ENDROOT
BRANCH   4  12
ATOM     12  N   UNL     1       1.979   8.460  18.642  0.00  0.00    +0.000 N 
ATOM     13  C   UNL     1       1.415   8.835  19.954  0.00  0.00    +0.000 C 
ATOM     14  C   UNL     1       0.631  10.122  19.592  0.00  0.00    +0.000 C 
ATOM     15  C   UNL     1       0.129   9.801  18.195  0.00  0.00    +0.000 C 
ATOM     16  C   UNL     1       1.540   9.507  17.698  0.00  0.00    +0.000 C 
ATOM     17  C   UNL     1       2.236  10.820  18.103  0.00  0.00    +0.000 C 
ATOM     18  O   UNL     1       1.582  11.197  19.354  0.00  0.00    +0.000 OA
ENDBRANCH   4  12
BRANCH  11  19
ATOM     19  C   UNL     1       6.509   5.039  15.017  0.00  0.00    +0.000 C 
ATOM     20  F   UNL     1       7.608   5.539  14.407  0.00  0.00    +0.000 F 
ATOM     21  F   UNL     1       6.404   3.745  14.621  0.00  0.00    +0.000 F 
ATOM     22  F   UNL     1       5.437   5.690  14.518  0.00  0.00    +0.000 F 
ENDBRANCH  11  19
BRANCH   1  23
ATOM     23  C   UNL     1       6.591   7.571  17.029  0.00  0.00    +0.000 C 
BRANCH  23  25
ATOM     24  O   UNL     1       8.246   6.845  18.686  0.00  0.00    +0.000 OA
ATOM     25  C   UNL     1       7.746   7.746  18.021  0.00  0.00    +0.000 C 
BRANCH  25  26
ATOM     26  C   UNL     1       8.264   9.122  18.172  0.00  0.00    +0.000 A 
ATOM     27  C   UNL     1       9.229   9.389  19.132  0.00  0.00    +0.000 A 
ATOM     28  N   UNL     1       9.634  10.641  19.464  0.00  0.00    +0.000 NA
ATOM     29  C   UNL     1       9.061  11.668  18.805  0.00  0.00    +0.000 A 
ATOM     30  C   UNL     1       8.144  11.475  17.762  0.00  0.00    +0.000 A 
ATOM     31  C   UNL     1       7.754  10.185  17.432  0.00  0.00    +0.000 A 
ATOM     32  O   UNL     1       7.606  12.488  17.008  0.00  0.00    +0.000 OA
ATOM     33  C   UNL     1       7.803  13.785  17.594  0.00  0.00    +0.000 C 
ATOM     34  C   UNL     1       9.195  13.950  18.216  0.00  0.00    +0.000 C 
ATOM     35  N   UNL     1       9.368  12.952  19.252  0.00  0.00    +0.000 N 
ATOM     36  H   UNL     1      10.217  12.939  19.808  0.00  0.00    +0.000 HD
ENDBRANCH  25  26
ENDBRANCH  23  25
ENDBRANCH   1  23
TORSDOF 5
ENDMDL
MODEL 5
REMARK VINA RESULT:      -7.6      7.376     11.242
REMARK  Name = 
REMARK  5 active torsions:
REMARK  status: ('A' for Active; 'I' for Inactive)
REMARK    1  A    between atoms: C_2  and  C_3
REMARK    2  A    between atoms: C_2  and  C_26
REMARK    3  A    between atoms: C_3  and  N_4
REMARK    4  A    between atoms: C_7  and  N_8
REMARK    5  A    between atoms: C_21  and  C_22
REMARK                            x       y       z     vdW  Elec       q    Type
REMARK                         _______ _______ _______ _____ _____    ______ ____
ROOT
ATOM      1  N   UNL     1       5.987   6.333  17.217  0.00  0.00    +0.000 N 
ATOM      2  C   UNL     1       4.656   6.256  17.615  0.00  0.00    +0.000 A 
ATOM      3  N   UNL     1       4.003   7.339  17.923  0.00  0.00    +0.000 NA
ATOM      4  C   UNL     1       2.689   7.288  18.326  0.00  0.00    +0.000 A 
ATOM      5  C   UNL     1       2.048   6.112  18.405  0.00  0.00    +0.000 A 
ATOM      6  C   UNL     1       2.735   4.882  18.032  0.00  0.00    +0.000 A 
ATOM      7  O   UNL     1       2.107   3.823  18.023  0.00  0.00    +0.000 OA
ATOM      8  N   UNL     1       4.061   5.010  17.686  0.00  0.00    +0.000 N 
ATOM      9  C   UNL     1       4.744   3.802  17.266  0.00  0.00    +0.000 C 
ATOM     10  C   UNL     1       6.249   3.918  17.364  0.00  0.00    +0.000 C 
ATOM     11  C   UNL     1       6.711   5.174  16.641  0.00  0.00    +0.000 C 
ENDROOT
BRANCH   4  12
ATOM     12  N   UNL     1       2.012   8.458  18.644  0.00  0.00    +0.000 N 
ATOM     13  C   UNL     1       1.405   8.836  19.936  0.00  0.00    +0.000 C 
ATOM     14  C   UNL     1       0.611  10.106  19.540  0.00  0.00    +0.000 C 
ATOM     15  C   UNL     1       0.153   9.764  18.133  0.00  0.00    +0.000 C 
ATOM     16  C   UNL     1       1.582   9.490  17.678  0.00  0.00    +0.000 C 
ATOM     17  C   UNL     1       2.245  10.818  18.090  0.00  0.00    +0.000 C 
ATOM     18  O   UNL     1       1.550  11.195  19.319  0.00  0.00    +0.000 OA
ENDBRANCH   4  12
BRANCH  11  19
ATOM     19  C   UNL     1       6.620   5.058  15.098  0.00  0.00    +0.000 C 
ATOM     20  F   UNL     1       5.565   5.734  14.586  0.00  0.00    +0.000 F 
ATOM     21  F   UNL     1       7.731   5.590  14.528  0.00  0.00    +0.000 F 
ATOM     22  F   UNL     1       6.531   3.782  14.667  0.00  0.00    +0.000 F 
ENDBRANCH  11  19
BRANCH   1  23
ATOM     23  C   UNL     1       6.642   7.643  17.043  0.00  0.00    +0.000 C 
BRANCH  23  25
ATOM     24  O   UNL     1       8.357   6.994  18.671  0.00  0.00    +0.000 OA
ATOM     25  C   UNL     1       7.791   7.874  18.030  0.00  0.00    +0.000 C 
BRANCH  25  26
ATOM     26  C   UNL     1       8.217   9.278  18.208  0.00  0.00    +0.000 A 
ATOM     27  C   UNL     1       7.663  10.268  17.410  0.00  0.00    +0.000 A 
ATOM     28  N   UNL     1       8.114  11.548  17.377  0.00  0.00    +0.000 NA
ATOM     29  C   UNL     1       9.153  11.855  18.178  0.00  0.00    +0.000 A 
ATOM     30  C   UNL     1       9.709  10.932  19.077  0.00  0.00    +0.000 A 
ATOM     31  C   UNL     1       9.223   9.633  19.102  0.00  0.00    +0.000 A 
ATOM     32  O   UNL     1      10.707  11.229  19.972  0.00  0.00    +0.000 OA
ATOM     33  C   UNL     1      11.365  12.473  19.682  0.00  0.00    +0.000 C 
ATOM     34  C   UNL     1      10.390  13.569  19.230  0.00  0.00    +0.000 C 
ATOM     35  N   UNL     1       9.707  13.125  18.032  0.00  0.00    +0.000 N 
ATOM     36  H   UNL     1       9.055  13.742  17.560  0.00  0.00    +0.000 HD
ENDBRANCH  25  26
ENDBRANCH  23  25
ENDBRANCH   1  23
TORSDOF 5
ENDMDL
MODEL 6
REMARK VINA RESULT:      -7.5      0.557      1.201
REMARK  Name = 
REMARK  5 active torsions:
REMARK  status: ('A' for Active; 'I' for Inactive)
REMARK    1  A    between atoms: C_2  and  C_3
REMARK    2  A    between atoms: C_2  and  C_26
REMARK    3  A    between atoms: C_3  and  N_4
REMARK    4  A    between atoms: C_7  and  N_8
REMARK    5  A    between atoms: C_21  and  C_22
REMARK                            x       y       z     vdW  Elec       q    Type
REMARK                         _______ _______ _______ _____ _____    ______ ____
ROOT
ATOM      1  N   UNL     1      -0.419  11.859  20.060  0.00  0.00    +0.000 N 
ATOM      2  C   UNL     1      -1.438  11.464  19.199  0.00  0.00    +0.000 A 
ATOM      3  N   UNL     1      -2.637  11.950  19.341  0.00  0.00    +0.000 NA
ATOM      4  C   UNL     1      -3.663  11.570  18.507  0.00  0.00    +0.000 A 
ATOM      5  C   UNL     1      -3.444  10.688  17.519  0.00  0.00    +0.000 A 
ATOM      6  C   UNL     1      -2.106  10.153  17.305  0.00  0.00    +0.000 A 
ATOM      7  O   UNL     1      -1.902   9.416  16.339  0.00  0.00    +0.000 OA
ATOM      8  N   UNL     1      -1.145  10.544  18.209  0.00  0.00    +0.000 N 
ATOM      9  C   UNL     1       0.201  10.057  17.981  0.00  0.00    +0.000 C 
ATOM     10  C   UNL     1       1.064  10.120  19.222  0.00  0.00    +0.000 C 
ATOM     11  C   UNL     1       1.004  11.521  19.812  0.00  0.00    +0.000 C 
ENDROOT
BRANCH   4  12
ATOM     12  N   UNL     1      -4.934  12.106  18.676  0.00  0.00    +0.000 N 
ATOM     13  C   UNL     1      -5.521  12.683  19.902  0.00  0.00    +0.000 C 
ATOM     14  C   UNL     1      -7.004  12.844  19.481  0.00  0.00    +0.000 C 
ATOM     15  C   UNL     1      -7.211  11.632  18.590  0.00  0.00    +0.000 C 
ATOM     16  C   UNL     1      -6.037  12.021  17.698  0.00  0.00    +0.000 C 
ATOM     17  C   UNL     1      -6.451  13.460  17.338  0.00  0.00    +0.000 C 
ATOM     18  O   UNL     1      -7.107  13.954  18.546  0.00  0.00    +0.000 OA
ENDBRANCH   4  12
BRANCH  11  19
ATOM     19  C   UNL     1       1.779  12.571  18.975  0.00  0.00    +0.000 C 
ATOM     20  F   UNL     1       0.969  13.299  18.173  0.00  0.00    +0.000 F 
ATOM     21  F   UNL     1       2.400  13.452  19.799  0.00  0.00    +0.000 F 
ATOM     22  F   UNL     1       2.736  12.024  18.195  0.00  0.00    +0.000 F 
ENDBRANCH  11  19
BRANCH   1  23
ATOM     23  C   UNL     1      -0.659  12.901  21.076  0.00  0.00    +0.000 C 
BRANCH  23  25
ATOM     24  O   UNL     1      -0.493  11.498  23.080  0.00  0.00    +0.000 OA
ATOM     25  C   UNL     1      -1.111  12.330  22.423  0.00  0.00    +0.000 C 
BRANCH  25  26
ATOM     26  C   UNL     1      -2.403  12.833  22.937  0.00  0.00    +0.000 A 
ATOM     27  C   UNL     1      -3.130  12.064  23.833  0.00  0.00    +0.000 A 
ATOM     28  N   UNL     1      -4.397  12.357  24.220  0.00  0.00    +0.000 NA
ATOM     29  C   UNL     1      -4.959  13.467  23.700  0.00  0.00    +0.000 A 
ATOM     30  C   UNL     1      -4.257  14.341  22.858  0.00  0.00    +0.000 A 
ATOM     31  C   UNL     1      -2.957  14.027  22.485  0.00  0.00    +0.000 A 
ATOM     32  O   UNL     1      -4.761  15.525  22.380  0.00  0.00    +0.000 OA
ATOM     33  C   UNL     1      -6.185  15.632  22.541  0.00  0.00    +0.000 C 
ATOM     34  C   UNL     1      -6.672  15.080  23.887  0.00  0.00    +0.000 C 
ATOM     35  N   UNL     1      -6.307  13.682  23.982  0.00  0.00    +0.000 N 
ATOM     36  H   UNL     1      -6.590  13.136  24.788  0.00  0.00    +0.000 HD
ENDBRANCH  25  26
ENDBRANCH  23  25
ENDBRANCH   1  23
TORSDOF 5
ENDMDL
MODEL 7
REMARK VINA RESULT:      -7.5      0.992      1.347
REMARK  Name = 
REMARK  5 active torsions:
REMARK  status: ('A' for Active; 'I' for Inactive)
REMARK    1  A    between atoms: C_2  and  C_3
REMARK    2  A    between atoms: C_2  and  C_26
REMARK    3  A    between atoms: C_3  and  N_4
REMARK    4  A    between atoms: C_7  and  N_8
REMARK    5  A    between atoms: C_21  and  C_22
REMARK                            x       y       z     vdW  Elec       q    Type
REMARK                         _______ _______ _______ _____ _____    ______ ____
ROOT
ATOM      1  N   UNL     1      -0.611  12.027  20.076  0.00  0.00    +0.000 N 
ATOM      2  C   UNL     1      -1.607  11.580  19.213  0.00  0.00    +0.000 A 
ATOM      3  N   UNL     1      -2.794  12.113  19.254  0.00  0.00    +0.000 NA
ATOM      4  C   UNL     1      -3.797  11.684  18.417  0.00  0.00    +0.000 A 
ATOM      5  C   UNL     1      -3.569  10.703  17.531  0.00  0.00    +0.000 A 
ATOM      6  C   UNL     1      -2.242  10.108  17.429  0.00  0.00    +0.000 A 
ATOM      7  O   UNL     1      -2.025   9.274  16.550  0.00  0.00    +0.000 OA
ATOM      8  N   UNL     1      -1.306  10.557  18.333  0.00  0.00    +0.000 N 
ATOM      9  C   UNL     1       0.030  10.009  18.212  0.00  0.00    +0.000 C 
ATOM     10  C   UNL     1       0.844  10.169  19.478  0.00  0.00    +0.000 C 
ATOM     11  C   UNL     1       0.808  11.623  19.925  0.00  0.00    +0.000 C 
ENDROOT
BRANCH   4  12
ATOM     12  N   UNL     1      -5.054  12.273  18.477  0.00  0.00    +0.000 N 
ATOM     13  C   UNL     1      -5.959  12.600  17.356  0.00  0.00    +0.000 C 
ATOM     14  C   UNL     1      -7.039  13.448  18.076  0.00  0.00    +0.000 C 
ATOM     15  C   UNL     1      -6.216  14.186  19.117  0.00  0.00    +0.000 C 
ATOM     16  C   UNL     1      -5.660  12.882  19.678  0.00  0.00    +0.000 C 
ATOM     17  C   UNL     1      -6.978  12.139  19.963  0.00  0.00    +0.000 C 
ATOM     18  O   UNL     1      -7.866  12.565  18.883  0.00  0.00    +0.000 OA
ENDBRANCH   4  12
BRANCH  11  19
ATOM     19  C   UNL     1       1.653  12.560  19.025  0.00  0.00    +0.000 C 
ATOM     20  F   UNL     1       2.350  13.475  19.735  0.00  0.00    +0.000 F 
ATOM     21  F   UNL     1       2.566  11.834  18.330  0.00  0.00    +0.000 F 
ATOM     22  F   UNL     1       0.913  13.230  18.116  0.00  0.00    +0.000 F 
ENDBRANCH  11  19
BRANCH   1  23
ATOM     23  C   UNL     1      -0.856  13.171  20.973  0.00  0.00    +0.000 C 
BRANCH  23  25
ATOM     24  O   UNL     1      -0.928  11.976  23.114  0.00  0.00    +0.000 OA
ATOM     25  C   UNL     1      -1.449  12.756  22.324  0.00  0.00    +0.000 C 
BRANCH  25  26
ATOM     26  C   UNL     1      -2.759  13.352  22.664  0.00  0.00    +0.000 A 
ATOM     27  C   UNL     1      -2.838  14.703  22.970  0.00  0.00    +0.000 A 
ATOM     28  N   UNL     1      -3.954  15.298  23.462  0.00  0.00    +0.000 NA
ATOM     29  C   UNL     1      -5.037  14.517  23.647  0.00  0.00    +0.000 A 
ATOM     30  C   UNL     1      -5.062  13.164  23.279  0.00  0.00    +0.000 A 
ATOM     31  C   UNL     1      -3.912  12.580  22.766  0.00  0.00    +0.000 A 
ATOM     32  O   UNL     1      -6.170  12.358  23.368  0.00  0.00    +0.000 OA
ATOM     33  C   UNL     1      -7.209  12.926  24.181  0.00  0.00    +0.000 C 
ATOM     34  C   UNL     1      -7.376  14.435  23.963  0.00  0.00    +0.000 C 
ATOM     35  N   UNL     1      -6.129  15.097  24.291  0.00  0.00    +0.000 N 
ATOM     36  H   UNL     1      -6.065  16.109  24.251  0.00  0.00    +0.000 HD
ENDBRANCH  25  26
ENDBRANCH  23  25
ENDBRANCH   1  23
TORSDOF 5
ENDMDL
MODEL 8
REMARK VINA RESULT:      -7.4      1.367      1.927
REMARK  Name = 
REMARK  5 active torsions:
REMARK  status: ('A' for Active; 'I' for Inactive)
REMARK    1  A    between atoms: C_2  and  C_3
REMARK    2  A    between atoms: C_2  and  C_26
REMARK    3  A    between atoms: C_3  and  N_4
REMARK    4  A    between atoms: C_7  and  N_8
REMARK    5  A    between atoms: C_21  and  C_22
REMARK                            x       y       z     vdW  Elec       q    Type
REMARK                         _______ _______ _______ _____ _____    ______ ____
ROOT
ATOM      1  N   UNL     1      -0.719  13.446  20.541  0.00  0.00    +0.000 N 
ATOM      2  C   UNL     1      -1.451  12.559  19.758  0.00  0.00    +0.000 A 
ATOM      3  N   UNL     1      -2.751  12.634  19.729  0.00  0.00    +0.000 NA
ATOM      4  C   UNL     1      -3.497  11.764  18.969  0.00  0.00    +0.000 A 
ATOM      5  C   UNL     1      -2.895  10.818  18.232  0.00  0.00    +0.000 A 
ATOM      6  C   UNL     1      -1.441  10.728  18.209  0.00  0.00    +0.000 A 
ATOM      7  O   UNL     1      -0.902   9.914  17.458  0.00  0.00    +0.000 OA
ATOM      8  N   UNL     1      -0.768  11.601  19.033  0.00  0.00    +0.000 N 
ATOM      9  C   UNL     1       0.680  11.555  18.984  0.00  0.00    +0.000 C 
ATOM     10  C   UNL     1       1.326  12.167  20.209  0.00  0.00    +0.000 C 
ATOM     11  C   UNL     1       0.756  13.558  20.442  0.00  0.00    +0.000 C 
ENDROOT
BRANCH   4  12
ATOM     12  N   UNL     1      -4.882  11.867  18.950  0.00  0.00    +0.000 N 
ATOM     13  C   UNL     1      -5.779  12.271  20.052  0.00  0.00    +0.000 C 
ATOM     14  C   UNL     1      -7.168  11.928  19.455  0.00  0.00    +0.000 C 
ATOM     15  C   UNL     1      -6.862  10.680  18.647  0.00  0.00    +0.000 C 
ATOM     16  C   UNL     1      -5.764  11.392  17.865  0.00  0.00    +0.000 C 
ATOM     17  C   UNL     1      -6.559  12.604  17.346  0.00  0.00    +0.000 C 
ATOM     18  O   UNL     1      -7.490  12.908  18.430  0.00  0.00    +0.000 OA
ENDBRANCH   4  12
BRANCH  11  19
ATOM     19  C   UNL     1       1.255  14.603  19.410  0.00  0.00    +0.000 C 
ATOM     20  F   UNL     1       1.503  15.809  19.969  0.00  0.00    +0.000 F 
ATOM     21  F   UNL     1       2.424  14.186  18.859  0.00  0.00    +0.000 F 
ATOM     22  F   UNL     1       0.390  14.797  18.393  0.00  0.00    +0.000 F 
ENDBRANCH  11  19
BRANCH   1  23
ATOM     23  C   UNL     1      -1.394  14.538  21.266  0.00  0.00    +0.000 C 
BRANCH  23  25
ATOM     24  O   UNL     1      -0.628  14.323  23.585  0.00  0.00    +0.000 OA
ATOM     25  C   UNL     1      -1.539  14.262  22.766  0.00  0.00    +0.000 C 
BRANCH  25  26
ATOM     26  C   UNL     1      -2.892  13.883  23.225  0.00  0.00    +0.000 A 
ATOM     27  C   UNL     1      -3.143  12.573  23.607  0.00  0.00    +0.000 A 
ATOM     28  N   UNL     1      -4.384  12.092  23.871  0.00  0.00    +0.000 NA
ATOM     29  C   UNL     1      -5.415  12.953  23.759  0.00  0.00    +0.000 A 
ATOM     30  C   UNL     1      -5.231  14.312  23.465  0.00  0.00    +0.000 A 
ATOM     31  C   UNL     1      -3.952  14.784  23.210  0.00  0.00    +0.000 A 
ATOM     32  O   UNL     1      -6.244  15.239  23.430  0.00  0.00    +0.000 OA
ATOM     33  C   UNL     1      -7.549  14.640  23.391  0.00  0.00    +0.000 C 
ATOM     34  C   UNL     1      -7.666  13.413  24.305  0.00  0.00    +0.000 C 
ATOM     35  N   UNL     1      -6.697  12.421  23.885  0.00  0.00    +0.000 N 
ATOM     36  H   UNL     1      -6.660  11.518  24.347  0.00  0.00    +0.000 HD
ENDBRANCH  25  26
ENDBRANCH  23  25
ENDBRANCH   1  23
TORSDOF 5
ENDMDL
MODEL 9
REMARK VINA RESULT:      -7.4      6.642     11.240
REMARK  Name = 
REMARK  5 active torsions:
REMARK  status: ('A' for Active; 'I' for Inactive)
REMARK    1  A    between atoms: C_2  and  C_3
REMARK    2  A    between atoms: C_2  and  C_26
REMARK    3  A    between atoms: C_3  and  N_4
REMARK    4  A    between atoms: C_7  and  N_8
REMARK    5  A    between atoms: C_21  and  C_22
REMARK                            x       y       z     vdW  Elec       q    Type
REMARK                         _______ _______ _______ _____ _____    ______ ____
ROOT
ATOM      1  N   UNL     1       3.001   6.353  18.861  0.00  0.00    +0.000 N 
ATOM      2  C   UNL     1       2.202   7.339  19.432  0.00  0.00    +0.000 A 
ATOM      3  N   UNL     1       2.289   8.570  19.018  0.00  0.00    +0.000 NA
ATOM      4  C   UNL     1       1.515   9.564  19.571  0.00  0.00    +0.000 A 
ATOM      5  C   UNL     1       0.644   9.280  20.551  0.00  0.00    +0.000 A 
ATOM      6  C   UNL     1       0.490   7.906  21.013  0.00  0.00    +0.000 A 
ATOM      7  O   UNL     1      -0.377   7.648  21.849  0.00  0.00    +0.000 OA
ATOM      8  N   UNL     1       1.334   6.979  20.446  0.00  0.00    +0.000 N 
ATOM      9  C   UNL     1       1.160   5.601  20.861  0.00  0.00    +0.000 C 
ATOM     10  C   UNL     1       2.378   4.748  20.582  0.00  0.00    +0.000 C 
ATOM     11  C   UNL     1       2.789   4.910  19.127  0.00  0.00    +0.000 C 
ENDROOT
BRANCH   4  12
ATOM     12  N   UNL     1       1.623  10.869  19.109  0.00  0.00    +0.000 N 
ATOM     13  C   UNL     1       2.358  11.357  17.925  0.00  0.00    +0.000 C 
ATOM     14  C   UNL     1       2.286  12.891  18.133  0.00  0.00    +0.000 C 
ATOM     15  C   UNL     1       2.372  13.008  19.644  0.00  0.00    +0.000 C 
ATOM     16  C   UNL     1       1.181  12.076  19.837  0.00  0.00    +0.000 C 
ATOM     17  C   UNL     1       0.143  12.797  18.956  0.00  0.00    +0.000 C 
ATOM     18  O   UNL     1       0.931  13.338  17.851  0.00  0.00    +0.000 OA
ENDBRANCH   4  12
BRANCH  11  19
ATOM     19  C   UNL     1       1.823   4.207  18.138  0.00  0.00    +0.000 C 
ATOM     20  F   UNL     1       1.093   5.084  17.411  0.00  0.00    +0.000 F 
ATOM     21  F   UNL     1       2.531   3.465  17.249  0.00  0.00    +0.000 F 
ATOM     22  F   UNL     1       0.959   3.368  18.748  0.00  0.00    +0.000 F 
ENDBRANCH  11  19
BRANCH   1  23
ATOM     23  C   UNL     1       3.880   6.669  17.720  0.00  0.00    +0.000 C 
BRANCH  23  25
ATOM     24  O   UNL     1       5.919   5.925  18.862  0.00  0.00    +0.000 OA
ATOM     25  C   UNL     1       5.262   6.016  17.830  0.00  0.00    +0.000 C 
BRANCH  25  26
ATOM     26  C   UNL     1       5.822   5.476  16.573  0.00  0.00    +0.000 A 
ATOM     27  C   UNL     1       7.119   5.803  16.206  0.00  0.00    +0.000 A 
ATOM     28  N   UNL     1       7.656   5.504  14.996  0.00  0.00    +0.000 NA
ATOM     29  C   UNL     1       6.871   4.845  14.120  0.00  0.00    +0.000 A 
ATOM     30  C   UNL     1       5.581   4.404  14.449  0.00  0.00    +0.000 A 
ATOM     31  C   UNL     1       5.058   4.711  15.697  0.00  0.00    +0.000 A 
ATOM     32  O   UNL     1       4.785   3.655  13.619  0.00  0.00    +0.000 OA
ATOM     33  C   UNL     1       5.250   3.643  12.260  0.00  0.00    +0.000 C 
ATOM     34  C   UNL     1       6.777   3.538  12.156  0.00  0.00    +0.000 C 
ATOM     35  N   UNL     1       7.372   4.673  12.831  0.00  0.00    +0.000 N 
ATOM     36  H   UNL     1       8.379   4.798  12.824  0.00  0.00    +0.000 HD
ENDBRANCH  25  26
ENDBRANCH  23  25
ENDBRANCH   1  23
TORSDOF 5
ENDMDL
