MODEL 1
REMARK VINA RESULT:      -7.8      0.000      0.000
REMARK  Name = 
REMARK  12 active torsions:
REMARK  status: ('A' for Active; 'I' for Inactive)
REMARK    1  A    between atoms: C_1  and  N_2
REMARK    2  A    between atoms: C_3  and  C_5
REMARK    3  A    between atoms: C_5  and  N_6
REMARK    4  A    between atoms: C_8  and  C_9
REMARK    5  A    between atoms: N_16  and  C_17
REMARK    6  A    between atoms: N_16  and  C_20
REMARK    7  A    between atoms: C_17  and  C_18
REMARK    8  A    between atoms: C_18  and  N_19
REMARK    9  A    between atoms: C_22  and  O_23
REMARK   10  A    between atoms: O_23  and  C_24
REMARK   11  A    between atoms: C_26  and  O_27
REMARK   12  A    between atoms: O_27  and  C_28
REMARK                            x       y       z     vdW  Elec       q    Type
REMARK                         _______ _______ _______ _____ _____    ______ ____
ROOT
ATOM      1  C   UNL     1       3.147   7.054  18.453  0.00  0.00    +0.000 A 
ATOM      2  C   UNL     1       2.976   6.307  19.619  0.00  0.00    +0.000 A 
ATOM      3  C   UNL     1       2.067   6.730  20.592  0.00  0.00    +0.000 A 
ATOM      4  C   UNL     1       1.321   7.888  20.429  0.00  0.00    +0.000 A 
ATOM      5  N   UNL     1       0.451   8.259  21.377  0.00  0.00    +0.000 NA
ATOM      6  C   UNL     1      -0.224   9.413  21.142  0.00  0.00    +0.000 A 
ATOM      7  C   UNL     1      -0.070  10.212  20.004  0.00  0.00    +0.000 A 
ATOM      8  N   UNL     1      -0.793  11.416  19.879  0.00  0.00    +0.000 N 
ATOM      9  N   UNL     1       0.795   9.798  19.053  0.00  0.00    +0.000 NA
ATOM     10  C   UNL     1       1.491   8.659  19.257  0.00  0.00    +0.000 A 
ATOM     11  C   UNL     1       2.397   8.228  18.294  0.00  0.00    +0.000 A 
ENDROOT
BRANCH   8  12
ATOM     12  C   UNL     1      -0.958  12.363  20.945  0.00  0.00    +0.000 A 
ATOM     13  C   UNL     1      -2.159  12.442  21.673  0.00  0.00    +0.000 A 
ATOM     14  C   UNL     1      -2.333  13.364  22.714  0.00  0.00    +0.000 A 
ATOM     15  C   UNL     1      -1.284  14.209  23.058  0.00  0.00    +0.000 A 
ATOM     16  C   UNL     1      -0.081  14.161  22.352  0.00  0.00    +0.000 A 
ATOM     17  C   UNL     1       0.074  13.249  21.303  0.00  0.00    +0.000 A 
BRANCH  14  18
ATOM     18  O   UNL     1      -3.565  13.338  23.311  0.00  0.00    +0.000 OA
ATOM     19  C   UNL     1      -4.659  12.910  22.506  0.00  0.00    +0.000 C 
ENDBRANCH  14  18
BRANCH  16  20
ATOM     20  O   UNL     1       0.863  15.059  22.776  0.00  0.00    +0.000 OA
ATOM     21  C   UNL     1       1.853  15.448  21.832  0.00  0.00    +0.000 C 
ENDBRANCH  16  20
ENDBRANCH   8  12
BRANCH   1  24
ATOM     22  N   UNL     1       5.590   5.443  16.347  0.00  0.00    +0.000 N 
ATOM     23  C   UNL     1       4.834   5.462  17.484  0.00  0.00    +0.000 A 
ATOM     24  C   UNL     1       4.062   6.604  17.419  0.00  0.00    +0.000 A 
ATOM     25  C   UNL     1       4.399   7.171  16.167  0.00  0.00    +0.000 A 
ATOM     26  N   UNL     1       5.313   6.458  15.502  0.00  0.00    +0.000 NA
BRANCH  22  27
ATOM     27  C   UNL     1       6.643   4.503  16.023  0.00  0.00    +0.000 C 
BRANCH  27  30
ATOM     28  C   UNL     1       6.431   3.550  12.362  0.00  0.00    +0.000 C 
ATOM     29  N   UNL     1       6.195   3.680  13.777  0.00  0.00    +0.000 N 
ATOM     30  C   UNL     1       6.963   4.523  14.551  0.00  0.00    +0.000 C 
ATOM     31  O   UNL     1       7.814   5.276  14.081  0.00  0.00    +0.000 OA
ATOM     32  H   UNL     1       5.623   2.981  14.249  0.00  0.00    +0.000 HD
ENDBRANCH  27  30
ENDBRANCH  22  27
ENDBRANCH   1  24
BRANCH   8  33
ATOM     33  C   UNL     1      -1.089  12.002  18.542  0.00  0.00    +0.000 C 
BRANCH  33  34
ATOM     34  C   UNL     1      -2.374  11.588  17.799  0.00  0.00    +0.000 C 
BRANCH  34  35
ATOM     35  N   UNL     1      -2.183  11.576  16.336  0.00  0.00    +0.000 NA
ATOM     36  H   UNL     1      -2.552  10.710  15.948  0.00  0.00    +0.000 HD
ATOM     37  H   UNL     1      -1.181  11.565  16.142  0.00  0.00    +0.000 HD
ENDBRANCH  34  35
ENDBRANCH  33  34
ENDBRANCH   8  33
TORSDOF 9
ENDMDL
MODEL 2
REMARK VINA RESULT:      -7.8      0.415      2.197
REMARK  Name = 
REMARK  12 active torsions:
REMARK  status: ('A' for Active; 'I' for Inactive)
REMARK    1  A    between atoms: C_1  and  N_2
REMARK    2  A    between atoms: C_3  and  C_5
REMARK    3  A    between atoms: C_5  and  N_6
REMARK    4  A    between atoms: C_8  and  C_9
REMARK    5  A    between atoms: N_16  and  C_17
REMARK    6  A    between atoms: N_16  and  C_20
REMARK    7  A    between atoms: C_17  and  C_18
REMARK    8  A    between atoms: C_18  and  N_19
REMARK    9  A    between atoms: C_22  and  O_23
REMARK   10  A    between atoms: O_23  and  C_24
REMARK   11  A    between atoms: C_26  and  O_27
REMARK   12  A    between atoms: O_27  and  C_28
REMARK                            x       y       z     vdW  Elec       q    Type
REMARK                         _______ _______ _______ _____ _____    ______ ____
ROOT
ATOM      1  C   UNL     1       3.155   7.026  18.488  0.00  0.00    +0.000 A 
ATOM      2  C   UNL     1       2.937   6.229  19.611  0.00  0.00    +0.000 A 
ATOM      3  C   UNL     1       2.014   6.628  20.582  0.00  0.00    +0.000 A 
ATOM      4  C   UNL     1       1.301   7.811  20.456  0.00  0.00    +0.000 A 
ATOM      5  N   UNL     1       0.416   8.158  21.400  0.00  0.00    +0.000 NA
ATOM      6  C   UNL     1      -0.224   9.339  21.205  0.00  0.00    +0.000 A 
ATOM      7  C   UNL     1      -0.022  10.187  20.110  0.00  0.00    +0.000 A 
ATOM      8  N   UNL     1      -0.712  11.414  20.027  0.00  0.00    +0.000 N 
ATOM      9  N   UNL     1       0.856   9.797  19.162  0.00  0.00    +0.000 NA
ATOM     10  C   UNL     1       1.519   8.632  19.328  0.00  0.00    +0.000 A 
ATOM     11  C   UNL     1       2.438   8.225  18.367  0.00  0.00    +0.000 A 
ENDROOT
BRANCH   8  12
ATOM     12  C   UNL     1      -0.881  12.313  21.133  0.00  0.00    +0.000 A 
ATOM     13  C   UNL     1       0.068  13.313  21.413  0.00  0.00    +0.000 A 
ATOM     14  C   UNL     1      -0.084  14.195  22.491  0.00  0.00    +0.000 A 
ATOM     15  C   UNL     1      -1.215  14.101  23.293  0.00  0.00    +0.000 A 
ATOM     16  C   UNL     1      -2.174  13.117  23.047  0.00  0.00    +0.000 A 
ATOM     17  C   UNL     1      -2.002  12.231  21.978  0.00  0.00    +0.000 A 
BRANCH  14  18
ATOM     18  O   UNL     1       0.935  15.095  22.651  0.00  0.00    +0.000 OA
ATOM     19  C   UNL     1       1.802  15.289  21.538  0.00  0.00    +0.000 C 
ENDBRANCH  14  18
BRANCH  16  20
ATOM     20  O   UNL     1      -3.228  13.119  23.921  0.00  0.00    +0.000 OA
ATOM     21  C   UNL     1      -4.370  13.884  23.554  0.00  0.00    +0.000 C 
ENDBRANCH  16  20
ENDBRANCH   8  12
BRANCH   1  24
ATOM     22  N   UNL     1       5.650   5.488  16.387  0.00  0.00    +0.000 N 
ATOM     23  C   UNL     1       4.891   5.485  17.523  0.00  0.00    +0.000 A 
ATOM     24  C   UNL     1       4.086   6.602  17.456  0.00  0.00    +0.000 A 
ATOM     25  C   UNL     1       4.407   7.179  16.203  0.00  0.00    +0.000 A 
ATOM     26  N   UNL     1       5.343   6.493  15.540  0.00  0.00    +0.000 NA
BRANCH  22  27
ATOM     27  C   UNL     1       6.731   4.579  16.066  0.00  0.00    +0.000 C 
BRANCH  27  30
ATOM     28  C   UNL     1       6.442   3.563  12.428  0.00  0.00    +0.000 C 
ATOM     29  N   UNL     1       6.235   3.718  13.844  0.00  0.00    +0.000 N 
ATOM     30  C   UNL     1       7.021   4.572  14.587  0.00  0.00    +0.000 C 
ATOM     31  O   UNL     1       7.865   5.314  14.087  0.00  0.00    +0.000 OA
ATOM     32  H   UNL     1       5.671   3.029  14.340  0.00  0.00    +0.000 HD
ENDBRANCH  27  30
ENDBRANCH  22  27
ENDBRANCH   1  24
BRANCH   8  33
ATOM     33  C   UNL     1      -0.960  12.070  18.712  0.00  0.00    +0.000 C 
BRANCH  33  34
ATOM     34  C   UNL     1      -2.070  11.529  17.791  0.00  0.00    +0.000 C 
BRANCH  34  35
ATOM     35  N   UNL     1      -1.611  10.373  16.997  0.00  0.00    +0.000 NA
ATOM     36  H   UNL     1      -2.273   9.605  17.096  0.00  0.00    +0.000 HD
ATOM     37  H   UNL     1      -0.733  10.038  17.396  0.00  0.00    +0.000 HD
ENDBRANCH  34  35
ENDBRANCH  33  34
ENDBRANCH   8  33
TORSDOF 9
ENDMDL
MODEL 3
REMARK VINA RESULT:      -7.8      2.660     11.097
REMARK  Name = 
REMARK  12 active torsions:
REMARK  status: ('A' for Active; 'I' for Inactive)
REMARK    1  A    between atoms: C_1  and  N_2
REMARK    2  A    between atoms: C_3  and  C_5
REMARK    3  A    between atoms: C_5  and  N_6
REMARK    4  A    between atoms: C_8  and  C_9
REMARK    5  A    between atoms: N_16  and  C_17
REMARK    6  A    between atoms: N_16  and  C_20
REMARK    7  A    between atoms: C_17  and  C_18
REMARK    8  A    between atoms: C_18  and  N_19
REMARK    9  A    between atoms: C_22  and  O_23
REMARK   10  A    between atoms: O_23  and  C_24
REMARK   11  A    between atoms: C_26  and  O_27
REMARK   12  A    between atoms: O_27  and  C_28
REMARK                            x       y       z     vdW  Elec       q    Type
REMARK                         _______ _______ _______ _____ _____    ______ ____
ROOT
ATOM      1  C   UNL     1       0.205  11.133  20.729  0.00  0.00    +0.000 A 
ATOM      2  C   UNL     1       0.359  11.759  19.492  0.00  0.00    +0.000 A 
ATOM      3  C   UNL     1       0.936  11.064  18.425  0.00  0.00    +0.000 A 
ATOM      4  C   UNL     1       1.365   9.753  18.566  0.00  0.00    +0.000 A 
ATOM      5  N   UNL     1       1.903   9.114  17.519  0.00  0.00    +0.000 NA
ATOM      6  C   UNL     1       2.310   7.839  17.750  0.00  0.00    +0.000 A 
ATOM      7  C   UNL     1       2.203   7.175  18.978  0.00  0.00    +0.000 A 
ATOM      8  N   UNL     1       2.696   5.862  19.119  0.00  0.00    +0.000 N 
ATOM      9  N   UNL     1       1.630   7.837  20.006  0.00  0.00    +0.000 NA
ATOM     10  C   UNL     1       1.223   9.110  19.815  0.00  0.00    +0.000 A 
ATOM     11  C   UNL     1       0.646   9.810  20.869  0.00  0.00    +0.000 A 
ENDROOT
BRANCH   8  12
ATOM     12  C   UNL     1       3.960   5.422  18.600  0.00  0.00    +0.000 A 
ATOM     13  C   UNL     1       5.150   5.597  19.329  0.00  0.00    +0.000 A 
ATOM     14  C   UNL     1       6.390   5.174  18.831  0.00  0.00    +0.000 A 
ATOM     15  C   UNL     1       6.449   4.541  17.595  0.00  0.00    +0.000 A 
ATOM     16  C   UNL     1       5.287   4.358  16.843  0.00  0.00    +0.000 A 
ATOM     17  C   UNL     1       4.058   4.800  17.343  0.00  0.00    +0.000 A 
BRANCH  14  18
ATOM     18  O   UNL     1       7.460   5.436  19.645  0.00  0.00    +0.000 OA
ATOM     19  C   UNL     1       8.336   6.483  19.237  0.00  0.00    +0.000 C 
ENDBRANCH  14  18
BRANCH  16  20
ATOM     20  O   UNL     1       5.484   3.742  15.635  0.00  0.00    +0.000 OA
ATOM     21  C   UNL     1       6.559   4.218  14.835  0.00  0.00    +0.000 C 
ENDBRANCH  16  20
ENDBRANCH   8  12
BRANCH   1  24
ATOM     22  N   UNL     1      -1.041  13.433  23.211  0.00  0.00    +0.000 N 
ATOM     23  C   UNL     1      -0.383  13.197  22.037  0.00  0.00    +0.000 A 
ATOM     24  C   UNL     1      -0.426  11.834  21.834  0.00  0.00    +0.000 A 
ATOM     25  C   UNL     1      -1.186  11.351  22.926  0.00  0.00    +0.000 A 
ATOM     26  N   UNL     1      -1.580  12.323  23.755  0.00  0.00    +0.000 NA
BRANCH  22  27
ATOM     27  C   UNL     1      -1.151  14.701  23.902  0.00  0.00    +0.000 C 
BRANCH  27  30
ATOM     28  C   UNL     1      -4.935  14.773  23.713  0.00  0.00    +0.000 C 
ATOM     29  N   UNL     1      -3.539  14.531  23.458  0.00  0.00    +0.000 N 
ATOM     30  C   UNL     1      -2.570  14.968  24.335  0.00  0.00    +0.000 C 
ATOM     31  O   UNL     1      -2.831  15.492  25.417  0.00  0.00    +0.000 OA
ATOM     32  H   UNL     1      -3.248  14.249  22.522  0.00  0.00    +0.000 HD
ENDBRANCH  27  30
ENDBRANCH  22  27
ENDBRANCH   1  24
BRANCH   8  33
ATOM     33  C   UNL     1       2.154   4.944  20.160  0.00  0.00    +0.000 C 
BRANCH  33  34
ATOM     34  C   UNL     1       1.053   3.935  19.784  0.00  0.00    +0.000 C 
BRANCH  34  35
ATOM     35  N   UNL     1       0.789   2.977  20.875  0.00  0.00    +0.000 NA
ATOM     36  H   UNL     1       1.547   3.013  21.554  0.00  0.00    +0.000 HD
ATOM     37  H   UNL     1       0.806   2.034  20.485  0.00  0.00    +0.000 HD
ENDBRANCH  34  35
ENDBRANCH  33  34
ENDBRANCH   8  33
TORSDOF 9
ENDMDL
MODEL 4
REMARK VINA RESULT:      -7.7      2.507     10.925
REMARK  Name = 
REMARK  12 active torsions:
REMARK  status: ('A' for Active; 'I' for Inactive)
REMARK    1  A    between atoms: C_1  and  N_2
REMARK    2  A    between atoms: C_3  and  C_5
REMARK    3  A    between atoms: C_5  and  N_6
REMARK    4  A    between atoms: C_8  and  C_9
REMARK    5  A    between atoms: N_16  and  C_17
REMARK    6  A    between atoms: N_16  and  C_20
REMARK    7  A    between atoms: C_17  and  C_18
REMARK    8  A    between atoms: C_18  and  N_19
REMARK    9  A    between atoms: C_22  and  O_23
REMARK   10  A    between atoms: O_23  and  C_24
REMARK   11  A    between atoms: C_26  and  O_27
REMARK   12  A    between atoms: O_27  and  C_28
REMARK                            x       y       z     vdW  Elec       q    Type
REMARK                         _______ _______ _______ _____ _____    ______ ____
ROOT
ATOM      1  C   UNL     1       0.310  10.638  20.558  0.00  0.00    +0.000 A 
ATOM      2  C   UNL     1       0.520  11.395  19.406  0.00  0.00    +0.000 A 
ATOM      3  C   UNL     1       1.201  10.839  18.319  0.00  0.00    +0.000 A 
ATOM      4  C   UNL     1       1.679   9.537  18.356  0.00  0.00    +0.000 A 
ATOM      5  N   UNL     1       2.318   9.033  17.293  0.00  0.00    +0.000 NA
ATOM      6  C   UNL     1       2.766   7.758  17.422  0.00  0.00    +0.000 A 
ATOM      7  C   UNL     1       2.605   6.966  18.564  0.00  0.00    +0.000 A 
ATOM      8  N   UNL     1       3.148   5.665  18.608  0.00  0.00    +0.000 N 
ATOM      9  N   UNL     1       1.933   7.493  19.610  0.00  0.00    +0.000 NA
ATOM     10  C   UNL     1       1.481   8.762  19.520  0.00  0.00    +0.000 A 
ATOM     11  C   UNL     1       0.801   9.325  20.595  0.00  0.00    +0.000 A 
ENDROOT
BRANCH   8  12
ATOM     12  C   UNL     1       4.463   5.332  18.140  0.00  0.00    +0.000 A 
ATOM     13  C   UNL     1       4.652   4.521  17.006  0.00  0.00    +0.000 A 
ATOM     14  C   UNL     1       5.931   4.187  16.541  0.00  0.00    +0.000 A 
ATOM     15  C   UNL     1       7.048   4.688  17.200  0.00  0.00    +0.000 A 
ATOM     16  C   UNL     1       6.896   5.491  18.332  0.00  0.00    +0.000 A 
ATOM     17  C   UNL     1       5.614   5.802  18.797  0.00  0.00    +0.000 A 
BRANCH  14  18
ATOM     18  O   UNL     1       5.953   3.370  15.443  0.00  0.00    +0.000 OA
ATOM     19  C   UNL     1       6.267   3.979  14.195  0.00  0.00    +0.000 C 
ENDBRANCH  14  18
BRANCH  16  20
ATOM     20  O   UNL     1       8.073   5.901  18.899  0.00  0.00    +0.000 OA
ATOM     21  C   UNL     1       8.401   7.280  18.778  0.00  0.00    +0.000 C 
ENDBRANCH  16  20
ENDBRANCH   8  12
BRANCH   1  24
ATOM     22  N   UNL     1      -1.399  12.629  23.030  0.00  0.00    +0.000 N 
ATOM     23  C   UNL     1      -0.778  12.520  21.818  0.00  0.00    +0.000 A 
ATOM     24  C   UNL     1      -0.427  11.194  21.679  0.00  0.00    +0.000 A 
ATOM     25  C   UNL     1      -0.937  10.582  22.850  0.00  0.00    +0.000 A 
ATOM     26  N   UNL     1      -1.547  11.448  23.665  0.00  0.00    +0.000 NA
BRANCH  22  27
ATOM     27  C   UNL     1      -1.836  13.852  23.672  0.00  0.00    +0.000 C 
BRANCH  27  30
ATOM     28  C   UNL     1      -5.563  13.171  23.630  0.00  0.00    +0.000 C 
ATOM     29  N   UNL     1      -4.142  13.094  23.851  0.00  0.00    +0.000 N 
ATOM     30  C   UNL     1      -3.302  14.103  23.432  0.00  0.00    +0.000 C 
ATOM     31  O   UNL     1      -3.710  15.156  22.943  0.00  0.00    +0.000 OA
ATOM     32  H   UNL     1      -3.728  12.197  24.102  0.00  0.00    +0.000 HD
ENDBRANCH  27  30
ENDBRANCH  22  27
ENDBRANCH   1  24
BRANCH   8  33
ATOM     33  C   UNL     1       2.578   4.623  19.507  0.00  0.00    +0.000 C 
BRANCH  33  34
ATOM     34  C   UNL     1       1.615   3.567  18.932  0.00  0.00    +0.000 C 
BRANCH  34  35
ATOM     35  N   UNL     1       1.216   3.883  17.546  0.00  0.00    +0.000 NA
ATOM     36  H   UNL     1       0.369   4.449  17.554  0.00  0.00    +0.000 HD
ATOM     37  H   UNL     1       0.967   3.011  17.078  0.00  0.00    +0.000 HD
ENDBRANCH  34  35
ENDBRANCH  33  34
ENDBRANCH   8  33
TORSDOF 9
ENDMDL
MODEL 5
REMARK VINA RESULT:      -7.6      2.732     11.029
REMARK  Name = 
REMARK  12 active torsions:
REMARK  status: ('A' for Active; 'I' for Inactive)
REMARK    1  A    between atoms: C_1  and  N_2
REMARK    2  A    between atoms: C_3  and  C_5
REMARK    3  A    between atoms: C_5  and  N_6
REMARK    4  A    between atoms: C_8  and  C_9
REMARK    5  A    between atoms: N_16  and  C_17
REMARK    6  A    between atoms: N_16  and  C_20
REMARK    7  A    between atoms: C_17  and  C_18
REMARK    8  A    between atoms: C_18  and  N_19
REMARK    9  A    between atoms: C_22  and  O_23
REMARK   10  A    between atoms: O_23  and  C_24
REMARK   11  A    between atoms: C_26  and  O_27
REMARK   12  A    between atoms: O_27  and  C_28
REMARK                            x       y       z     vdW  Elec       q    Type
REMARK                         _______ _______ _______ _____ _____    ______ ____
ROOT
ATOM      1  C   UNL     1       0.051  11.347  20.663  0.00  0.00    +0.000 A 
ATOM      2  C   UNL     1       0.376  12.042  19.499  0.00  0.00    +0.000 A 
ATOM      3  C   UNL     1       1.044  11.390  18.459  0.00  0.00    +0.000 A 
ATOM      4  C   UNL     1       1.398  10.052  18.556  0.00  0.00    +0.000 A 
ATOM      5  N   UNL     1       2.028   9.456  17.535  0.00  0.00    +0.000 NA
ATOM      6  C   UNL     1       2.351   8.151  17.722  0.00  0.00    +0.000 A 
ATOM      7  C   UNL     1       2.072   7.415  18.879  0.00  0.00    +0.000 A 
ATOM      8  N   UNL     1       2.490   6.072  18.984  0.00  0.00    +0.000 N 
ATOM      9  N   UNL     1       1.412   8.037  19.879  0.00  0.00    +0.000 NA
ATOM     10  C   UNL     1       1.083   9.338  19.733  0.00  0.00    +0.000 A 
ATOM     11  C   UNL     1       0.417   9.996  20.760  0.00  0.00    +0.000 A 
ENDROOT
BRANCH   8  12
ATOM     12  C   UNL     1       3.786   5.605  18.583  0.00  0.00    +0.000 A 
ATOM     13  C   UNL     1       4.888   5.666  19.457  0.00  0.00    +0.000 A 
ATOM     14  C   UNL     1       6.158   5.216  19.076  0.00  0.00    +0.000 A 
ATOM     15  C   UNL     1       6.337   4.667  17.811  0.00  0.00    +0.000 A 
ATOM     16  C   UNL     1       5.266   4.596  16.917  0.00  0.00    +0.000 A 
ATOM     17  C   UNL     1       4.006   5.066  17.303  0.00  0.00    +0.000 A 
BRANCH  14  18
ATOM     18  O   UNL     1       7.135   5.365  20.025  0.00  0.00    +0.000 OA
ATOM     19  C   UNL     1       8.428   5.739  19.562  0.00  0.00    +0.000 C 
ENDBRANCH  14  18
BRANCH  16  20
ATOM     20  O   UNL     1       5.578   4.055  15.698  0.00  0.00    +0.000 OA
ATOM     21  C   UNL     1       6.752   4.542  15.058  0.00  0.00    +0.000 C 
ENDBRANCH  16  20
ENDBRANCH   8  12
BRANCH   1  24
ATOM     22  N   UNL     1      -2.173  12.429  23.286  0.00  0.00    +0.000 N 
ATOM     23  C   UNL     1      -1.751  11.470  22.411  0.00  0.00    +0.000 A 
ATOM     24  C   UNL     1      -0.675  12.005  21.735  0.00  0.00    +0.000 A 
ATOM     25  C   UNL     1      -0.502  13.280  22.327  0.00  0.00    +0.000 A 
ATOM     26  N   UNL     1      -1.399  13.534  23.285  0.00  0.00    +0.000 NA
BRANCH  22  27
ATOM     27  C   UNL     1      -3.351  12.376  24.127  0.00  0.00    +0.000 C 
BRANCH  27  30
ATOM     28  C   UNL     1      -5.544  15.342  23.262  0.00  0.00    +0.000 C 
ATOM     29  N   UNL     1      -4.479  14.498  23.737  0.00  0.00    +0.000 N 
ATOM     30  C   UNL     1      -4.498  13.138  23.514  0.00  0.00    +0.000 C 
ATOM     31  O   UNL     1      -5.353  12.582  22.827  0.00  0.00    +0.000 OA
ATOM     32  H   UNL     1      -3.834  14.861  24.437  0.00  0.00    +0.000 HD
ENDBRANCH  27  30
ENDBRANCH  22  27
ENDBRANCH   1  24
BRANCH   8  33
ATOM     33  C   UNL     1       1.792   5.117  19.890  0.00  0.00    +0.000 C 
BRANCH  33  34
ATOM     34  C   UNL     1       1.597   3.655  19.447  0.00  0.00    +0.000 C 
BRANCH  34  35
ATOM     35  N   UNL     1       0.306   3.108  19.908  0.00  0.00    +0.000 NA
ATOM     36  H   UNL     1       0.372   2.856  20.892  0.00  0.00    +0.000 HD
ATOM     37  H   UNL     1       0.129   2.237  19.407  0.00  0.00    +0.000 HD
ENDBRANCH  34  35
ENDBRANCH  33  34
ENDBRANCH   8  33
TORSDOF 9
ENDMDL
MODEL 6
REMARK VINA RESULT:      -7.6      2.525     10.942
REMARK  Name = 
REMARK  12 active torsions:
REMARK  status: ('A' for Active; 'I' for Inactive)
REMARK    1  A    between atoms: C_1  and  N_2
REMARK    2  A    between atoms: C_3  and  C_5
REMARK    3  A    between atoms: C_5  and  N_6
REMARK    4  A    between atoms: C_8  and  C_9
REMARK    5  A    between atoms: N_16  and  C_17
REMARK    6  A    between atoms: N_16  and  C_20
REMARK    7  A    between atoms: C_17  and  C_18
REMARK    8  A    between atoms: C_18  and  N_19
REMARK    9  A    between atoms: C_22  and  O_23
REMARK   10  A    between atoms: O_23  and  C_24
REMARK   11  A    between atoms: C_26  and  O_27
REMARK   12  A    between atoms: O_27  and  C_28
REMARK                            x       y       z     vdW  Elec       q    Type
REMARK                         _______ _______ _______ _____ _____    ______ ____
ROOT
ATOM      1  C   UNL     1       0.412  10.700  20.524  0.00  0.00    +0.000 A 
ATOM      2  C   UNL     1       0.578  11.417  19.340  0.00  0.00    +0.000 A 
ATOM      3  C   UNL     1       1.219  10.825  18.249  0.00  0.00    +0.000 A 
ATOM      4  C   UNL     1       1.702   9.526  18.314  0.00  0.00    +0.000 A 
ATOM      5  N   UNL     1       2.302   8.986  17.245  0.00  0.00    +0.000 NA
ATOM      6  C   UNL     1       2.758   7.717  17.402  0.00  0.00    +0.000 A 
ATOM      7  C   UNL     1       2.641   6.964  18.576  0.00  0.00    +0.000 A 
ATOM      8  N   UNL     1       3.189   5.666  18.644  0.00  0.00    +0.000 N 
ATOM      9  N   UNL     1       2.007   7.526  19.627  0.00  0.00    +0.000 NA
ATOM     10  C   UNL     1       1.549   8.791  19.510  0.00  0.00    +0.000 A 
ATOM     11  C   UNL     1       0.907   9.390  20.589  0.00  0.00    +0.000 A 
ENDROOT
BRANCH   8  12
ATOM     12  C   UNL     1       4.487   5.319  18.140  0.00  0.00    +0.000 A 
ATOM     13  C   UNL     1       5.661   5.762  18.778  0.00  0.00    +0.000 A 
ATOM     14  C   UNL     1       6.933   5.432  18.294  0.00  0.00    +0.000 A 
ATOM     15  C   UNL     1       7.047   4.623  17.170  0.00  0.00    +0.000 A 
ATOM     16  C   UNL     1       5.902   4.171  16.509  0.00  0.00    +0.000 A 
ATOM     17  C   UNL     1       4.637   4.522  16.992  0.00  0.00    +0.000 A 
BRANCH  14  18
ATOM     18  O   UNL     1       7.978   5.958  19.007  0.00  0.00    +0.000 OA
ATOM     19  C   UNL     1       8.330   7.309  18.726  0.00  0.00    +0.000 C 
ENDBRANCH  14  18
BRANCH  16  20
ATOM     20  O   UNL     1       6.151   3.401  15.404  0.00  0.00    +0.000 OA
ATOM     21  C   UNL     1       6.079   4.047  14.139  0.00  0.00    +0.000 C 
ENDBRANCH  16  20
ENDBRANCH   8  12
BRANCH   1  24
ATOM     22  N   UNL     1      -1.116  12.778  23.045  0.00  0.00    +0.000 N 
ATOM     23  C   UNL     1      -0.478  12.645  21.844  0.00  0.00    +0.000 A 
ATOM     24  C   UNL     1      -0.285  11.293  21.652  0.00  0.00    +0.000 A 
ATOM     25  C   UNL     1      -0.899  10.699  22.781  0.00  0.00    +0.000 A 
ATOM     26  N   UNL     1      -1.423  11.597  23.621  0.00  0.00    +0.000 NA
BRANCH  22  27
ATOM     27  C   UNL     1      -1.421  14.016  23.731  0.00  0.00    +0.000 C 
BRANCH  27  30
ATOM     28  C   UNL     1      -2.735  16.857  21.597  0.00  0.00    +0.000 C 
ATOM     29  N   UNL     1      -1.889  15.945  22.322  0.00  0.00    +0.000 N 
ATOM     30  C   UNL     1      -2.417  14.841  22.957  0.00  0.00    +0.000 C 
ATOM     31  O   UNL     1      -3.599  14.516  22.867  0.00  0.00    +0.000 OA
ATOM     32  H   UNL     1      -0.944  16.234  22.567  0.00  0.00    +0.000 HD
ENDBRANCH  27  30
ENDBRANCH  22  27
ENDBRANCH   1  24
BRANCH   8  33
ATOM     33  C   UNL     1       2.656   4.655  19.599  0.00  0.00    +0.000 C 
BRANCH  33  34
ATOM     34  C   UNL     1       1.337   3.927  19.277  0.00  0.00    +0.000 C 
BRANCH  34  35
ATOM     35  N   UNL     1       1.257   3.539  17.855  0.00  0.00    +0.000 NA
ATOM     36  H   UNL     1       2.121   3.795  17.380  0.00  0.00    +0.000 HD
ATOM     37  H   UNL     1       0.520   4.089  17.413  0.00  0.00    +0.000 HD
ENDBRANCH  34  35
ENDBRANCH  33  34
ENDBRANCH   8  33
TORSDOF 9
ENDMDL
MODEL 7
REMARK VINA RESULT:      -7.4      2.510     10.743
REMARK  Name = 
REMARK  12 active torsions:
REMARK  status: ('A' for Active; 'I' for Inactive)
REMARK    1  A    between atoms: C_1  and  N_2
REMARK    2  A    between atoms: C_3  and  C_5
REMARK    3  A    between atoms: C_5  and  N_6
REMARK    4  A    between atoms: C_8  and  C_9
REMARK    5  A    between atoms: N_16  and  C_17
REMARK    6  A    between atoms: N_16  and  C_20
REMARK    7  A    between atoms: C_17  and  C_18
REMARK    8  A    between atoms: C_18  and  N_19
REMARK    9  A    between atoms: C_22  and  O_23
REMARK   10  A    between atoms: O_23  and  C_24
REMARK   11  A    between atoms: C_26  and  O_27
REMARK   12  A    between atoms: O_27  and  C_28
REMARK                            x       y       z     vdW  Elec       q    Type
REMARK                         _______ _______ _______ _____ _____    ______ ____
ROOT
ATOM      1  C   UNL     1       0.503  10.482  20.477  0.00  0.00    +0.000 A 
ATOM      2  C   UNL     1       0.628  11.145  19.257  0.00  0.00    +0.000 A 
ATOM      3  C   UNL     1       1.268  10.519  18.184  0.00  0.00    +0.000 A 
ATOM      4  C   UNL     1       1.790   9.239  18.302  0.00  0.00    +0.000 A 
ATOM      5  N   UNL     1       2.388   8.665  17.250  0.00  0.00    +0.000 NA
ATOM      6  C   UNL     1       2.884   7.418  17.459  0.00  0.00    +0.000 A 
ATOM      7  C   UNL     1       2.809   6.721  18.670  0.00  0.00    +0.000 A 
ATOM      8  N   UNL     1       3.395   5.444  18.790  0.00  0.00    +0.000 N 
ATOM      9  N   UNL     1       2.176   7.315  19.704  0.00  0.00    +0.000 NA
ATOM     10  C   UNL     1       1.679   8.559  19.535  0.00  0.00    +0.000 A 
ATOM     11  C   UNL     1       1.038   9.191  20.595  0.00  0.00    +0.000 A 
ENDROOT
BRANCH   8  12
ATOM     12  C   UNL     1       4.694   5.110  18.280  0.00  0.00    +0.000 A 
ATOM     13  C   UNL     1       4.850   4.483  17.030  0.00  0.00    +0.000 A 
ATOM     14  C   UNL     1       6.112   4.150  16.523  0.00  0.00    +0.000 A 
ATOM     15  C   UNL     1       7.248   4.468  17.258  0.00  0.00    +0.000 A 
ATOM     16  C   UNL     1       7.130   5.084  18.505  0.00  0.00    +0.000 A 
ATOM     17  C   UNL     1       5.862   5.396  19.009  0.00  0.00    +0.000 A 
BRANCH  14  18
ATOM     18  O   UNL     1       6.100   3.521  15.306  0.00  0.00    +0.000 OA
ATOM     19  C   UNL     1       5.920   4.346  14.159  0.00  0.00    +0.000 C 
ENDBRANCH  14  18
BRANCH  16  20
ATOM     20  O   UNL     1       8.321   5.324  19.136  0.00  0.00    +0.000 OA
ATOM     21  C   UNL     1       8.289   5.439  20.554  0.00  0.00    +0.000 C 
ENDBRANCH  16  20
ENDBRANCH   8  12
BRANCH   1  24
ATOM     22  N   UNL     1      -1.042  12.635  22.922  0.00  0.00    +0.000 N 
ATOM     23  C   UNL     1      -0.421  12.463  21.718  0.00  0.00    +0.000 A 
ATOM     24  C   UNL     1      -0.192  11.109  21.588  0.00  0.00    +0.000 A 
ATOM     25  C   UNL     1      -0.768  10.553  22.755  0.00  0.00    +0.000 A 
ATOM     26  N   UNL     1      -1.305  11.475  23.560  0.00  0.00    +0.000 NA
BRANCH  22  27
ATOM     27  C   UNL     1      -1.372  13.896  23.554  0.00  0.00    +0.000 C 
BRANCH  27  30
ATOM     28  C   UNL     1      -0.806  16.858  21.261  0.00  0.00    +0.000 C 
ATOM     29  N   UNL     1      -1.391  15.772  22.003  0.00  0.00    +0.000 N 
ATOM     30  C   UNL     1      -0.643  15.043  22.902  0.00  0.00    +0.000 C 
ATOM     31  O   UNL     1       0.518  15.326  23.195  0.00  0.00    +0.000 OA
ATOM     32  H   UNL     1      -2.285  15.389  21.699  0.00  0.00    +0.000 HD
ENDBRANCH  27  30
ENDBRANCH  22  27
ENDBRANCH   1  24
BRANCH   8  33
ATOM     33  C   UNL     1       2.908   4.465  19.803  0.00  0.00    +0.000 C 
BRANCH  33  34
ATOM     34  C   UNL     1       1.796   3.469  19.422  0.00  0.00    +0.000 C 
BRANCH  34  35
ATOM     35  N   UNL     1       0.597   3.635  20.265  0.00  0.00    +0.000 NA
ATOM     36  H   UNL     1       0.433   4.626  20.437  0.00  0.00    +0.000 HD
ATOM     37  H   UNL     1       0.786   3.220  21.178  0.00  0.00    +0.000 HD
ENDBRANCH  34  35
ENDBRANCH  33  34
ENDBRANCH   8  33
TORSDOF 9
ENDMDL
MODEL 8
REMARK VINA RESULT:      -7.4      2.772     10.961
REMARK  Name = 
REMARK  12 active torsions:
REMARK  status: ('A' for Active; 'I' for Inactive)
REMARK    1  A    between atoms: C_1  and  N_2
REMARK    2  A    between atoms: C_3  and  C_5
REMARK    3  A    between atoms: C_5  and  N_6
REMARK    4  A    between atoms: C_8  and  C_9
REMARK    5  A    between atoms: N_16  and  C_17
REMARK    6  A    between atoms: N_16  and  C_20
REMARK    7  A    between atoms: C_17  and  C_18
REMARK    8  A    between atoms: C_18  and  N_19
REMARK    9  A    between atoms: C_22  and  O_23
REMARK   10  A    between atoms: O_23  and  C_24
REMARK   11  A    between atoms: C_26  and  O_27
REMARK   12  A    between atoms: O_27  and  C_28
REMARK                            x       y       z     vdW  Elec       q    Type
REMARK                         _______ _______ _______ _____ _____    ______ ____
ROOT
ATOM      1  C   UNL     1       0.187  11.358  20.540  0.00  0.00    +0.000 A 
ATOM      2  C   UNL     1       0.455  11.997  19.330  0.00  0.00    +0.000 A 
ATOM      3  C   UNL     1       1.078  11.297  18.293  0.00  0.00    +0.000 A 
ATOM      4  C   UNL     1       1.441   9.966  18.437  0.00  0.00    +0.000 A 
ATOM      5  N   UNL     1       2.027   9.323  17.419  0.00  0.00    +0.000 NA
ATOM      6  C   UNL     1       2.363   8.029  17.652  0.00  0.00    +0.000 A 
ATOM      7  C   UNL     1       2.141   7.349  18.855  0.00  0.00    +0.000 A 
ATOM      8  N   UNL     1       2.569   6.014  19.005  0.00  0.00    +0.000 N 
ATOM      9  N   UNL     1       1.524   8.017  19.854  0.00  0.00    +0.000 NA
ATOM     10  C   UNL     1       1.184   9.309  19.660  0.00  0.00    +0.000 A 
ATOM     11  C   UNL     1       0.562  10.014  20.684  0.00  0.00    +0.000 A 
ENDROOT
BRANCH   8  12
ATOM     12  C   UNL     1       3.847   5.530  18.568  0.00  0.00    +0.000 A 
ATOM     13  C   UNL     1       4.021   4.984  17.283  0.00  0.00    +0.000 A 
ATOM     14  C   UNL     1       5.264   4.507  16.845  0.00  0.00    +0.000 A 
ATOM     15  C   UNL     1       6.364   4.596  17.690  0.00  0.00    +0.000 A 
ATOM     16  C   UNL     1       6.225   5.127  18.974  0.00  0.00    +0.000 A 
ATOM     17  C   UNL     1       4.975   5.584  19.405  0.00  0.00    +0.000 A 
BRANCH  14  18
ATOM     18  O   UNL     1       5.269   3.981  15.580  0.00  0.00    +0.000 OA
ATOM     19  C   UNL     1       6.464   4.143  14.823  0.00  0.00    +0.000 C 
ENDBRANCH  14  18
BRANCH  16  20
ATOM     20  O   UNL     1       7.379   5.138  19.712  0.00  0.00    +0.000 OA
ATOM     21  C   UNL     1       8.315   6.171  19.429  0.00  0.00    +0.000 C 
ENDBRANCH  16  20
ENDBRANCH   8  12
BRANCH   1  24
ATOM     22  N   UNL     1      -1.423  13.672  22.788  0.00  0.00    +0.000 N 
ATOM     23  C   UNL     1      -0.884  13.387  21.566  0.00  0.00    +0.000 A 
ATOM     24  C   UNL     1      -0.492  12.066  21.611  0.00  0.00    +0.000 A 
ATOM     25  C   UNL     1      -0.896  11.635  22.898  0.00  0.00    +0.000 A 
ATOM     26  N   UNL     1      -1.481  12.603  23.610  0.00  0.00    +0.000 NA
BRANCH  22  27
ATOM     27  C   UNL     1      -1.861  14.969  23.260  0.00  0.00    +0.000 C 
BRANCH  27  30
ATOM     28  C   UNL     1      -0.542  15.925  26.681  0.00  0.00    +0.000 C 
ATOM     29  N   UNL     1      -1.320  15.384  25.597  0.00  0.00    +0.000 N 
ATOM     30  C   UNL     1      -0.912  15.528  24.289  0.00  0.00    +0.000 C 
ATOM     31  O   UNL     1       0.166  16.028  23.973  0.00  0.00    +0.000 OA
ATOM     32  H   UNL     1      -2.284  15.103  25.772  0.00  0.00    +0.000 HD
ENDBRANCH  27  30
ENDBRANCH  22  27
ENDBRANCH   1  24
BRANCH   8  33
ATOM     33  C   UNL     1       1.917   5.102  19.986  0.00  0.00    +0.000 C 
BRANCH  33  34
ATOM     34  C   UNL     1       1.145   3.868  19.480  0.00  0.00    +0.000 C 
BRANCH  34  35
ATOM     35  N   UNL     1       0.697   3.006  20.592  0.00  0.00    +0.000 NA
ATOM     36  H   UNL     1       1.448   2.370  20.855  0.00  0.00    +0.000 HD
ATOM     37  H   UNL     1      -0.064   2.417  20.253  0.00  0.00    +0.000 HD
ENDBRANCH  34  35
ENDBRANCH  33  34
ENDBRANCH   8  33
TORSDOF 9
ENDMDL
MODEL 9
REMARK VINA RESULT:      -7.4      2.384     10.916
REMARK  Name = 
REMARK  12 active torsions:
REMARK  status: ('A' for Active; 'I' for Inactive)
REMARK    1  A    between atoms: C_1  and  N_2
REMARK    2  A    between atoms: C_3  and  C_5
REMARK    3  A    between atoms: C_5  and  N_6
REMARK    4  A    between atoms: C_8  and  C_9
REMARK    5  A    between atoms: N_16  and  C_17
REMARK    6  A    between atoms: N_16  and  C_20
REMARK    7  A    between atoms: C_17  and  C_18
REMARK    8  A    between atoms: C_18  and  N_19
REMARK    9  A    between atoms: C_22  and  O_23
REMARK   10  A    between atoms: O_23  and  C_24
REMARK   11  A    between atoms: C_26  and  O_27
REMARK   12  A    between atoms: O_27  and  C_28
REMARK                            x       y       z     vdW  Elec       q    Type
REMARK                         _______ _______ _______ _____ _____    ______ ____
ROOT
ATOM      1  C   UNL     1       0.539  10.003  20.443  0.00  0.00    +0.000 A 
ATOM      2  C   UNL     1       0.693  10.803  19.311  0.00  0.00    +0.000 A 
ATOM      3  C   UNL     1       1.400  10.320  18.206  0.00  0.00    +0.000 A 
ATOM      4  C   UNL     1       1.960   9.051  18.206  0.00  0.00    +0.000 A 
ATOM      5  N   UNL     1       2.623   8.617  17.126  0.00  0.00    +0.000 NA
ATOM      6  C   UNL     1       3.152   7.370  17.218  0.00  0.00    +0.000 A 
ATOM      7  C   UNL     1       3.048   6.539  18.340  0.00  0.00    +0.000 A 
ATOM      8  N   UNL     1       3.673   5.274  18.345  0.00  0.00    +0.000 N 
ATOM      9  N   UNL     1       2.351   6.994  19.402  0.00  0.00    +0.000 NA
ATOM     10  C   UNL     1       1.819   8.234  19.349  0.00  0.00    +0.000 A 
ATOM     11  C   UNL     1       1.112   8.724  20.442  0.00  0.00    +0.000 A 
ENDROOT
BRANCH   8  12
ATOM     12  C   UNL     1       5.003   5.037  17.862  0.00  0.00    +0.000 A 
ATOM     13  C   UNL     1       6.122   5.179  18.704  0.00  0.00    +0.000 A 
ATOM     14  C   UNL     1       7.426   4.953  18.244  0.00  0.00    +0.000 A 
ATOM     15  C   UNL     1       7.625   4.553  16.928  0.00  0.00    +0.000 A 
ATOM     16  C   UNL     1       6.537   4.409  16.064  0.00  0.00    +0.000 A 
ATOM     17  C   UNL     1       5.242   4.654  16.531  0.00  0.00    +0.000 A 
BRANCH  14  18
ATOM     18  O   UNL     1       8.411   5.157  19.174  0.00  0.00    +0.000 OA
ATOM     19  C   UNL     1       7.993   5.540  20.480  0.00  0.00    +0.000 C 
ENDBRANCH  14  18
BRANCH  16  20
ATOM     20  O   UNL     1       6.870   4.031  14.790  0.00  0.00    +0.000 OA
ATOM     21  C   UNL     1       5.816   3.984  13.836  0.00  0.00    +0.000 C 
ENDBRANCH  16  20
ENDBRANCH   8  12
BRANCH   1  24
ATOM     22  N   UNL     1      -1.521  11.722  22.852  0.00  0.00    +0.000 N 
ATOM     23  C   UNL     1      -1.049  11.587  21.577  0.00  0.00    +0.000 A 
ATOM     24  C   UNL     1      -0.225  10.481  21.582  0.00  0.00    +0.000 A 
ATOM     25  C   UNL     1      -0.317   9.994  22.908  0.00  0.00    +0.000 A 
ATOM     26  N   UNL     1      -1.121  10.733  23.679  0.00  0.00    +0.000 NA
BRANCH  22  27
ATOM     27  C   UNL     1      -2.326  12.810  23.367  0.00  0.00    +0.000 C 
BRANCH  27  30
ATOM     28  C   UNL     1      -1.579  16.283  22.050  0.00  0.00    +0.000 C 
ATOM     29  N   UNL     1      -2.187  15.008  22.330  0.00  0.00    +0.000 N 
ATOM     30  C   UNL     1      -1.615  14.131  23.228  0.00  0.00    +0.000 C 
ATOM     31  O   UNL     1      -0.629  14.413  23.907  0.00  0.00    +0.000 OA
ATOM     32  H   UNL     1      -2.902  14.651  21.698  0.00  0.00    +0.000 HD
ENDBRANCH  27  30
ENDBRANCH  22  27
ENDBRANCH   1  24
BRANCH   8  33
ATOM     33  C   UNL     1       3.176   4.174  19.219  0.00  0.00    +0.000 C 
BRANCH  33  34
ATOM     34  C   UNL     1       1.938   3.363  18.790  0.00  0.00    +0.000 C 
BRANCH  34  35
ATOM     35  N   UNL     1       1.916   3.123  17.334  0.00  0.00    +0.000 NA
ATOM     36  H   UNL     1       1.137   3.627  16.915  0.00  0.00    +0.000 HD
ATOM     37  H   UNL     1       1.727   2.133  17.175  0.00  0.00    +0.000 HD
ENDBRANCH  34  35
ENDBRANCH  33  34
ENDBRANCH   8  33
TORSDOF 9
ENDMDL
