MODEL 1
REMARK VINA RESULT:      -8.4      0.000      0.000
REMARK  Name = 
REMARK  5 active torsions:
REMARK  status: ('A' for Active; 'I' for Inactive)
REMARK    1  A    between atoms: C_1  and  C_2
REMARK    2  A    between atoms: N_4  and  C_5
REMARK    3  A    between atoms: C_5  and  C_6
REMARK    4  A    between atoms: C_11  and  C_12
REMARK    5  A    between atoms: C_13  and  C_14
REMARK                            x       y       z     vdW  Elec       q    Type
REMARK                         _______ _______ _______ _____ _____    ______ ____
ROOT
ATOM      1  C   UNL     1       1.927   4.490  18.004  0.00  0.00    +0.000 C 
ATOM      2  C   UNL     1       3.148   5.310  17.605  0.00  0.00    +0.000 A 
ATOM      3  C   UNL     1       4.137   4.465  16.957  0.00  0.00    +0.000 A 
ATOM      4  N   UNL     1       5.338   4.926  16.557  0.00  0.00    +0.000 N 
ATOM      5  C   UNL     1       5.595   6.271  16.740  0.00  0.00    +0.000 A 
ATOM      6  C   UNL     1       4.650   7.162  17.345  0.00  0.00    +0.000 A 
ATOM      7  C   UNL     1       3.372   6.777  17.819  0.00  0.00    +0.000 A 
ENDROOT
BRANCH   7   8
ATOM      8  C   UNL     1       2.343   7.836  18.497  0.00  0.00    +0.000 C 
ATOM      9  C   UNL     1       1.514   9.026  18.096  0.00  0.00    +0.000 C 
BRANCH   9  10
ATOM     10  C   UNL     1       0.509   9.923  19.033  0.00  0.00    +0.000 A 
ATOM     11  C   UNL     1      -0.225  10.791  18.235  0.00  0.00    +0.000 A 
ATOM     12  C   UNL     1      -1.244  11.584  18.626  0.00  0.00    +0.000 A 
ATOM     13  C   UNL     1      -1.416  11.954  19.946  0.00  0.00    +0.000 A 
ATOM     14  C   UNL     1      -0.866  11.175  20.894  0.00  0.00    +0.000 A 
ATOM     15  C   UNL     1      -1.353  11.500  22.193  0.00  0.00    +0.000 A 
ATOM     16  C   UNL     1      -1.073  10.713  23.254  0.00  0.00    +0.000 A 
ATOM     17  C   UNL     1      -0.275   9.590  23.044  0.00  0.00    +0.000 A 
ATOM     18  C   UNL     1       0.280   9.244  21.736  0.00  0.00    +0.000 A 
ATOM     19  C   UNL     1       0.022  10.060  20.577  0.00  0.00    +0.000 A 
ENDBRANCH   9  10
ENDBRANCH   7   8
BRANCH   4  20
ATOM     20  C   UNL     1       6.321   4.033  15.838  0.00  0.00    +0.000 C 
BRANCH  20  21
ATOM     21  C   UNL     1       6.767   4.363  14.386  0.00  0.00    +0.000 C 
ATOM     22  N   UNL     1       7.646   5.339  14.067  0.00  0.00    +0.000 N 
ATOM     23  O   UNL     1       6.290   3.678  13.485  0.00  0.00    +0.000 OA
ATOM     24  H   UNL     1       8.087   5.934  14.771  0.00  0.00    +0.000 HD
ATOM     25  H   UNL     1       7.909   5.489  13.079  0.00  0.00    +0.000 HD
ENDBRANCH  20  21
ENDBRANCH   4  20
TORSDOF 4
ENDMDL
MODEL 2
REMARK VINA RESULT:      -8.2      0.674      2.277
REMARK  Name = 
REMARK  5 active torsions:
REMARK  status: ('A' for Active; 'I' for Inactive)
REMARK    1  A    between atoms: C_1  and  C_2
REMARK    2  A    between atoms: N_4  and  C_5
REMARK    3  A    between atoms: C_5  and  C_6
REMARK    4  A    between atoms: C_11  and  C_12
REMARK    5  A    between atoms: C_13  and  C_14
REMARK                            x       y       z     vdW  Elec       q    Type
REMARK                         _______ _______ _______ _____ _____    ______ ____
ROOT
ATOM      1  C   UNL     1       1.861   4.225  18.284  0.00  0.00    +0.000 C 
ATOM      2  C   UNL     1       3.038   5.056  17.788  0.00  0.00    +0.000 A 
ATOM      3  C   UNL     1       3.953   4.231  17.016  0.00  0.00    +0.000 A 
ATOM      4  N   UNL     1       5.108   4.703  16.510  0.00  0.00    +0.000 N 
ATOM      5  C   UNL     1       5.388   6.042  16.708  0.00  0.00    +0.000 A 
ATOM      6  C   UNL     1       4.514   6.914  17.434  0.00  0.00    +0.000 A 
ATOM      7  C   UNL     1       3.289   6.515  18.023  0.00  0.00    +0.000 A 
ENDROOT
BRANCH   7   8
ATOM      8  C   UNL     1       2.339   7.553  18.836  0.00  0.00    +0.000 C 
ATOM      9  C   UNL     1       1.770   7.723  20.219  0.00  0.00    +0.000 C 
BRANCH   9  10
ATOM     10  C   UNL     1       0.818   8.937  20.780  0.00  0.00    +0.000 A 
ATOM     11  C   UNL     1       0.730   8.859  22.164  0.00  0.00    +0.000 A 
ATOM     12  C   UNL     1       0.153   9.757  22.990  0.00  0.00    +0.000 A 
ATOM     13  C   UNL     1      -0.793  10.659  22.542  0.00  0.00    +0.000 A 
ATOM     14  C   UNL     1      -0.806  10.956  21.230  0.00  0.00    +0.000 A 
ATOM     15  C   UNL     1      -1.622  12.092  20.954  0.00  0.00    +0.000 A 
ATOM     16  C   UNL     1      -1.616  12.668  19.733  0.00  0.00    +0.000 A 
ATOM     17  C   UNL     1      -0.808  12.105  18.747  0.00  0.00    +0.000 A 
ATOM     18  C   UNL     1       0.010  10.914  18.976  0.00  0.00    +0.000 A 
ATOM     19  C   UNL     1       0.027  10.255  20.258  0.00  0.00    +0.000 A 
ENDBRANCH   9  10
ENDBRANCH   7   8
BRANCH   4  20
ATOM     20  C   UNL     1       6.009   3.832  15.667  0.00  0.00    +0.000 C 
BRANCH  20  21
ATOM     21  C   UNL     1       6.556   4.350  14.308  0.00  0.00    +0.000 C 
ATOM     22  N   UNL     1       7.560   5.247  14.189  0.00  0.00    +0.000 N 
ATOM     23  O   UNL     1       6.041   3.899  13.288  0.00  0.00    +0.000 OA
ATOM     24  H   UNL     1       8.037   5.650  14.997  0.00  0.00    +0.000 HD
ATOM     25  H   UNL     1       7.884   5.532  13.249  0.00  0.00    +0.000 HD
ENDBRANCH  20  21
ENDBRANCH   4  20
TORSDOF 4
ENDMDL
MODEL 3
REMARK VINA RESULT:      -8.0      1.538      2.831
REMARK  Name = 
REMARK  5 active torsions:
REMARK  status: ('A' for Active; 'I' for Inactive)
REMARK    1  A    between atoms: C_1  and  C_2
REMARK    2  A    between atoms: N_4  and  C_5
REMARK    3  A    between atoms: C_5  and  C_6
REMARK    4  A    between atoms: C_11  and  C_12
REMARK    5  A    between atoms: C_13  and  C_14
REMARK                            x       y       z     vdW  Elec       q    Type
REMARK                         _______ _______ _______ _____ _____    ______ ____
ROOT
ATOM      1  C   UNL     1       1.669   4.748  18.128  0.00  0.00    +0.000 C 
ATOM      2  C   UNL     1       2.849   5.629  17.736  0.00  0.00    +0.000 A 
ATOM      3  C   UNL     1       4.003   4.810  17.398  0.00  0.00    +0.000 A 
ATOM      4  N   UNL     1       5.199   5.338  17.072  0.00  0.00    +0.000 N 
ATOM      5  C   UNL     1       5.292   6.716  17.019  0.00  0.00    +0.000 A 
ATOM      6  C   UNL     1       4.184   7.576  17.311  0.00  0.00    +0.000 A 
ATOM      7  C   UNL     1       2.893   7.126  17.683  0.00  0.00    +0.000 A 
ENDROOT
BRANCH   7   8
ATOM      8  C   UNL     1       1.675   8.153  18.003  0.00  0.00    +0.000 C 
ATOM      9  C   UNL     1       1.342   9.244  18.984  0.00  0.00    +0.000 C 
BRANCH   9  10
ATOM     10  C   UNL     1      -0.015  10.164  19.053  0.00  0.00    +0.000 A 
ATOM     11  C   UNL     1       0.104  11.098  20.074  0.00  0.00    +0.000 A 
ATOM     12  C   UNL     1      -0.744  12.112  20.348  0.00  0.00    +0.000 A 
ATOM     13  C   UNL     1      -2.057  12.101  19.916  0.00  0.00    +0.000 A 
ATOM     14  C   UNL     1      -2.364  11.332  18.857  0.00  0.00    +0.000 A 
ATOM     15  C   UNL     1      -3.661  11.630  18.346  0.00  0.00    +0.000 A 
ATOM     16  C   UNL     1      -4.081  11.107  17.175  0.00  0.00    +0.000 A 
ATOM     17  C   UNL     1      -3.218  10.251  16.493  0.00  0.00    +0.000 A 
ATOM     18  C   UNL     1      -1.897   9.885  17.003  0.00  0.00    +0.000 A 
ATOM     19  C   UNL     1      -1.410  10.405  18.256  0.00  0.00    +0.000 A 
ENDBRANCH   9  10
ENDBRANCH   7   8
BRANCH   4  20
ATOM     20  C   UNL     1       6.361   4.460  16.675  0.00  0.00    +0.000 C 
BRANCH  20  21
ATOM     21  C   UNL     1       6.837   4.408  15.197  0.00  0.00    +0.000 C 
ATOM     22  N   UNL     1       6.368   3.533  14.280  0.00  0.00    +0.000 N 
ATOM     23  O   UNL     1       7.687   5.227  14.854  0.00  0.00    +0.000 OA
ATOM     24  H   UNL     1       5.653   2.837  14.499  0.00  0.00    +0.000 HD
ATOM     25  H   UNL     1       6.720   3.570  13.309  0.00  0.00    +0.000 HD
ENDBRANCH  20  21
ENDBRANCH   4  20
TORSDOF 4
ENDMDL
MODEL 4
REMARK VINA RESULT:      -8.0      7.752     10.485
REMARK  Name = 
REMARK  5 active torsions:
REMARK  status: ('A' for Active; 'I' for Inactive)
REMARK    1  A    between atoms: C_1  and  C_2
REMARK    2  A    between atoms: N_4  and  C_5
REMARK    3  A    between atoms: C_5  and  C_6
REMARK    4  A    between atoms: C_11  and  C_12
REMARK    5  A    between atoms: C_13  and  C_14
REMARK                            x       y       z     vdW  Elec       q    Type
REMARK                         _______ _______ _______ _____ _____    ______ ____
ROOT
ATOM      1  C   UNL     1       7.576  12.776  17.163  0.00  0.00    +0.000 C 
ATOM      2  C   UNL     1       8.921  12.656  17.869  0.00  0.00    +0.000 A 
ATOM      3  C   UNL     1       9.505  13.971  18.077  0.00  0.00    +0.000 A 
ATOM      4  N   UNL     1      10.721  14.149  18.628  0.00  0.00    +0.000 N 
ATOM      5  C   UNL     1      11.399  13.020  19.047  0.00  0.00    +0.000 A 
ATOM      6  C   UNL     1      10.865  11.699  18.898  0.00  0.00    +0.000 A 
ATOM      7  C   UNL     1       9.609  11.401  18.315  0.00  0.00    +0.000 A 
ENDROOT
BRANCH   7   8
ATOM      8  C   UNL     1       9.058   9.879  18.174  0.00  0.00    +0.000 C 
ATOM      9  C   UNL     1       7.819   9.161  17.708  0.00  0.00    +0.000 C 
BRANCH   9  10
ATOM     10  C   UNL     1       7.544   7.544  17.659  0.00  0.00    +0.000 A 
ATOM     11  C   UNL     1       8.128   6.936  18.764  0.00  0.00    +0.000 A 
ATOM     12  C   UNL     1       8.001   5.647  19.140  0.00  0.00    +0.000 A 
ATOM     13  C   UNL     1       7.621   4.661  18.249  0.00  0.00    +0.000 A 
ATOM     14  C   UNL     1       6.941   5.035  17.151  0.00  0.00    +0.000 A 
ATOM     15  C   UNL     1       6.369   3.916  16.477  0.00  0.00    +0.000 A 
ATOM     16  C   UNL     1       5.492   4.091  15.466  0.00  0.00    +0.000 A 
ATOM     17  C   UNL     1       5.182   5.396  15.086  0.00  0.00    +0.000 A 
ATOM     18  C   UNL     1       5.779   6.570  15.721  0.00  0.00    +0.000 A 
ATOM     19  C   UNL     1       6.732   6.435  16.795  0.00  0.00    +0.000 A 
ENDBRANCH   9  10
ENDBRANCH   7   8
BRANCH   4  20
ATOM     20  C   UNL     1      11.274  15.531  18.878  0.00  0.00    +0.000 C 
BRANCH  20  21
ATOM     21  C   UNL     1      10.644  16.768  18.181  0.00  0.00    +0.000 C 
ATOM     22  N   UNL     1      10.956  17.174  16.929  0.00  0.00    +0.000 N 
ATOM     23  O   UNL     1       9.803  17.400  18.815  0.00  0.00    +0.000 OA
ATOM     24  H   UNL     1      11.638  16.684  16.347  0.00  0.00    +0.000 HD
ATOM     25  H   UNL     1      10.481  17.997  16.524  0.00  0.00    +0.000 HD
ENDBRANCH  20  21
ENDBRANCH   4  20
TORSDOF 4
ENDMDL
MODEL 5
REMARK VINA RESULT:      -8.0      5.293      9.683
REMARK  Name = 
REMARK  5 active torsions:
REMARK  status: ('A' for Active; 'I' for Inactive)
REMARK    1  A    between atoms: C_1  and  C_2
REMARK    2  A    between atoms: N_4  and  C_5
REMARK    3  A    between atoms: C_5  and  C_6
REMARK    4  A    between atoms: C_11  and  C_12
REMARK    5  A    between atoms: C_13  and  C_14
REMARK                            x       y       z     vdW  Elec       q    Type
REMARK                         _______ _______ _______ _____ _____    ______ ____
ROOT
ATOM      1  C   UNL     1      -0.204  11.246  18.952  0.00  0.00    +0.000 C 
ATOM      2  C   UNL     1      -0.331  10.723  20.378  0.00  0.00    +0.000 A 
ATOM      3  C   UNL     1      -1.059  11.674  21.203  0.00  0.00    +0.000 A 
ATOM      4  N   UNL     1      -1.262  11.486  22.522  0.00  0.00    +0.000 N 
ATOM      5  C   UNL     1      -0.789  10.312  23.077  0.00  0.00    +0.000 A 
ATOM      6  C   UNL     1      -0.091   9.323  22.310  0.00  0.00    +0.000 A 
ATOM      7  C   UNL     1       0.193   9.431  20.927  0.00  0.00    +0.000 A 
ENDROOT
BRANCH   7   8
ATOM      8  C   UNL     1       0.991   8.273  20.112  0.00  0.00    +0.000 C 
ATOM      9  C   UNL     1       2.046   8.161  19.044  0.00  0.00    +0.000 C 
BRANCH   9  10
ATOM     10  C   UNL     1       2.701   6.798  18.407  0.00  0.00    +0.000 A 
ATOM     11  C   UNL     1       3.832   7.123  17.670  0.00  0.00    +0.000 A 
ATOM     12  C   UNL     1       4.711   6.263  17.114  0.00  0.00    +0.000 A 
ATOM     13  C   UNL     1       4.376   4.950  16.843  0.00  0.00    +0.000 A 
ATOM     14  C   UNL     1       3.361   4.405  17.537  0.00  0.00    +0.000 A 
ATOM     15  C   UNL     1       3.309   2.990  17.372  0.00  0.00    +0.000 A 
ATOM     16  C   UNL     1       2.488   2.234  18.132  0.00  0.00    +0.000 A 
ATOM     17  C   UNL     1       1.678   2.881  19.064  0.00  0.00    +0.000 A 
ATOM     18  C   UNL     1       1.669   4.334  19.235  0.00  0.00    +0.000 A 
ATOM     19  C   UNL     1       2.516   5.184  18.437  0.00  0.00    +0.000 A 
ENDBRANCH   9  10
ENDBRANCH   7   8
BRANCH   4  20
ATOM     20  C   UNL     1      -2.069  12.467  23.338  0.00  0.00    +0.000 C 
BRANCH  20  21
ATOM     21  C   UNL     1      -3.617  12.350  23.403  0.00  0.00    +0.000 C 
ATOM     22  N   UNL     1      -4.436  12.547  22.346  0.00  0.00    +0.000 N 
ATOM     23  O   UNL     1      -4.111  12.047  24.486  0.00  0.00    +0.000 OA
ATOM     24  H   UNL     1      -4.087  12.789  21.417  0.00  0.00    +0.000 HD
ATOM     25  H   UNL     1      -5.457  12.434  22.461  0.00  0.00    +0.000 HD
ENDBRANCH  20  21
ENDBRANCH   4  20
TORSDOF 4
ENDMDL
MODEL 6
REMARK VINA RESULT:      -7.9      1.388      2.577
REMARK  Name = 
REMARK  5 active torsions:
REMARK  status: ('A' for Active; 'I' for Inactive)
REMARK    1  A    between atoms: C_1  and  C_2
REMARK    2  A    between atoms: N_4  and  C_5
REMARK    3  A    between atoms: C_5  and  C_6
REMARK    4  A    between atoms: C_11  and  C_12
REMARK    5  A    between atoms: C_13  and  C_14
REMARK                            x       y       z     vdW  Elec       q    Type
REMARK                         _______ _______ _______ _____ _____    ______ ____
ROOT
ATOM      1  C   UNL     1       2.385   4.769  19.974  0.00  0.00    +0.000 C 
ATOM      2  C   UNL     1       3.102   5.553  18.882  0.00  0.00    +0.000 A 
ATOM      3  C   UNL     1       3.977   4.677  18.120  0.00  0.00    +0.000 A 
ATOM      4  N   UNL     1       4.774   5.126  17.131  0.00  0.00    +0.000 N 
ATOM      5  C   UNL     1       4.701   6.470  16.817  0.00  0.00    +0.000 A 
ATOM      6  C   UNL     1       3.837   7.378  17.510  0.00  0.00    +0.000 A 
ATOM      7  C   UNL     1       2.978   7.015  18.576  0.00  0.00    +0.000 A 
ENDROOT
BRANCH   7   8
ATOM      8  C   UNL     1       2.020   8.094  19.324  0.00  0.00    +0.000 C 
ATOM      9  C   UNL     1       1.305   8.254  20.638  0.00  0.00    +0.000 C 
BRANCH   9  10
ATOM     10  C   UNL     1       0.389   9.518  21.145  0.00  0.00    +0.000 A 
ATOM     11  C   UNL     1      -0.015   9.307  22.457  0.00  0.00    +0.000 A 
ATOM     12  C   UNL     1      -0.661  10.181  23.257  0.00  0.00    +0.000 A 
ATOM     13  C   UNL     1      -1.380  11.244  22.744  0.00  0.00    +0.000 A 
ATOM     14  C   UNL     1      -1.067  11.678  21.511  0.00  0.00    +0.000 A 
ATOM     15  C   UNL     1      -1.674  12.936  21.224  0.00  0.00    +0.000 A 
ATOM     16  C   UNL     1      -1.334  13.632  20.118  0.00  0.00    +0.000 A 
ATOM     17  C   UNL     1      -0.391  13.074  19.256  0.00  0.00    +0.000 A 
ATOM     18  C   UNL     1       0.222  11.767  19.491  0.00  0.00    +0.000 A 
ATOM     19  C   UNL     1      -0.119  10.979  20.649  0.00  0.00    +0.000 A 
ENDBRANCH   9  10
ENDBRANCH   7   8
BRANCH   4  20
ATOM     20  C   UNL     1       5.630   4.180  16.324  0.00  0.00    +0.000 C 
BRANCH  20  21
ATOM     21  C   UNL     1       7.039   4.617  15.835  0.00  0.00    +0.000 C 
ATOM     22  N   UNL     1       7.284   5.167  14.625  0.00  0.00    +0.000 N 
ATOM     23  O   UNL     1       7.976   4.457  16.613  0.00  0.00    +0.000 OA
ATOM     24  H   UNL     1       6.546   5.337  13.939  0.00  0.00    +0.000 HD
ATOM     25  H   UNL     1       8.246   5.450  14.376  0.00  0.00    +0.000 HD
ENDBRANCH  20  21
ENDBRANCH   4  20
TORSDOF 4
ENDMDL
MODEL 7
REMARK VINA RESULT:      -7.9      2.024      3.280
REMARK  Name = 
REMARK  5 active torsions:
REMARK  status: ('A' for Active; 'I' for Inactive)
REMARK    1  A    between atoms: C_1  and  C_2
REMARK    2  A    between atoms: N_4  and  C_5
REMARK    3  A    between atoms: C_5  and  C_6
REMARK    4  A    between atoms: C_11  and  C_12
REMARK    5  A    between atoms: C_13  and  C_14
REMARK                            x       y       z     vdW  Elec       q    Type
REMARK                         _______ _______ _______ _____ _____    ______ ____
ROOT
ATOM      1  C   UNL     1       2.282   5.493  20.413  0.00  0.00    +0.000 C 
ATOM      2  C   UNL     1       3.121   6.030  19.260  0.00  0.00    +0.000 A 
ATOM      3  C   UNL     1       4.264   5.165  19.018  0.00  0.00    +0.000 A 
ATOM      4  N   UNL     1       5.202   5.440  18.091  0.00  0.00    +0.000 N 
ATOM      5  C   UNL     1       5.020   6.573  17.320  0.00  0.00    +0.000 A 
ATOM      6  C   UNL     1       3.899   7.449  17.489  0.00  0.00    +0.000 A 
ATOM      7  C   UNL     1       2.871   7.264  18.446  0.00  0.00    +0.000 A 
ENDROOT
BRANCH   7   8
ATOM      8  C   UNL     1       1.623   8.296  18.590  0.00  0.00    +0.000 C 
ATOM      9  C   UNL     1       0.881   9.299  17.749  0.00  0.00    +0.000 C 
BRANCH   9  10
ATOM     10  C   UNL     1      -0.411  10.218  18.174  0.00  0.00    +0.000 A 
ATOM     11  C   UNL     1      -0.098  10.976  19.295  0.00  0.00    +0.000 A 
ATOM     12  C   UNL     1      -0.851  11.946  19.853  0.00  0.00    +0.000 A 
ATOM     13  C   UNL     1      -2.214  12.024  19.640  0.00  0.00    +0.000 A 
ATOM     14  C   UNL     1      -2.713  11.438  18.538  0.00  0.00    +0.000 A 
ATOM     15  C   UNL     1      -4.060  11.833  18.292  0.00  0.00    +0.000 A 
ATOM     16  C   UNL     1      -4.677  11.509  17.136  0.00  0.00    +0.000 A 
ATOM     17  C   UNL     1      -3.965  10.758  16.202  0.00  0.00    +0.000 A 
ATOM     18  C   UNL     1      -2.597  10.296  16.432  0.00  0.00    +0.000 A 
ATOM     19  C   UNL     1      -1.901  10.603  17.657  0.00  0.00    +0.000 A 
ENDBRANCH   9  10
ENDBRANCH   7   8
BRANCH   4  20
ATOM     20  C   UNL     1       6.347   4.492  17.828  0.00  0.00    +0.000 C 
BRANCH  20  21
ATOM     21  C   UNL     1       6.777   4.162  16.372  0.00  0.00    +0.000 C 
ATOM     22  N   UNL     1       6.088   3.343  15.546  0.00  0.00    +0.000 N 
ATOM     23  O   UNL     1       7.803   4.695  15.957  0.00  0.00    +0.000 OA
ATOM     24  H   UNL     1       5.222   2.880  15.827  0.00  0.00    +0.000 HD
ATOM     25  H   UNL     1       6.427   3.185  14.583  0.00  0.00    +0.000 HD
ENDBRANCH  20  21
ENDBRANCH   4  20
TORSDOF 4
ENDMDL
MODEL 8
REMARK VINA RESULT:      -7.8      2.351      3.530
REMARK  Name = 
REMARK  5 active torsions:
REMARK  status: ('A' for Active; 'I' for Inactive)
REMARK    1  A    between atoms: C_1  and  C_2
REMARK    2  A    between atoms: N_4  and  C_5
REMARK    3  A    between atoms: C_5  and  C_6
REMARK    4  A    between atoms: C_11  and  C_12
REMARK    5  A    between atoms: C_13  and  C_14
REMARK                            x       y       z     vdW  Elec       q    Type
REMARK                         _______ _______ _______ _____ _____    ______ ____
ROOT
ATOM      1  C   UNL     1       2.208   5.527  20.375  0.00  0.00    +0.000 C 
ATOM      2  C   UNL     1       3.010   6.067  19.198  0.00  0.00    +0.000 A 
ATOM      3  C   UNL     1       4.141   5.199  18.914  0.00  0.00    +0.000 A 
ATOM      4  N   UNL     1       5.049   5.475  17.958  0.00  0.00    +0.000 N 
ATOM      5  C   UNL     1       4.846   6.612  17.199  0.00  0.00    +0.000 A 
ATOM      6  C   UNL     1       3.734   7.492  17.410  0.00  0.00    +0.000 A 
ATOM      7  C   UNL     1       2.738   7.305  18.399  0.00  0.00    +0.000 A 
ENDROOT
BRANCH   7   8
ATOM      8  C   UNL     1       1.500   8.341  18.589  0.00  0.00    +0.000 C 
ATOM      9  C   UNL     1       0.798   9.422  17.813  0.00  0.00    +0.000 C 
BRANCH   9  10
ATOM     10  C   UNL     1      -0.495  10.322  18.272  0.00  0.00    +0.000 A 
ATOM     11  C   UNL     1      -0.186  11.032  19.424  0.00  0.00    +0.000 A 
ATOM     12  C   UNL     1      -0.941  11.978  20.020  0.00  0.00    +0.000 A 
ATOM     13  C   UNL     1      -2.304  12.065  19.806  0.00  0.00    +0.000 A 
ATOM     14  C   UNL     1      -2.798  11.526  18.678  0.00  0.00    +0.000 A 
ATOM     15  C   UNL     1      -4.145  11.931  18.445  0.00  0.00    +0.000 A 
ATOM     16  C   UNL     1      -4.758  11.656  17.274  0.00  0.00    +0.000 A 
ATOM     17  C   UNL     1      -4.043  10.946  16.312  0.00  0.00    +0.000 A 
ATOM     18  C   UNL     1      -2.675  10.474  16.527  0.00  0.00    +0.000 A 
ATOM     19  C   UNL     1      -1.984  10.729  17.766  0.00  0.00    +0.000 A 
ENDBRANCH   9  10
ENDBRANCH   7   8
BRANCH   4  20
ATOM     20  C   UNL     1       6.181   4.524  17.653  0.00  0.00    +0.000 C 
BRANCH  20  21
ATOM     21  C   UNL     1       7.617   4.822  18.166  0.00  0.00    +0.000 C 
ATOM     22  N   UNL     1       7.930   5.847  18.990  0.00  0.00    +0.000 N 
ATOM     23  O   UNL     1       8.511   4.063  17.801  0.00  0.00    +0.000 OA
ATOM     24  H   UNL     1       7.231   6.506  19.339  0.00  0.00    +0.000 HD
ATOM     25  H   UNL     1       8.907   5.973  19.304  0.00  0.00    +0.000 HD
ENDBRANCH  20  21
ENDBRANCH   4  20
TORSDOF 4
ENDMDL
MODEL 9
REMARK VINA RESULT:      -7.8      5.175      9.782
REMARK  Name = 
REMARK  5 active torsions:
REMARK  status: ('A' for Active; 'I' for Inactive)
REMARK    1  A    between atoms: C_1  and  C_2
REMARK    2  A    between atoms: N_4  and  C_5
REMARK    3  A    between atoms: C_5  and  C_6
REMARK    4  A    between atoms: C_11  and  C_12
REMARK    5  A    between atoms: C_13  and  C_14
REMARK                            x       y       z     vdW  Elec       q    Type
REMARK                         _______ _______ _______ _____ _____    ______ ____
ROOT
ATOM      1  C   UNL     1       0.903  11.493  19.173  0.00  0.00    +0.000 C 
ATOM      2  C   UNL     1       0.408  10.834  20.454  0.00  0.00    +0.000 A 
ATOM      3  C   UNL     1      -0.272  11.806  21.295  0.00  0.00    +0.000 A 
ATOM      4  N   UNL     1      -0.756  11.501  22.515  0.00  0.00    +0.000 N 
ATOM      5  C   UNL     1      -0.630  10.191  22.939  0.00  0.00    +0.000 A 
ATOM      6  C   UNL     1       0.002   9.181  22.144  0.00  0.00    +0.000 A 
ATOM      7  C   UNL     1       0.562   9.400  20.861  0.00  0.00    +0.000 A 
ENDROOT
BRANCH   7   8
ATOM      8  C   UNL     1       1.267   8.210  20.008  0.00  0.00    +0.000 C 
ATOM      9  C   UNL     1       1.936   6.884  20.252  0.00  0.00    +0.000 C 
BRANCH   9  10
ATOM     10  C   UNL     1       2.559   5.845  19.144  0.00  0.00    +0.000 A 
ATOM     11  C   UNL     1       1.913   4.620  19.237  0.00  0.00    +0.000 A 
ATOM     12  C   UNL     1       2.053   3.565  18.407  0.00  0.00    +0.000 A 
ATOM     13  C   UNL     1       3.168   3.412  17.605  0.00  0.00    +0.000 A 
ATOM     14  C   UNL     1       3.883   4.511  17.304  0.00  0.00    +0.000 A 
ATOM     15  C   UNL     1       4.817   4.263  16.257  0.00  0.00    +0.000 A 
ATOM     16  C   UNL     1       5.493   5.278  15.678  0.00  0.00    +0.000 A 
ATOM     17  C   UNL     1       5.267   6.570  16.151  0.00  0.00    +0.000 A 
ATOM     18  C   UNL     1       4.350   6.862  17.252  0.00  0.00    +0.000 A 
ATOM     19  C   UNL     1       3.617   5.811  17.912  0.00  0.00    +0.000 A 
ENDBRANCH   9  10
ENDBRANCH   7   8
BRANCH   4  20
ATOM     20  C   UNL     1      -1.504  12.521  23.339  0.00  0.00    +0.000 C 
BRANCH  20  21
ATOM     21  C   UNL     1      -3.050  12.629  23.242  0.00  0.00    +0.000 C 
ATOM     22  N   UNL     1      -3.700  13.479  22.415  0.00  0.00    +0.000 N 
ATOM     23  O   UNL     1      -3.710  11.881  23.959  0.00  0.00    +0.000 OA
ATOM     24  H   UNL     1      -3.209  14.117  21.786  0.00  0.00    +0.000 HD
ATOM     25  H   UNL     1      -4.733  13.482  22.392  0.00  0.00    +0.000 HD
ENDBRANCH  20  21
ENDBRANCH   4  20
TORSDOF 4
ENDMDL
