MODEL 1
REMARK VINA RESULT:      -7.4      0.000      0.000
REMARK  Name = 
REMARK  6 active torsions:
REMARK  status: ('A' for Active; 'I' for Inactive)
REMARK    1  A    between atoms: C_1  and  C_2
REMARK    2  A    between atoms: C_2  and  C_3
REMARK    3  A    between atoms: C_3  and  C_4
REMARK    4  A    between atoms: C_4  and  C_5
REMARK    5  A    between atoms: C_9  and  C_10
REMARK    6  A    between atoms: C_10  and  O_12
REMARK                            x       y       z     vdW  Elec       q    Type
REMARK                         _______ _______ _______ _____ _____    ______ ____
ROOT
ATOM      1  C   UNL     1       3.625   4.625  19.387  0.00  0.00    +0.000 C 
ATOM      2  C   UNL     1       3.895   5.385  18.133  0.00  0.00    +0.000 C 
ATOM      3  C   UNL     1       4.253   4.786  16.770  0.00  0.00    +0.000 C 
ATOM      4  C   UNL     1       5.680   4.445  16.949  0.00  0.00    +0.000 A 
ATOM      5  C   UNL     1       6.856   4.400  16.182  0.00  0.00    +0.000 A 
ATOM      6  N   UNL     1       7.950   4.289  16.986  0.00  0.00    +0.000 NA
ATOM      7  N   UNL     1       7.450   4.418  18.245  0.00  0.00    +0.000 N 
ATOM      8  C   UNL     1       6.104   4.526  18.245  0.00  0.00    +0.000 A 
ATOM      9  C   UNL     1       5.046   5.082  19.174  0.00  0.00    +0.000 C 
ATOM     10  H   UNL     1       8.097   4.480  19.023  0.00  0.00    +0.000 HD
ENDROOT
BRANCH   5  11
ATOM     11  C   UNL     1       7.021   4.585  14.736  0.00  0.00    +0.000 C 
ATOM     12  O   UNL     1       7.663   5.487  14.217  0.00  0.00    +0.000 OA
BRANCH  11  13
ATOM     13  O   UNL     1       6.416   3.595  14.020  0.00  0.00    +0.000 OA
ATOM     14  H   UNL     1       5.888   4.052  13.323  0.00  0.00    +0.000 HD
ENDBRANCH  11  13
ENDBRANCH   5  11
BRANCH   1  15
ATOM     15  C   UNL     1       3.252   3.180  19.536  0.00  0.00    +0.000 C 
BRANCH  15  16
ATOM     16  C   UNL     1       1.756   3.031  19.194  0.00  0.00    +0.000 C 
BRANCH  16  18
ATOM     17  C   UNL     1       1.522   2.680  21.661  0.00  0.00    +0.000 C 
ATOM     18  C   UNL     1       0.809   3.121  20.386  0.00  0.00    +0.000 C 
ENDBRANCH  16  18
ENDBRANCH  15  16
ENDBRANCH   1  15
TORSDOF 5
ENDMDL
MODEL 2
REMARK VINA RESULT:      -7.2      0.938      1.489
REMARK  Name = 
REMARK  6 active torsions:
REMARK  status: ('A' for Active; 'I' for Inactive)
REMARK    1  A    between atoms: C_1  and  C_2
REMARK    2  A    between atoms: C_2  and  C_3
REMARK    3  A    between atoms: C_3  and  C_4
REMARK    4  A    between atoms: C_4  and  C_5
REMARK    5  A    between atoms: C_9  and  C_10
REMARK    6  A    between atoms: C_10  and  O_12
REMARK                            x       y       z     vdW  Elec       q    Type
REMARK                         _______ _______ _______ _____ _____    ______ ____
ROOT
ATOM      1  C   UNL     1       3.871   5.261  19.592  0.00  0.00    +0.000 C 
ATOM      2  C   UNL     1       4.157   5.919  18.285  0.00  0.00    +0.000 C 
ATOM      3  C   UNL     1       4.337   5.216  16.936  0.00  0.00    +0.000 C 
ATOM      4  C   UNL     1       5.713   4.687  17.046  0.00  0.00    +0.000 A 
ATOM      5  C   UNL     1       6.817   4.444  16.213  0.00  0.00    +0.000 A 
ATOM      6  N   UNL     1       7.937   4.217  16.953  0.00  0.00    +0.000 NA
ATOM      7  N   UNL     1       7.546   4.471  18.232  0.00  0.00    +0.000 N 
ATOM      8  C   UNL     1       6.230   4.765  18.308  0.00  0.00    +0.000 A 
ATOM      9  C   UNL     1       5.324   5.504  19.269  0.00  0.00    +0.000 C 
ATOM     10  H   UNL     1       8.247   4.476  18.965  0.00  0.00    +0.000 HD
ENDROOT
BRANCH   5  11
ATOM     11  C   UNL     1       6.907   4.539  14.752  0.00  0.00    +0.000 C 
ATOM     12  O   UNL     1       6.319   3.808  13.967  0.00  0.00    +0.000 OA
BRANCH  11  13
ATOM     13  O   UNL     1       7.688   5.583  14.353  0.00  0.00    +0.000 OA
ATOM     14  H   UNL     1       8.615   5.246  14.367  0.00  0.00    +0.000 HD
ENDBRANCH  11  13
ENDBRANCH   5  11
BRANCH   1  15
ATOM     15  C   UNL     1       3.316   3.891  19.840  0.00  0.00    +0.000 C 
BRANCH  15  16
ATOM     16  C   UNL     1       1.957   3.784  19.119  0.00  0.00    +0.000 C 
BRANCH  16  18
ATOM     17  C   UNL     1       3.142   1.852  18.058  0.00  0.00    +0.000 C 
ATOM     18  C   UNL     1       1.807   2.576  18.200  0.00  0.00    +0.000 C 
ENDBRANCH  16  18
ENDBRANCH  15  16
ENDBRANCH   1  15
TORSDOF 5
ENDMDL
MODEL 3
REMARK VINA RESULT:      -7.0      1.813      2.395
REMARK  Name = 
REMARK  6 active torsions:
REMARK  status: ('A' for Active; 'I' for Inactive)
REMARK    1  A    between atoms: C_1  and  C_2
REMARK    2  A    between atoms: C_2  and  C_3
REMARK    3  A    between atoms: C_3  and  C_4
REMARK    4  A    between atoms: C_4  and  C_5
REMARK    5  A    between atoms: C_9  and  C_10
REMARK    6  A    between atoms: C_10  and  O_12
REMARK                            x       y       z     vdW  Elec       q    Type
REMARK                         _______ _______ _______ _____ _____    ______ ____
ROOT
ATOM      1  C   UNL     1       2.114   5.270  19.130  0.00  0.00    +0.000 C 
ATOM      2  C   UNL     1       3.065   6.400  18.926  0.00  0.00    +0.000 C 
ATOM      3  C   UNL     1       3.923   6.651  17.683  0.00  0.00    +0.000 C 
ATOM      4  C   UNL     1       5.019   5.675  17.863  0.00  0.00    +0.000 A 
ATOM      5  C   UNL     1       6.392   5.572  17.589  0.00  0.00    +0.000 A 
ATOM      6  N   UNL     1       6.941   4.528  18.271  0.00  0.00    +0.000 NA
ATOM      7  N   UNL     1       5.934   4.091  19.074  0.00  0.00    +0.000 N 
ATOM      8  C   UNL     1       4.785   4.768  18.858  0.00  0.00    +0.000 A 
ATOM      9  C   UNL     1       3.520   5.062  19.635  0.00  0.00    +0.000 C 
ATOM     10  H   UNL     1       6.135   3.378  19.767  0.00  0.00    +0.000 HD
ENDROOT
BRANCH   5  11
ATOM     11  C   UNL     1       7.249   6.480  16.820  0.00  0.00    +0.000 C 
ATOM     12  O   UNL     1       7.610   7.586  17.197  0.00  0.00    +0.000 OA
BRANCH  11  13
ATOM     13  O   UNL     1       7.652   5.929  15.640  0.00  0.00    +0.000 OA
ATOM     14  H   UNL     1       7.748   6.682  15.010  0.00  0.00    +0.000 HD
ENDBRANCH  11  13
ENDBRANCH   5  11
BRANCH   1  15
ATOM     15  C   UNL     1       1.487   4.386  18.094  0.00  0.00    +0.000 C 
BRANCH  15  16
ATOM     16  C   UNL     1       1.647   2.922  18.550  0.00  0.00    +0.000 C 
BRANCH  16  18
ATOM     17  C   UNL     1       3.600   1.357  18.526  0.00  0.00    +0.000 C 
ATOM     18  C   UNL     1       2.556   2.068  17.671  0.00  0.00    +0.000 C 
ENDBRANCH  16  18
ENDBRANCH  15  16
ENDBRANCH   1  15
TORSDOF 5
ENDMDL
MODEL 4
REMARK VINA RESULT:      -6.9      3.475      5.700
REMARK  Name = 
REMARK  6 active torsions:
REMARK  status: ('A' for Active; 'I' for Inactive)
REMARK    1  A    between atoms: C_1  and  C_2
REMARK    2  A    between atoms: C_2  and  C_3
REMARK    3  A    between atoms: C_3  and  C_4
REMARK    4  A    between atoms: C_4  and  C_5
REMARK    5  A    between atoms: C_9  and  C_10
REMARK    6  A    between atoms: C_10  and  O_12
REMARK                            x       y       z     vdW  Elec       q    Type
REMARK                         _______ _______ _______ _____ _____    ______ ____
ROOT
ATOM      1  C   UNL     1       7.301   6.054  16.786  0.00  0.00    +0.000 C 
ATOM      2  C   UNL     1       6.416   5.059  16.115  0.00  0.00    +0.000 C 
ATOM      3  C   UNL     1       4.887   5.006  16.196  0.00  0.00    +0.000 C 
ATOM      4  C   UNL     1       4.670   4.400  17.527  0.00  0.00    +0.000 A 
ATOM      5  C   UNL     1       3.756   3.539  18.155  0.00  0.00    +0.000 A 
ATOM      6  N   UNL     1       4.252   3.097  19.345  0.00  0.00    +0.000 NA
ATOM      7  N   UNL     1       5.527   3.570  19.368  0.00  0.00    +0.000 N 
ATOM      8  C   UNL     1       5.802   4.336  18.290  0.00  0.00    +0.000 A 
ATOM      9  C   UNL     1       7.041   4.774  17.540  0.00  0.00    +0.000 C 
ATOM     10  H   UNL     1       6.144   3.275  20.117  0.00  0.00    +0.000 HD
ENDROOT
BRANCH   5  11
ATOM     11  C   UNL     1       2.492   3.003  17.640  0.00  0.00    +0.000 C 
ATOM     12  O   UNL     1       1.594   3.677  17.156  0.00  0.00    +0.000 OA
BRANCH  11  13
ATOM     13  O   UNL     1       2.445   1.642  17.710  0.00  0.00    +0.000 OA
ATOM     14  H   UNL     1       1.489   1.403  17.671  0.00  0.00    +0.000 HD
ENDBRANCH  11  13
ENDBRANCH   5  11
BRANCH   1  15
ATOM     15  C   UNL     1       6.937   7.402  17.332  0.00  0.00    +0.000 C 
BRANCH  15  16
ATOM     16  C   UNL     1       8.166   7.971  18.069  0.00  0.00    +0.000 C 
BRANCH  16  18
ATOM     17  C   UNL     1       9.195   9.980  19.150  0.00  0.00    +0.000 C 
ATOM     18  C   UNL     1       8.309   9.489  18.010  0.00  0.00    +0.000 C 
ENDBRANCH  16  18
ENDBRANCH  15  16
ENDBRANCH   1  15
TORSDOF 5
ENDMDL
MODEL 5
REMARK VINA RESULT:      -6.9      1.468      1.850
REMARK  Name = 
REMARK  6 active torsions:
REMARK  status: ('A' for Active; 'I' for Inactive)
REMARK    1  A    between atoms: C_1  and  C_2
REMARK    2  A    between atoms: C_2  and  C_3
REMARK    3  A    between atoms: C_3  and  C_4
REMARK    4  A    between atoms: C_4  and  C_5
REMARK    5  A    between atoms: C_9  and  C_10
REMARK    6  A    between atoms: C_10  and  O_12
REMARK                            x       y       z     vdW  Elec       q    Type
REMARK                         _______ _______ _______ _____ _____    ______ ____
ROOT
ATOM      1  C   UNL     1       2.162   5.337  19.093  0.00  0.00    +0.000 C 
ATOM      2  C   UNL     1       3.063   6.428  18.623  0.00  0.00    +0.000 C 
ATOM      3  C   UNL     1       3.931   6.407  17.361  0.00  0.00    +0.000 C 
ATOM      4  C   UNL     1       5.067   5.560  17.783  0.00  0.00    +0.000 A 
ATOM      5  C   UNL     1       6.449   5.460  17.551  0.00  0.00    +0.000 A 
ATOM      6  N   UNL     1       7.033   4.643  18.471  0.00  0.00    +0.000 NA
ATOM      7  N   UNL     1       6.032   4.368  19.351  0.00  0.00    +0.000 N 
ATOM      8  C   UNL     1       4.858   4.914  18.968  0.00  0.00    +0.000 A 
ATOM      9  C   UNL     1       3.567   5.327  19.642  0.00  0.00    +0.000 C 
ATOM     10  H   UNL     1       6.254   3.857  20.199  0.00  0.00    +0.000 HD
ENDROOT
BRANCH   5  11
ATOM     11  C   UNL     1       7.276   6.193  16.587  0.00  0.00    +0.000 C 
ATOM     12  O   UNL     1       7.805   7.274  16.802  0.00  0.00    +0.000 OA
BRANCH  11  13
ATOM     13  O   UNL     1       7.442   5.503  15.423  0.00  0.00    +0.000 OA
ATOM     14  H   UNL     1       8.415   5.396  15.309  0.00  0.00    +0.000 HD
ENDBRANCH  11  13
ENDBRANCH   5  11
BRANCH   1  15
ATOM     15  C   UNL     1       1.594   4.196  18.302  0.00  0.00    +0.000 C 
BRANCH  15  16
ATOM     16  C   UNL     1       0.820   3.279  19.269  0.00  0.00    +0.000 C 
BRANCH  16  18
ATOM     17  C   UNL     1       1.546   2.650  21.580  0.00  0.00    +0.000 C 
ATOM     18  C   UNL     1       1.686   2.332  20.095  0.00  0.00    +0.000 C 
ENDBRANCH  16  18
ENDBRANCH  15  16
ENDBRANCH   1  15
TORSDOF 5
ENDMDL
MODEL 6
REMARK VINA RESULT:      -6.9      2.414      3.240
REMARK  Name = 
REMARK  6 active torsions:
REMARK  status: ('A' for Active; 'I' for Inactive)
REMARK    1  A    between atoms: C_1  and  C_2
REMARK    2  A    between atoms: C_2  and  C_3
REMARK    3  A    between atoms: C_3  and  C_4
REMARK    4  A    between atoms: C_4  and  C_5
REMARK    5  A    between atoms: C_9  and  C_10
REMARK    6  A    between atoms: C_10  and  O_12
REMARK                            x       y       z     vdW  Elec       q    Type
REMARK                         _______ _______ _______ _____ _____    ______ ____
ROOT
ATOM      1  C   UNL     1       1.918   2.416  18.233  0.00  0.00    +0.000 C 
ATOM      2  C   UNL     1       3.376   2.109  18.272  0.00  0.00    +0.000 C 
ATOM      3  C   UNL     1       4.414   2.755  19.195  0.00  0.00    +0.000 C 
ATOM      4  C   UNL     1       4.640   4.060  18.538  0.00  0.00    +0.000 A 
ATOM      5  C   UNL     1       5.690   4.970  18.337  0.00  0.00    +0.000 A 
ATOM      6  N   UNL     1       5.361   5.880  17.378  0.00  0.00    +0.000 NA
ATOM      7  N   UNL     1       4.173   5.432  16.891  0.00  0.00    +0.000 N 
ATOM      8  C   UNL     1       3.731   4.343  17.557  0.00  0.00    +0.000 A 
ATOM      9  C   UNL     1       2.791   3.191  17.278  0.00  0.00    +0.000 C 
ATOM     10  H   UNL     1       3.773   5.891  16.079  0.00  0.00    +0.000 HD
ENDROOT
BRANCH   5  11
ATOM     11  C   UNL     1       7.042   4.957  18.906  0.00  0.00    +0.000 C 
ATOM     12  O   UNL     1       7.347   5.432  19.990  0.00  0.00    +0.000 OA
BRANCH  11  13
ATOM     13  O   UNL     1       7.929   4.298  18.107  0.00  0.00    +0.000 OA
ATOM     14  H   UNL     1       7.939   3.365  18.427  0.00  0.00    +0.000 HD
ENDBRANCH  11  13
ENDBRANCH   5  11
BRANCH   1  15
ATOM     15  C   UNL     1       1.079   3.081  19.284  0.00  0.00    +0.000 C 
BRANCH  15  16
ATOM     16  C   UNL     1       1.448   2.470  20.651  0.00  0.00    +0.000 C 
BRANCH  16  18
ATOM     17  C   UNL     1       2.067   4.859  21.069  0.00  0.00    +0.000 C 
ATOM     18  C   UNL     1       1.990   3.462  21.676  0.00  0.00    +0.000 C 
ENDBRANCH  16  18
ENDBRANCH  15  16
ENDBRANCH   1  15
TORSDOF 5
ENDMDL
MODEL 7
REMARK VINA RESULT:      -6.9      3.603      5.639
REMARK  Name = 
REMARK  6 active torsions:
REMARK  status: ('A' for Active; 'I' for Inactive)
REMARK    1  A    between atoms: C_1  and  C_2
REMARK    2  A    between atoms: C_2  and  C_3
REMARK    3  A    between atoms: C_3  and  C_4
REMARK    4  A    between atoms: C_4  and  C_5
REMARK    5  A    between atoms: C_9  and  C_10
REMARK    6  A    between atoms: C_10  and  O_12
REMARK                            x       y       z     vdW  Elec       q    Type
REMARK                         _______ _______ _______ _____ _____    ______ ____
ROOT
ATOM      1  C   UNL     1       5.305   4.501  14.263  0.00  0.00    +0.000 C 
ATOM      2  C   UNL     1       5.661   5.686  15.094  0.00  0.00    +0.000 C 
ATOM      3  C   UNL     1       6.930   5.857  15.935  0.00  0.00    +0.000 C 
ATOM      4  C   UNL     1       6.625   5.032  17.123  0.00  0.00    +0.000 A 
ATOM      5  C   UNL     1       6.888   5.035  18.503  0.00  0.00    +0.000 A 
ATOM      6  N   UNL     1       6.075   4.154  19.149  0.00  0.00    +0.000 NA
ATOM      7  N   UNL     1       5.218   3.725  18.184  0.00  0.00    +0.000 N 
ATOM      8  C   UNL     1       5.518   4.245  16.974  0.00  0.00    +0.000 A 
ATOM      9  C   UNL     1       4.782   4.508  15.678  0.00  0.00    +0.000 C 
ATOM     10  H   UNL     1       4.437   3.135  18.451  0.00  0.00    +0.000 HD
ENDROOT
BRANCH   5  11
ATOM     11  C   UNL     1       7.775   5.917  19.269  0.00  0.00    +0.000 C 
ATOM     12  O   UNL     1       8.227   6.977  18.861  0.00  0.00    +0.000 OA
BRANCH  11  13
ATOM     13  O   UNL     1       8.002   5.447  20.529  0.00  0.00    +0.000 OA
ATOM     14  H   UNL     1       7.794   4.484  20.498  0.00  0.00    +0.000 HD
ENDBRANCH  11  13
ENDBRANCH   5  11
BRANCH   1  15
ATOM     15  C   UNL     1       6.211   3.427  13.740  0.00  0.00    +0.000 C 
BRANCH  15  16
ATOM     16  C   UNL     1       6.165   3.466  12.199  0.00  0.00    +0.000 C 
BRANCH  16  18
ATOM     17  C   UNL     1       3.960   3.220  11.043  0.00  0.00    +0.000 C 
ATOM     18  C   UNL     1       5.192   2.483  11.557  0.00  0.00    +0.000 C 
ENDBRANCH  16  18
ENDBRANCH  15  16
ENDBRANCH   1  15
TORSDOF 5
ENDMDL
MODEL 8
REMARK VINA RESULT:      -6.8      0.645      1.042
REMARK  Name = 
REMARK  6 active torsions:
REMARK  status: ('A' for Active; 'I' for Inactive)
REMARK    1  A    between atoms: C_1  and  C_2
REMARK    2  A    between atoms: C_2  and  C_3
REMARK    3  A    between atoms: C_3  and  C_4
REMARK    4  A    between atoms: C_4  and  C_5
REMARK    5  A    between atoms: C_9  and  C_10
REMARK    6  A    between atoms: C_10  and  O_12
REMARK                            x       y       z     vdW  Elec       q    Type
REMARK                         _______ _______ _______ _____ _____    ______ ____
ROOT
ATOM      1  C   UNL     1       3.978   4.472  19.632  0.00  0.00    +0.000 C 
ATOM      2  C   UNL     1       4.056   5.209  18.339  0.00  0.00    +0.000 C 
ATOM      3  C   UNL     1       4.299   4.594  16.957  0.00  0.00    +0.000 C 
ATOM      4  C   UNL     1       5.757   4.350  16.982  0.00  0.00    +0.000 A 
ATOM      5  C   UNL     1       6.841   4.357  16.088  0.00  0.00    +0.000 A 
ATOM      6  N   UNL     1       8.022   4.340  16.766  0.00  0.00    +0.000 NA
ATOM      7  N   UNL     1       7.658   4.475  18.070  0.00  0.00    +0.000 N 
ATOM      8  C   UNL     1       6.316   4.497  18.220  0.00  0.00    +0.000 A 
ATOM      9  C   UNL     1       5.334   5.011  19.250  0.00  0.00    +0.000 C 
ATOM     10  H   UNL     1       8.382   4.601  18.769  0.00  0.00    +0.000 HD
ENDROOT
BRANCH   5  11
ATOM     11  C   UNL     1       6.831   4.509  14.629  0.00  0.00    +0.000 C 
ATOM     12  O   UNL     1       7.300   5.462  14.024  0.00  0.00    +0.000 OA
BRANCH  11  13
ATOM     13  O   UNL     1       6.281   3.429  14.004  0.00  0.00    +0.000 OA
ATOM     14  H   UNL     1       7.027   2.975  13.546  0.00  0.00    +0.000 HD
ENDBRANCH  11  13
ENDBRANCH   5  11
BRANCH   1  15
ATOM     15  C   UNL     1       3.722   3.011  19.855  0.00  0.00    +0.000 C 
BRANCH  15  16
ATOM     16  C   UNL     1       2.259   2.843  20.310  0.00  0.00    +0.000 C 
BRANCH  16  18
ATOM     17  C   UNL     1       0.881   3.351  18.284  0.00  0.00    +0.000 C 
ATOM     18  C   UNL     1       1.317   2.263  19.259  0.00  0.00    +0.000 C 
ENDBRANCH  16  18
ENDBRANCH  15  16
ENDBRANCH   1  15
TORSDOF 5
ENDMDL
MODEL 9
REMARK VINA RESULT:      -6.8      1.087      1.506
REMARK  Name = 
REMARK  6 active torsions:
REMARK  status: ('A' for Active; 'I' for Inactive)
REMARK    1  A    between atoms: C_1  and  C_2
REMARK    2  A    between atoms: C_2  and  C_3
REMARK    3  A    between atoms: C_3  and  C_4
REMARK    4  A    between atoms: C_4  and  C_5
REMARK    5  A    between atoms: C_9  and  C_10
REMARK    6  A    between atoms: C_10  and  O_12
REMARK                            x       y       z     vdW  Elec       q    Type
REMARK                         _______ _______ _______ _____ _____    ______ ____
ROOT
ATOM      1  C   UNL     1       2.667   5.120  19.890  0.00  0.00    +0.000 C 
ATOM      2  C   UNL     1       3.054   5.503  18.503  0.00  0.00    +0.000 C 
ATOM      3  C   UNL     1       3.704   4.591  17.458  0.00  0.00    +0.000 C 
ATOM      4  C   UNL     1       5.111   4.558  17.912  0.00  0.00    +0.000 A 
ATOM      5  C   UNL     1       6.396   4.479  17.352  0.00  0.00    +0.000 A 
ATOM      6  N   UNL     1       7.344   4.795  18.277  0.00  0.00    +0.000 NA
ATOM      7  N   UNL     1       6.627   5.212  19.356  0.00  0.00    +0.000 N 
ATOM      8  C   UNL     1       5.297   5.092  19.156  0.00  0.00    +0.000 A 
ATOM      9  C   UNL     1       4.041   5.719  19.720  0.00  0.00    +0.000 C 
ATOM     10  H   UNL     1       7.122   5.609  20.148  0.00  0.00    +0.000 HD
ENDROOT
BRANCH   5  11
ATOM     11  C   UNL     1       6.780   4.247  15.955  0.00  0.00    +0.000 C 
ATOM     12  O   UNL     1       7.556   4.946  15.320  0.00  0.00    +0.000 OA
BRANCH  11  13
ATOM     13  O   UNL     1       6.210   3.117  15.447  0.00  0.00    +0.000 OA
ATOM     14  H   UNL     1       6.545   3.039  14.523  0.00  0.00    +0.000 HD
ENDBRANCH  11  13
ENDBRANCH   5  11
BRANCH   1  15
ATOM     15  C   UNL     1       2.447   3.746  20.448  0.00  0.00    +0.000 C 
BRANCH  15  16
ATOM     16  C   UNL     1       0.973   3.360  20.209  0.00  0.00    +0.000 C 
BRANCH  16  18
ATOM     17  C   UNL     1       1.940   1.712  18.593  0.00  0.00    +0.000 C 
ATOM     18  C   UNL     1       0.714   2.550  18.942  0.00  0.00    +0.000 C 
ENDBRANCH  16  18
ENDBRANCH  15  16
ENDBRANCH   1  15
TORSDOF 5
ENDMDL
