MODEL 1
REMARK VINA RESULT:      -7.8      0.000      0.000
REMARK  Name = 
REMARK  10 active torsions:
REMARK  status: ('A' for Active; 'I' for Inactive)
REMARK    1  A    between atoms: C_1  and  C_2
REMARK    2  A    between atoms: C_2  and  O_3
REMARK    3  A    between atoms: O_3  and  C_4
REMARK    4  A    between atoms: C_4  and  C_6
REMARK    5  A    between atoms: C_7  and  C_8
REMARK    6  A    between atoms: N_9  and  C_10
REMARK    7  A    between atoms: C_10  and  C_11
REMARK    8  A    between atoms: C_20  and  C_21
REMARK    9  A    between atoms: C_24  and  O_25
REMARK   10  A    between atoms: O_25  and  C_26
REMARK                            x       y       z     vdW  Elec       q    Type
REMARK                         _______ _______ _______ _____ _____    ______ ____
ROOT
ATOM      1  C   UNL     1       3.437   5.111  18.262  0.00  0.00    +0.000 C 
ATOM      2  C   UNL     1       4.239   4.433  17.397  0.00  0.00    +0.000 C 
ATOM      3  C   UNL     1       4.006   3.023  16.889  0.00  0.00    +0.000 C 
ATOM      4  N   UNL     1       5.428   5.051  16.950  0.00  0.00    +0.000 N 
ATOM      5  C   UNL     1       5.718   6.386  17.193  0.00  0.00    +0.000 C 
ATOM      6  O   UNL     1       6.717   6.978  16.779  0.00  0.00    +0.000 OA
ATOM      7  N   UNL     1       4.822   7.078  17.924  0.00  0.00    +0.000 N 
ATOM      8  C   UNL     1       3.778   6.500  18.737  0.00  0.00    +0.000 C 
ATOM      9  H   UNL     1       5.079   8.042  18.090  0.00  0.00    +0.000 HD
ENDROOT
BRANCH   8  10
ATOM     10  C   UNL     1       2.642   7.517  18.761  0.00  0.00    +0.000 A 
ATOM     11  C   UNL     1       2.278   8.224  17.605  0.00  0.00    +0.000 A 
ATOM     12  C   UNL     1       1.332   9.249  17.667  0.00  0.00    +0.000 A 
ATOM     13  C   UNL     1       0.712   9.574  18.875  0.00  0.00    +0.000 A 
ATOM     14  C   UNL     1       1.053   8.871  20.028  0.00  0.00    +0.000 A 
ATOM     15  C   UNL     1       2.010   7.850  19.973  0.00  0.00    +0.000 A 
BRANCH  13  16
ATOM     16  O   UNL     1      -0.159  10.626  18.814  0.00  0.00    +0.000 OA
ATOM     17  C   UNL     1      -1.294  10.444  17.977  0.00  0.00    +0.000 C 
ENDBRANCH  13  16
ENDBRANCH   8  10
BRANCH   1  18
ATOM     18  C   UNL     1       2.285   4.522  19.006  0.00  0.00    +0.000 C 
ATOM     19  O   UNL     1       1.212   4.268  18.479  0.00  0.00    +0.000 OA
BRANCH  18  20
ATOM     20  O   UNL     1       2.586   4.324  20.302  0.00  0.00    +0.000 OA
BRANCH  20  22
ATOM     21  C   UNL     1       1.611   2.548  21.545  0.00  0.00    +0.000 C 
ATOM     22  C   UNL     1       2.816   2.980  20.745  0.00  0.00    +0.000 C 
ENDBRANCH  20  22
ENDBRANCH  18  20
ENDBRANCH   1  18
BRANCH   4  23
ATOM     23  C   UNL     1       6.505   4.282  16.303  0.00  0.00    +0.000 C 
BRANCH  23  24
ATOM     24  C   UNL     1       6.588   4.376  14.796  0.00  0.00    +0.000 A 
ATOM     25  C   UNL     1       7.576   5.154  14.178  0.00  0.00    +0.000 A 
ATOM     26  C   UNL     1       7.730   5.134  12.790  0.00  0.00    +0.000 A 
ATOM     27  C   UNL     1       6.896   4.343  12.003  0.00  0.00    +0.000 A 
ATOM     28  C   UNL     1       5.897   3.581  12.601  0.00  0.00    +0.000 A 
ATOM     29  C   UNL     1       5.746   3.592  13.988  0.00  0.00    +0.000 A 
ENDBRANCH  23  24
ENDBRANCH   4  23
TORSDOF 7
ENDMDL
MODEL 2
REMARK VINA RESULT:      -7.3      0.693      1.158
REMARK  Name = 
REMARK  10 active torsions:
REMARK  status: ('A' for Active; 'I' for Inactive)
REMARK    1  A    between atoms: C_1  and  C_2
REMARK    2  A    between atoms: C_2  and  O_3
REMARK    3  A    between atoms: O_3  and  C_4
REMARK    4  A    between atoms: C_4  and  C_6
REMARK    5  A    between atoms: C_7  and  C_8
REMARK    6  A    between atoms: N_9  and  C_10
REMARK    7  A    between atoms: C_10  and  C_11
REMARK    8  A    between atoms: C_20  and  C_21
REMARK    9  A    between atoms: C_24  and  O_25
REMARK   10  A    between atoms: O_25  and  C_26
REMARK                            x       y       z     vdW  Elec       q    Type
REMARK                         _______ _______ _______ _____ _____    ______ ____
ROOT
ATOM      1  C   UNL     1       3.433   4.991  17.831  0.00  0.00    +0.000 C 
ATOM      2  C   UNL     1       4.248   4.383  16.927  0.00  0.00    +0.000 C 
ATOM      3  C   UNL     1       3.909   3.147  16.116  0.00  0.00    +0.000 C 
ATOM      4  N   UNL     1       5.551   4.896  16.737  0.00  0.00    +0.000 N 
ATOM      5  C   UNL     1       5.970   6.102  17.280  0.00  0.00    +0.000 C 
ATOM      6  O   UNL     1       7.078   6.611  17.099  0.00  0.00    +0.000 OA
ATOM      7  N   UNL     1       5.081   6.763  18.047  0.00  0.00    +0.000 N 
ATOM      8  C   UNL     1       3.879   6.197  18.616  0.00  0.00    +0.000 C 
ATOM      9  H   UNL     1       5.431   7.629  18.435  0.00  0.00    +0.000 HD
ENDROOT
BRANCH   8  10
ATOM     10  C   UNL     1       2.883   7.345  18.739  0.00  0.00    +0.000 A 
ATOM     11  C   UNL     1       2.177   7.566  19.932  0.00  0.00    +0.000 A 
ATOM     12  C   UNL     1       1.170   8.530  19.993  0.00  0.00    +0.000 A 
ATOM     13  C   UNL     1       0.861   9.310  18.878  0.00  0.00    +0.000 A 
ATOM     14  C   UNL     1       1.563   9.112  17.690  0.00  0.00    +0.000 A 
ATOM     15  C   UNL     1       2.566   8.137  17.621  0.00  0.00    +0.000 A 
BRANCH  13  16
ATOM     16  O   UNL     1      -0.175  10.185  19.051  0.00  0.00    +0.000 OA
ATOM     17  C   UNL     1       0.171  11.564  19.053  0.00  0.00    +0.000 C 
ENDBRANCH  13  16
ENDBRANCH   8  10
BRANCH   1  18
ATOM     18  C   UNL     1       2.133   4.444  18.319  0.00  0.00    +0.000 C 
ATOM     19  O   UNL     1       1.119   4.426  17.637  0.00  0.00    +0.000 OA
BRANCH  18  20
ATOM     20  O   UNL     1       2.233   3.991  19.583  0.00  0.00    +0.000 OA
BRANCH  20  22
ATOM     21  C   UNL     1       1.330   2.822  21.444  0.00  0.00    +0.000 C 
ATOM     22  C   UNL     1       1.024   3.787  20.325  0.00  0.00    +0.000 C 
ENDBRANCH  20  22
ENDBRANCH  18  20
ENDBRANCH   1  18
BRANCH   4  23
ATOM     23  C   UNL     1       6.598   4.117  16.054  0.00  0.00    +0.000 C 
BRANCH  23  24
ATOM     24  C   UNL     1       6.729   4.330  14.563  0.00  0.00    +0.000 A 
ATOM     25  C   UNL     1       7.626   5.276  14.048  0.00  0.00    +0.000 A 
ATOM     26  C   UNL     1       7.840   5.377  12.672  0.00  0.00    +0.000 A 
ATOM     27  C   UNL     1       7.155   4.541  11.793  0.00  0.00    +0.000 A 
ATOM     28  C   UNL     1       6.245   3.611  12.288  0.00  0.00    +0.000 A 
ATOM     29  C   UNL     1       6.037   3.502  13.663  0.00  0.00    +0.000 A 
ENDBRANCH  23  24
ENDBRANCH   4  23
TORSDOF 7
ENDMDL
MODEL 3
REMARK VINA RESULT:      -7.1      3.634      5.152
REMARK  Name = 
REMARK  10 active torsions:
REMARK  status: ('A' for Active; 'I' for Inactive)
REMARK    1  A    between atoms: C_1  and  C_2
REMARK    2  A    between atoms: C_2  and  O_3
REMARK    3  A    between atoms: O_3  and  C_4
REMARK    4  A    between atoms: C_4  and  C_6
REMARK    5  A    between atoms: C_7  and  C_8
REMARK    6  A    between atoms: N_9  and  C_10
REMARK    7  A    between atoms: C_10  and  C_11
REMARK    8  A    between atoms: C_20  and  C_21
REMARK    9  A    between atoms: C_24  and  O_25
REMARK   10  A    between atoms: O_25  and  C_26
REMARK                            x       y       z     vdW  Elec       q    Type
REMARK                         _______ _______ _______ _____ _____    ______ ____
ROOT
ATOM      1  C   UNL     1       1.087   8.233  20.204  0.00  0.00    +0.000 C 
ATOM      2  C   UNL     1       1.846   7.117  20.033  0.00  0.00    +0.000 C 
ATOM      3  C   UNL     1       1.801   5.872  20.896  0.00  0.00    +0.000 C 
ATOM      4  N   UNL     1       2.805   7.104  18.995  0.00  0.00    +0.000 N 
ATOM      5  C   UNL     1       2.875   8.091  18.024  0.00  0.00    +0.000 C 
ATOM      6  O   UNL     1       3.661   8.093  17.073  0.00  0.00    +0.000 OA
ATOM      7  N   UNL     1       2.000   9.111  18.130  0.00  0.00    +0.000 N 
ATOM      8  C   UNL     1       1.234   9.438  19.311  0.00  0.00    +0.000 C 
ATOM      9  H   UNL     1       2.095   9.816  17.412  0.00  0.00    +0.000 HD
ENDROOT
BRANCH   8  10
ATOM     10  C   UNL     1      -0.053  10.092  18.819  0.00  0.00    +0.000 A 
ATOM     11  C   UNL     1      -0.641  11.152  19.523  0.00  0.00    +0.000 A 
ATOM     12  C   UNL     1      -1.888  11.653  19.144  0.00  0.00    +0.000 A 
ATOM     13  C   UNL     1      -2.562  11.125  18.041  0.00  0.00    +0.000 A 
ATOM     14  C   UNL     1      -1.983  10.081  17.322  0.00  0.00    +0.000 A 
ATOM     15  C   UNL     1      -0.738   9.567  17.708  0.00  0.00    +0.000 A 
BRANCH  13  16
ATOM     16  O   UNL     1      -3.793  11.667  17.800  0.00  0.00    +0.000 OA
ATOM     17  C   UNL     1      -4.416  11.277  16.583  0.00  0.00    +0.000 C 
ENDBRANCH  13  16
ENDBRANCH   8  10
BRANCH   1  18
ATOM     18  C   UNL     1       0.208   8.502  21.380  0.00  0.00    +0.000 C 
ATOM     19  O   UNL     1      -0.883   7.972  21.531  0.00  0.00    +0.000 OA
BRANCH  18  20
ATOM     20  O   UNL     1       0.769   9.389  22.222  0.00  0.00    +0.000 OA
BRANCH  20  22
ATOM     21  C   UNL     1      -0.932  10.792  23.107  0.00  0.00    +0.000 C 
ATOM     22  C   UNL     1       0.069   9.710  23.430  0.00  0.00    +0.000 C 
ENDBRANCH  20  22
ENDBRANCH  18  20
ENDBRANCH   1  18
BRANCH   4  23
ATOM     23  C   UNL     1       3.884   6.102  18.951  0.00  0.00    +0.000 C 
BRANCH  23  24
ATOM     24  C   UNL     1       3.493   4.711  18.505  0.00  0.00    +0.000 A 
ATOM     25  C   UNL     1       4.129   3.580  19.035  0.00  0.00    +0.000 A 
ATOM     26  C   UNL     1       3.677   2.298  18.719  0.00  0.00    +0.000 A 
ATOM     27  C   UNL     1       2.589   2.128  17.865  0.00  0.00    +0.000 A 
ATOM     28  C   UNL     1       1.960   3.241  17.315  0.00  0.00    +0.000 A 
ATOM     29  C   UNL     1       2.404   4.524  17.636  0.00  0.00    +0.000 A 
ENDBRANCH  23  24
ENDBRANCH   4  23
TORSDOF 7
ENDMDL
MODEL 4
REMARK VINA RESULT:      -7.1      1.783      7.501
REMARK  Name = 
REMARK  10 active torsions:
REMARK  status: ('A' for Active; 'I' for Inactive)
REMARK    1  A    between atoms: C_1  and  C_2
REMARK    2  A    between atoms: C_2  and  O_3
REMARK    3  A    between atoms: O_3  and  C_4
REMARK    4  A    between atoms: C_4  and  C_6
REMARK    5  A    between atoms: C_7  and  C_8
REMARK    6  A    between atoms: N_9  and  C_10
REMARK    7  A    between atoms: C_10  and  C_11
REMARK    8  A    between atoms: C_20  and  C_21
REMARK    9  A    between atoms: C_24  and  O_25
REMARK   10  A    between atoms: O_25  and  C_26
REMARK                            x       y       z     vdW  Elec       q    Type
REMARK                         _______ _______ _______ _____ _____    ______ ____
ROOT
ATOM      1  C   UNL     1       2.096   6.943  19.566  0.00  0.00    +0.000 C 
ATOM      2  C   UNL     1       1.701   8.079  20.201  0.00  0.00    +0.000 C 
ATOM      3  C   UNL     1       1.354   8.199  21.672  0.00  0.00    +0.000 C 
ATOM      4  N   UNL     1       1.544   9.260  19.441  0.00  0.00    +0.000 N 
ATOM      5  C   UNL     1       1.962   9.366  18.122  0.00  0.00    +0.000 C 
ATOM      6  O   UNL     1       1.891  10.390  17.439  0.00  0.00    +0.000 OA
ATOM      7  N   UNL     1       2.498   8.262  17.565  0.00  0.00    +0.000 N 
ATOM      8  C   UNL     1       2.383   6.920  18.087  0.00  0.00    +0.000 C 
ATOM      9  H   UNL     1       2.774   8.378  16.599  0.00  0.00    +0.000 HD
ENDROOT
BRANCH   8  10
ATOM     10  C   UNL     1       3.639   6.179  17.641  0.00  0.00    +0.000 A 
ATOM     11  C   UNL     1       4.838   6.867  17.397  0.00  0.00    +0.000 A 
ATOM     12  C   UNL     1       5.941   6.203  16.858  0.00  0.00    +0.000 A 
ATOM     13  C   UNL     1       5.883   4.837  16.575  0.00  0.00    +0.000 A 
ATOM     14  C   UNL     1       4.704   4.138  16.826  0.00  0.00    +0.000 A 
ATOM     15  C   UNL     1       3.590   4.803  17.354  0.00  0.00    +0.000 A 
BRANCH  13  16
ATOM     16  O   UNL     1       7.011   4.314  16.008  0.00  0.00    +0.000 OA
ATOM     17  C   UNL     1       7.207   4.607  14.631  0.00  0.00    +0.000 C 
ENDBRANCH  13  16
ENDBRANCH   8  10
BRANCH   1  18
ATOM     18  C   UNL     1       2.082   5.576  20.164  0.00  0.00    +0.000 C 
ATOM     19  O   UNL     1       2.996   5.137  20.846  0.00  0.00    +0.000 OA
BRANCH  18  20
ATOM     20  O   UNL     1       0.954   4.913  19.849  0.00  0.00    +0.000 OA
BRANCH  20  22
ATOM     21  C   UNL     1       0.953   2.721  18.930  0.00  0.00    +0.000 C 
ATOM     22  C   UNL     1       0.863   3.527  20.203  0.00  0.00    +0.000 C 
ENDBRANCH  20  22
ENDBRANCH  18  20
ENDBRANCH   1  18
BRANCH   4  23
ATOM     23  C   UNL     1       0.806  10.424  19.962  0.00  0.00    +0.000 C 
BRANCH  23  24
ATOM     24  C   UNL     1      -0.590  10.631  19.420  0.00  0.00    +0.000 A 
ATOM     25  C   UNL     1      -1.335  11.767  19.767  0.00  0.00    +0.000 A 
ATOM     26  C   UNL     1      -2.568  12.019  19.164  0.00  0.00    +0.000 A 
ATOM     27  C   UNL     1      -3.077  11.139  18.211  0.00  0.00    +0.000 A 
ATOM     28  C   UNL     1      -2.358   9.996  17.871  0.00  0.00    +0.000 A 
ATOM     29  C   UNL     1      -1.121   9.746  18.466  0.00  0.00    +0.000 A 
ENDBRANCH  23  24
ENDBRANCH   4  23
TORSDOF 7
ENDMDL
MODEL 5
REMARK VINA RESULT:      -7.0      3.609      5.183
REMARK  Name = 
REMARK  10 active torsions:
REMARK  status: ('A' for Active; 'I' for Inactive)
REMARK    1  A    between atoms: C_1  and  C_2
REMARK    2  A    between atoms: C_2  and  O_3
REMARK    3  A    between atoms: O_3  and  C_4
REMARK    4  A    between atoms: C_4  and  C_6
REMARK    5  A    between atoms: C_7  and  C_8
REMARK    6  A    between atoms: N_9  and  C_10
REMARK    7  A    between atoms: C_10  and  C_11
REMARK    8  A    between atoms: C_20  and  C_21
REMARK    9  A    between atoms: C_24  and  O_25
REMARK   10  A    between atoms: O_25  and  C_26
REMARK                            x       y       z     vdW  Elec       q    Type
REMARK                         _______ _______ _______ _____ _____    ______ ____
ROOT
ATOM      1  C   UNL     1       1.069   8.182  20.242  0.00  0.00    +0.000 C 
ATOM      2  C   UNL     1       1.814   7.051  20.111  0.00  0.00    +0.000 C 
ATOM      3  C   UNL     1       1.733   5.825  21.000  0.00  0.00    +0.000 C 
ATOM      4  N   UNL     1       2.793   7.000  19.093  0.00  0.00    +0.000 N 
ATOM      5  C   UNL     1       2.897   7.965  18.102  0.00  0.00    +0.000 C 
ATOM      6  O   UNL     1       3.702   7.934  17.168  0.00  0.00    +0.000 OA
ATOM      7  N   UNL     1       2.036   8.999  18.169  0.00  0.00    +0.000 N 
ATOM      8  C   UNL     1       1.253   9.364  19.326  0.00  0.00    +0.000 C 
ATOM      9  H   UNL     1       2.156   9.687  17.437  0.00  0.00    +0.000 HD
ENDROOT
BRANCH   8  10
ATOM     10  C   UNL     1      -0.014  10.026  18.794  0.00  0.00    +0.000 A 
ATOM     11  C   UNL     1      -0.610  11.099  19.473  0.00  0.00    +0.000 A 
ATOM     12  C   UNL     1      -1.841  11.609  19.056  0.00  0.00    +0.000 A 
ATOM     13  C   UNL     1      -2.491  11.077  17.941  0.00  0.00    +0.000 A 
ATOM     14  C   UNL     1      -1.905  10.019  17.248  0.00  0.00    +0.000 A 
ATOM     15  C   UNL     1      -0.675   9.498  17.671  0.00  0.00    +0.000 A 
BRANCH  13  16
ATOM     16  O   UNL     1      -3.710  11.629  17.663  0.00  0.00    +0.000 OA
ATOM     17  C   UNL     1      -4.528  11.926  18.786  0.00  0.00    +0.000 C 
ENDBRANCH  13  16
ENDBRANCH   8  10
BRANCH   1  18
ATOM     18  C   UNL     1       0.171   8.489  21.394  0.00  0.00    +0.000 C 
ATOM     19  O   UNL     1      -0.932   7.981  21.533  0.00  0.00    +0.000 OA
BRANCH  18  20
ATOM     20  O   UNL     1       0.731   9.382  22.230  0.00  0.00    +0.000 OA
BRANCH  20  22
ATOM     21  C   UNL     1      -0.958  10.830  23.068  0.00  0.00    +0.000 C 
ATOM     22  C   UNL     1       0.016   9.733  23.422  0.00  0.00    +0.000 C 
ENDBRANCH  20  22
ENDBRANCH  18  20
ENDBRANCH   1  18
BRANCH   4  23
ATOM     23  C   UNL     1       3.857   5.981  19.093  0.00  0.00    +0.000 C 
BRANCH  23  24
ATOM     24  C   UNL     1       3.442   4.576  18.722  0.00  0.00    +0.000 A 
ATOM     25  C   UNL     1       2.551   4.344  17.665  0.00  0.00    +0.000 A 
ATOM     26  C   UNL     1       2.273   3.043  17.242  0.00  0.00    +0.000 A 
ATOM     27  C   UNL     1       2.876   1.957  17.873  0.00  0.00    +0.000 A 
ATOM     28  C   UNL     1       3.747   2.170  18.937  0.00  0.00    +0.000 A 
ATOM     29  C   UNL     1       4.033   3.470  19.356  0.00  0.00    +0.000 A 
ENDBRANCH  23  24
ENDBRANCH   4  23
TORSDOF 7
ENDMDL
MODEL 6
REMARK VINA RESULT:      -6.9      0.697      1.331
REMARK  Name = 
REMARK  10 active torsions:
REMARK  status: ('A' for Active; 'I' for Inactive)
REMARK    1  A    between atoms: C_1  and  C_2
REMARK    2  A    between atoms: C_2  and  O_3
REMARK    3  A    between atoms: O_3  and  C_4
REMARK    4  A    between atoms: C_4  and  C_6
REMARK    5  A    between atoms: C_7  and  C_8
REMARK    6  A    between atoms: N_9  and  C_10
REMARK    7  A    between atoms: C_10  and  C_11
REMARK    8  A    between atoms: C_20  and  C_21
REMARK    9  A    between atoms: C_24  and  O_25
REMARK   10  A    between atoms: O_25  and  C_26
REMARK                            x       y       z     vdW  Elec       q    Type
REMARK                         _______ _______ _______ _____ _____    ______ ____
ROOT
ATOM      1  C   UNL     1       3.634   5.205  18.537  0.00  0.00    +0.000 C 
ATOM      2  C   UNL     1       4.436   4.484  17.708  0.00  0.00    +0.000 C 
ATOM      3  C   UNL     1       4.284   3.010  17.385  0.00  0.00    +0.000 C 
ATOM      4  N   UNL     1       5.547   5.125  17.115  0.00  0.00    +0.000 N 
ATOM      5  C   UNL     1       5.747   6.496  17.181  0.00  0.00    +0.000 C 
ATOM      6  O   UNL     1       6.673   7.102  16.637  0.00  0.00    +0.000 OA
ATOM      7  N   UNL     1       4.843   7.208  17.882  0.00  0.00    +0.000 N 
ATOM      8  C   UNL     1       3.893   6.661  18.823  0.00  0.00    +0.000 C 
ATOM      9  H   UNL     1       5.034   8.201  17.918  0.00  0.00    +0.000 HD
ENDROOT
BRANCH   8  10
ATOM     10  C   UNL     1       2.685   7.592  18.802  0.00  0.00    +0.000 A 
ATOM     11  C   UNL     1       2.280   8.226  17.617  0.00  0.00    +0.000 A 
ATOM     12  C   UNL     1       1.261   9.180  17.634  0.00  0.00    +0.000 A 
ATOM     13  C   UNL     1       0.609   9.505  18.824  0.00  0.00    +0.000 A 
ATOM     14  C   UNL     1       0.990   8.873  20.007  0.00  0.00    +0.000 A 
ATOM     15  C   UNL     1       2.020   7.924  19.996  0.00  0.00    +0.000 A 
BRANCH  13  16
ATOM     16  O   UNL     1      -0.337  10.486  18.718  0.00  0.00    +0.000 OA
ATOM     17  C   UNL     1      -1.404  10.224  17.815  0.00  0.00    +0.000 C 
ENDBRANCH  13  16
ENDBRANCH   8  10
BRANCH   1  18
ATOM     18  C   UNL     1       2.574   4.632  19.418  0.00  0.00    +0.000 C 
ATOM     19  O   UNL     1       2.713   4.493  20.624  0.00  0.00    +0.000 OA
BRANCH  18  20
ATOM     20  O   UNL     1       1.478   4.294  18.714  0.00  0.00    +0.000 OA
BRANCH  20  22
ATOM     21  C   UNL     1       1.431   1.935  18.987  0.00  0.00    +0.000 C 
ATOM     22  C   UNL     1       0.666   3.218  19.200  0.00  0.00    +0.000 C 
ENDBRANCH  20  22
ENDBRANCH  18  20
ENDBRANCH   1  18
BRANCH   4  23
ATOM     23  C   UNL     1       6.643   4.359  16.495  0.00  0.00    +0.000 C 
BRANCH  23  24
ATOM     24  C   UNL     1       6.636   4.280  14.985  0.00  0.00    +0.000 A 
ATOM     25  C   UNL     1       5.612   3.609  14.305  0.00  0.00    +0.000 A 
ATOM     26  C   UNL     1       5.539   3.649  12.912  0.00  0.00    +0.000 A 
ATOM     27  C   UNL     1       6.491   4.354  12.180  0.00  0.00    +0.000 A 
ATOM     28  C   UNL     1       7.527   5.009  12.840  0.00  0.00    +0.000 A 
ATOM     29  C   UNL     1       7.597   4.977  14.233  0.00  0.00    +0.000 A 
ENDBRANCH  23  24
ENDBRANCH   4  23
TORSDOF 7
ENDMDL
MODEL 7
REMARK VINA RESULT:      -6.8      3.631      5.367
REMARK  Name = 
REMARK  10 active torsions:
REMARK  status: ('A' for Active; 'I' for Inactive)
REMARK    1  A    between atoms: C_1  and  C_2
REMARK    2  A    between atoms: C_2  and  O_3
REMARK    3  A    between atoms: O_3  and  C_4
REMARK    4  A    between atoms: C_4  and  C_6
REMARK    5  A    between atoms: C_7  and  C_8
REMARK    6  A    between atoms: N_9  and  C_10
REMARK    7  A    between atoms: C_10  and  C_11
REMARK    8  A    between atoms: C_20  and  C_21
REMARK    9  A    between atoms: C_24  and  O_25
REMARK   10  A    between atoms: O_25  and  C_26
REMARK                            x       y       z     vdW  Elec       q    Type
REMARK                         _______ _______ _______ _____ _____    ______ ____
ROOT
ATOM      1  C   UNL     1       1.017   8.422  20.134  0.00  0.00    +0.000 C 
ATOM      2  C   UNL     1       1.786   7.302  20.061  0.00  0.00    +0.000 C 
ATOM      3  C   UNL     1       1.769   6.147  21.043  0.00  0.00    +0.000 C 
ATOM      4  N   UNL     1       2.729   7.196  19.014  0.00  0.00    +0.000 N 
ATOM      5  C   UNL     1       2.772   8.083  17.948  0.00  0.00    +0.000 C 
ATOM      6  O   UNL     1       3.543   7.998  16.989  0.00  0.00    +0.000 OA
ATOM      7  N   UNL     1       1.887   9.099  17.969  0.00  0.00    +0.000 N 
ATOM      8  C   UNL     1       1.137   9.534  19.124  0.00  0.00    +0.000 C 
ATOM      9  H   UNL     1       1.963   9.731  17.182  0.00  0.00    +0.000 HD
ENDROOT
BRANCH   8  10
ATOM     10  C   UNL     1      -0.165  10.123  18.591  0.00  0.00    +0.000 A 
ATOM     11  C   UNL     1      -1.032   9.361  17.794  0.00  0.00    +0.000 A 
ATOM     12  C   UNL     1      -2.150   9.947  17.198  0.00  0.00    +0.000 A 
ATOM     13  C   UNL     1      -2.442  11.297  17.405  0.00  0.00    +0.000 A 
ATOM     14  C   UNL     1      -1.598  12.063  18.206  0.00  0.00    +0.000 A 
ATOM     15  C   UNL     1      -0.468  11.481  18.795  0.00  0.00    +0.000 A 
BRANCH  13  16
ATOM     16  O   UNL     1      -3.536  11.763  16.731  0.00  0.00    +0.000 OA
ATOM     17  C   UNL     1      -3.949  10.992  15.610  0.00  0.00    +0.000 C 
ENDBRANCH  13  16
ENDBRANCH   8  10
BRANCH   1  18
ATOM     18  C   UNL     1       0.154   8.796  21.292  0.00  0.00    +0.000 C 
ATOM     19  O   UNL     1      -0.738   8.078  21.718  0.00  0.00    +0.000 OA
BRANCH  18  20
ATOM     20  O   UNL     1       0.484  10.005  21.783  0.00  0.00    +0.000 OA
BRANCH  20  22
ATOM     21  C   UNL     1      -0.491  12.132  22.197  0.00  0.00    +0.000 C 
ATOM     22  C   UNL     1      -0.468  10.681  22.613  0.00  0.00    +0.000 C 
ENDBRANCH  20  22
ENDBRANCH  18  20
ENDBRANCH   1  18
BRANCH   4  23
ATOM     23  C   UNL     1       3.819   6.205  19.051  0.00  0.00    +0.000 C 
BRANCH  23  24
ATOM     24  C   UNL     1       3.439   4.776  18.736  0.00  0.00    +0.000 A 
ATOM     25  C   UNL     1       2.491   4.485  17.745  0.00  0.00    +0.000 A 
ATOM     26  C   UNL     1       2.240   3.165  17.368  0.00  0.00    +0.000 A 
ATOM     27  C   UNL     1       2.927   2.118  17.978  0.00  0.00    +0.000 A 
ATOM     28  C   UNL     1       3.857   2.389  18.978  0.00  0.00    +0.000 A 
ATOM     29  C   UNL     1       4.115   3.709  19.352  0.00  0.00    +0.000 A 
ENDBRANCH  23  24
ENDBRANCH   4  23
TORSDOF 7
ENDMDL
MODEL 8
REMARK VINA RESULT:      -6.7      0.844      1.426
REMARK  Name = 
REMARK  10 active torsions:
REMARK  status: ('A' for Active; 'I' for Inactive)
REMARK    1  A    between atoms: C_1  and  C_2
REMARK    2  A    between atoms: C_2  and  O_3
REMARK    3  A    between atoms: O_3  and  C_4
REMARK    4  A    between atoms: C_4  and  C_6
REMARK    5  A    between atoms: C_7  and  C_8
REMARK    6  A    between atoms: N_9  and  C_10
REMARK    7  A    between atoms: C_10  and  C_11
REMARK    8  A    between atoms: C_20  and  C_21
REMARK    9  A    between atoms: C_24  and  O_25
REMARK   10  A    between atoms: O_25  and  C_26
REMARK                            x       y       z     vdW  Elec       q    Type
REMARK                         _______ _______ _______ _____ _____    ______ ____
ROOT
ATOM      1  C   UNL     1       3.620   5.282  18.540  0.00  0.00    +0.000 C 
ATOM      2  C   UNL     1       4.343   4.520  17.675  0.00  0.00    +0.000 C 
ATOM      3  C   UNL     1       4.103   3.055  17.367  0.00  0.00    +0.000 C 
ATOM      4  N   UNL     1       5.452   5.105  17.023  0.00  0.00    +0.000 N 
ATOM      5  C   UNL     1       5.721   6.465  17.071  0.00  0.00    +0.000 C 
ATOM      6  O   UNL     1       6.646   7.024  16.477  0.00  0.00    +0.000 OA
ATOM      7  N   UNL     1       4.889   7.222  17.814  0.00  0.00    +0.000 N 
ATOM      8  C   UNL     1       3.963   6.725  18.805  0.00  0.00    +0.000 C 
ATOM      9  H   UNL     1       5.129   8.204  17.835  0.00  0.00    +0.000 HD
ENDROOT
BRANCH   8  10
ATOM     10  C   UNL     1       2.802   7.713  18.841  0.00  0.00    +0.000 A 
ATOM     11  C   UNL     1       2.073   7.932  20.019  0.00  0.00    +0.000 A 
ATOM     12  C   UNL     1       0.929   8.732  20.009  0.00  0.00    +0.000 A 
ATOM     13  C   UNL     1       0.503   9.350  18.832  0.00  0.00    +0.000 A 
ATOM     14  C   UNL     1       1.225   9.154  17.657  0.00  0.00    +0.000 A 
ATOM     15  C   UNL     1       2.366   8.342  17.661  0.00  0.00    +0.000 A 
BRANCH  13  16
ATOM     16  O   UNL     1      -0.655  10.068  18.942  0.00  0.00    +0.000 OA
ATOM     17  C   UNL     1      -0.715  10.987  20.026  0.00  0.00    +0.000 C 
ENDBRANCH  13  16
ENDBRANCH   8  10
BRANCH   1  18
ATOM     18  C   UNL     1       2.580   4.763  19.477  0.00  0.00    +0.000 C 
ATOM     19  O   UNL     1       2.747   4.694  20.686  0.00  0.00    +0.000 OA
BRANCH  18  20
ATOM     20  O   UNL     1       1.468   4.388  18.819  0.00  0.00    +0.000 OA
BRANCH  20  22
ATOM     21  C   UNL     1       0.781   2.116  18.703  0.00  0.00    +0.000 C 
ATOM     22  C   UNL     1       0.609   3.423  19.439  0.00  0.00    +0.000 C 
ENDBRANCH  20  22
ENDBRANCH  18  20
ENDBRANCH   1  18
BRANCH   4  23
ATOM     23  C   UNL     1       6.476   4.286  16.351  0.00  0.00    +0.000 C 
BRANCH  23  24
ATOM     24  C   UNL     1       6.486   4.329  14.840  0.00  0.00    +0.000 A 
ATOM     25  C   UNL     1       7.499   5.005  14.147  0.00  0.00    +0.000 A 
ATOM     26  C   UNL     1       7.578   4.932  12.755  0.00  0.00    +0.000 A 
ATOM     27  C   UNL     1       6.644   4.189  12.038  0.00  0.00    +0.000 A 
ATOM     28  C   UNL     1       5.620   3.527  12.710  0.00  0.00    +0.000 A 
ATOM     29  C   UNL     1       5.544   3.592  14.102  0.00  0.00    +0.000 A 
ENDBRANCH  23  24
ENDBRANCH   4  23
TORSDOF 7
ENDMDL
MODEL 9
REMARK VINA RESULT:      -6.7      3.172      5.683
REMARK  Name = 
REMARK  10 active torsions:
REMARK  status: ('A' for Active; 'I' for Inactive)
REMARK    1  A    between atoms: C_1  and  C_2
REMARK    2  A    between atoms: C_2  and  O_3
REMARK    3  A    between atoms: O_3  and  C_4
REMARK    4  A    between atoms: C_4  and  C_6
REMARK    5  A    between atoms: C_7  and  C_8
REMARK    6  A    between atoms: N_9  and  C_10
REMARK    7  A    between atoms: C_10  and  C_11
REMARK    8  A    between atoms: C_20  and  C_21
REMARK    9  A    between atoms: C_24  and  O_25
REMARK   10  A    between atoms: O_25  and  C_26
REMARK                            x       y       z     vdW  Elec       q    Type
REMARK                         _______ _______ _______ _____ _____    ______ ____
ROOT
ATOM      1  C   UNL     1       0.579   8.965  20.215  0.00  0.00    +0.000 C 
ATOM      2  C   UNL     1       1.424   7.907  20.082  0.00  0.00    +0.000 C 
ATOM      3  C   UNL     1       1.580   6.765  21.067  0.00  0.00    +0.000 C 
ATOM      4  N   UNL     1       2.283   7.864  18.961  0.00  0.00    +0.000 N 
ATOM      5  C   UNL     1       2.168   8.741  17.892  0.00  0.00    +0.000 C 
ATOM      6  O   UNL     1       2.860   8.706  16.873  0.00  0.00    +0.000 OA
ATOM      7  N   UNL     1       1.210   9.685  17.983  0.00  0.00    +0.000 N 
ATOM      8  C   UNL     1       0.526  10.072  19.195  0.00  0.00    +0.000 C 
ATOM      9  H   UNL     1       1.171  10.312  17.190  0.00  0.00    +0.000 HD
ENDROOT
BRANCH   8  10
ATOM     10  C   UNL     1      -0.857  10.552  18.771  0.00  0.00    +0.000 A 
ATOM     11  C   UNL     1      -1.387  11.756  19.259  0.00  0.00    +0.000 A 
ATOM     12  C   UNL     1      -2.705  12.120  18.975  0.00  0.00    +0.000 A 
ATOM     13  C   UNL     1      -3.513  11.305  18.180  0.00  0.00    +0.000 A 
ATOM     14  C   UNL     1      -2.996  10.114  17.675  0.00  0.00    +0.000 A 
ATOM     15  C   UNL     1      -1.678   9.740  17.968  0.00  0.00    +0.000 A 
BRANCH  13  16
ATOM     16  O   UNL     1      -4.796  11.747  18.014  0.00  0.00    +0.000 OA
ATOM     17  C   UNL     1      -5.816  10.897  18.521  0.00  0.00    +0.000 C 
ENDBRANCH  13  16
ENDBRANCH   8  10
BRANCH   1  18
ATOM     18  C   UNL     1      -0.212   9.282  21.440  0.00  0.00    +0.000 C 
ATOM     19  O   UNL     1      -1.012   8.503  21.938  0.00  0.00    +0.000 OA
BRANCH  18  20
ATOM     20  O   UNL     1       0.068  10.515  21.901  0.00  0.00    +0.000 OA
BRANCH  20  22
ATOM     21  C   UNL     1      -0.835  12.581  22.654  0.00  0.00    +0.000 C 
ATOM     22  C   UNL     1      -0.812  11.088  22.876  0.00  0.00    +0.000 C 
ENDBRANCH  20  22
ENDBRANCH  18  20
ENDBRANCH   1  18
BRANCH   4  23
ATOM     23  C   UNL     1       3.446   6.961  18.910  0.00  0.00    +0.000 C 
BRANCH  23  24
ATOM     24  C   UNL     1       3.258   5.663  18.158  0.00  0.00    +0.000 A 
ATOM     25  C   UNL     1       4.317   5.087  17.442  0.00  0.00    +0.000 A 
ATOM     26  C   UNL     1       4.177   3.827  16.859  0.00  0.00    +0.000 A 
ATOM     27  C   UNL     1       2.977   3.128  16.977  0.00  0.00    +0.000 A 
ATOM     28  C   UNL     1       1.910   3.696  17.667  0.00  0.00    +0.000 A 
ATOM     29  C   UNL     1       2.050   4.952  18.258  0.00  0.00    +0.000 A 
ENDBRANCH  23  24
ENDBRANCH   4  23
TORSDOF 7
ENDMDL
