MODEL 1
REMARK VINA RESULT:      -7.9      0.000      0.000
REMARK  Name = 
REMARK  6 active torsions:
REMARK  status: ('A' for Active; 'I' for Inactive)
REMARK    1  A    between atoms: C_1  and  C_2
REMARK    2  A    between atoms: C_6  and  C_8
REMARK    3  A    between atoms: C_8  and  N_9
REMARK    4  A    between atoms: C_8  and  C_10
REMARK    5  A    between atoms: C_10  and  C_11
REMARK    6  A    between atoms: C_15  and  C_16
REMARK                            x       y       z     vdW  Elec       q    Type
REMARK                         _______ _______ _______ _____ _____    ______ ____
ROOT
ATOM      1  C   UNL     1       5.474   4.600  16.641  0.00  0.00    +0.000 C 
ENDROOT
BRANCH   1   7
ATOM      2  C   UNL     1       0.440   3.235  20.214  0.00  0.00    +0.000 C 
ATOM      3  C   UNL     1       1.739   2.729  19.594  0.00  0.00    +0.000 C 
ATOM      4  C   UNL     1       2.948   3.114  20.462  0.00  0.00    +0.000 C 
ATOM      5  C   UNL     1       4.263   2.698  19.802  0.00  0.00    +0.000 C 
ATOM      6  N   UNL     1       4.345   3.220  18.439  0.00  0.00    +0.000 N 
ATOM      7  C   UNL     1       5.413   4.044  18.091  0.00  0.00    +0.000 C 
ATOM      8  O   UNL     1       6.241   4.408  18.932  0.00  0.00    +0.000 OA
ATOM      9  C   UNL     1       3.239   2.818  17.570  0.00  0.00    +0.000 C 
ATOM     10  C   UNL     1       1.911   3.274  18.169  0.00  0.00    +0.000 C 
ENDBRANCH   1   7
BRANCH   1  11
ATOM     11  N   UNL     1       4.847   5.949  16.647  0.00  0.00    +0.000 NA
ATOM     12  H   UNL     1       4.482   6.126  15.705  0.00  0.00    +0.000 HD
ATOM     13  H   UNL     1       5.574   6.650  16.783  0.00  0.00    +0.000 HD
ENDBRANCH   1  11
BRANCH   1  14
ATOM     14  C   UNL     1       6.914   4.712  16.109  0.00  0.00    +0.000 C 
BRANCH  14  15
ATOM     15  C   UNL     1       7.014   4.637  14.601  0.00  0.00    +0.000 A 
ATOM     16  C   UNL     1       7.889   5.469  13.888  0.00  0.00    +0.000 A 
ATOM     17  C   UNL     1       7.963   5.387  12.495  0.00  0.00    +0.000 A 
ATOM     18  C   UNL     1       7.157   4.483  11.801  0.00  0.00    +0.000 A 
ATOM     19  C   UNL     1       6.279   3.648  12.494  0.00  0.00    +0.000 A 
ATOM     20  C   UNL     1       6.212   3.728  13.890  0.00  0.00    +0.000 A 
BRANCH  19  21
ATOM     21  C   UNL     1       5.398   2.690  11.765  0.00  0.00    +0.000 C 
ATOM     22  N   UNL     1       4.198   2.990  11.381  0.00  0.00    +0.000 NA
ATOM     23  N   UNL     1       5.828   1.430  11.478  0.00  0.00    +0.000 N 
ATOM     24  H   UNL     1       3.975   3.966  11.584  0.00  0.00    +0.000 HD
ATOM     25  H   UNL     1       6.508   1.008  12.101  0.00  0.00    +0.000 HD
ATOM     26  H   UNL     1       5.061   0.816  11.223  0.00  0.00    +0.000 HD
ENDBRANCH  19  21
ENDBRANCH  14  15
ENDBRANCH   1  14
TORSDOF 5
ENDMDL
MODEL 2
REMARK VINA RESULT:      -7.7      0.737      1.022
REMARK  Name = 
REMARK  6 active torsions:
REMARK  status: ('A' for Active; 'I' for Inactive)
REMARK    1  A    between atoms: C_1  and  C_2
REMARK    2  A    between atoms: C_6  and  C_8
REMARK    3  A    between atoms: C_8  and  N_9
REMARK    4  A    between atoms: C_8  and  C_10
REMARK    5  A    between atoms: C_10  and  C_11
REMARK    6  A    between atoms: C_15  and  C_16
REMARK                            x       y       z     vdW  Elec       q    Type
REMARK                         _______ _______ _______ _____ _____    ______ ____
ROOT
ATOM      1  C   UNL     1       5.805   5.366  16.736  0.00  0.00    +0.000 C 
ENDROOT
BRANCH   1   7
ATOM      2  C   UNL     1       0.560   2.567  18.889  0.00  0.00    +0.000 C 
ATOM      3  C   UNL     1       2.079   2.503  18.760  0.00  0.00    +0.000 C 
ATOM      4  C   UNL     1       2.759   3.329  19.863  0.00  0.00    +0.000 C 
ATOM      5  C   UNL     1       4.278   3.352  19.685  0.00  0.00    +0.000 C 
ATOM      6  N   UNL     1       4.634   3.790  18.337  0.00  0.00    +0.000 N 
ATOM      7  C   UNL     1       5.449   4.908  18.179  0.00  0.00    +0.000 C 
ATOM      8  O   UNL     1       5.805   5.584  19.150  0.00  0.00    +0.000 OA
ATOM      9  C   UNL     1       4.051   2.983  17.265  0.00  0.00    +0.000 C 
ATOM     10  C   UNL     1       2.529   2.989  17.375  0.00  0.00    +0.000 C 
ENDBRANCH   1   7
BRANCH   1  11
ATOM     11  N   UNL     1       6.084   6.826  16.782  0.00  0.00    +0.000 NA
ATOM     12  H   UNL     1       6.438   7.045  17.719  0.00  0.00    +0.000 HD
ATOM     13  H   UNL     1       5.202   7.333  16.709  0.00  0.00    +0.000 HD
ENDBRANCH   1  11
BRANCH   1  14
ATOM     14  C   UNL     1       7.031   4.631  16.167  0.00  0.00    +0.000 C 
BRANCH  14  15
ATOM     15  C   UNL     1       7.082   4.614  14.654  0.00  0.00    +0.000 A 
ATOM     16  C   UNL     1       7.899   5.505  13.945  0.00  0.00    +0.000 A 
ATOM     17  C   UNL     1       7.929   5.476  12.548  0.00  0.00    +0.000 A 
ATOM     18  C   UNL     1       7.136   4.565  11.847  0.00  0.00    +0.000 A 
ATOM     19  C   UNL     1       6.315   3.672  12.538  0.00  0.00    +0.000 A 
ATOM     20  C   UNL     1       6.292   3.700  13.937  0.00  0.00    +0.000 A 
BRANCH  19  21
ATOM     21  C   UNL     1       5.447   2.706  11.804  0.00  0.00    +0.000 C 
ATOM     22  N   UNL     1       5.817   1.495  11.529  0.00  0.00    +0.000 NA
ATOM     23  N   UNL     1       4.206   3.070  11.376  0.00  0.00    +0.000 N 
ATOM     24  H   UNL     1       6.733   1.285  11.932  0.00  0.00    +0.000 HD
ATOM     25  H   UNL     1       4.049   4.048  11.158  0.00  0.00    +0.000 HD
ATOM     26  H   UNL     1       3.839   2.426  10.683  0.00  0.00    +0.000 HD
ENDBRANCH  19  21
ENDBRANCH  14  15
ENDBRANCH   1  14
TORSDOF 5
ENDMDL
MODEL 3
REMARK VINA RESULT:      -7.2      4.218      8.021
REMARK  Name = 
REMARK  6 active torsions:
REMARK  status: ('A' for Active; 'I' for Inactive)
REMARK    1  A    between atoms: C_1  and  C_2
REMARK    2  A    between atoms: C_6  and  C_8
REMARK    3  A    between atoms: C_8  and  N_9
REMARK    4  A    between atoms: C_8  and  C_10
REMARK    5  A    between atoms: C_10  and  C_11
REMARK    6  A    between atoms: C_15  and  C_16
REMARK                            x       y       z     vdW  Elec       q    Type
REMARK                         _______ _______ _______ _____ _____    ______ ____
ROOT
ATOM      1  C   UNL     1       3.136   4.754  18.773  0.00  0.00    +0.000 C 
ENDROOT
BRANCH   1   7
ATOM      2  C   UNL     1       7.080   4.697  13.832  0.00  0.00    +0.000 C 
ATOM      3  C   UNL     1       6.793   5.240  15.229  0.00  0.00    +0.000 C 
ATOM      4  C   UNL     1       7.242   4.242  16.308  0.00  0.00    +0.000 C 
ATOM      5  C   UNL     1       6.870   4.732  17.708  0.00  0.00    +0.000 C 
ATOM      6  N   UNL     1       5.447   5.056  17.782  0.00  0.00    +0.000 N 
ATOM      7  C   UNL     1       4.649   4.405  18.720  0.00  0.00    +0.000 C 
ATOM      8  O   UNL     1       5.104   3.502  19.430  0.00  0.00    +0.000 OA
ATOM      9  C   UNL     1       5.003   6.051  16.806  0.00  0.00    +0.000 C 
ATOM     10  C   UNL     1       5.302   5.566  15.390  0.00  0.00    +0.000 C 
ENDBRANCH   1   7
BRANCH   1  11
ATOM     11  N   UNL     1       2.381   3.478  18.890  0.00  0.00    +0.000 NA
ATOM     12  H   UNL     1       2.918   2.856  19.505  0.00  0.00    +0.000 HD
ATOM     13  H   UNL     1       2.378   3.012  17.983  0.00  0.00    +0.000 HD
ENDBRANCH   1  11
BRANCH   1  14
ATOM     14  C   UNL     1       2.779   5.666  19.959  0.00  0.00    +0.000 C 
BRANCH  14  15
ATOM     15  C   UNL     1       2.239   7.019  19.546  0.00  0.00    +0.000 A 
ATOM     16  C   UNL     1       2.363   7.479  18.228  0.00  0.00    +0.000 A 
ATOM     17  C   UNL     1       1.862   8.733  17.868  0.00  0.00    +0.000 A 
ATOM     18  C   UNL     1       1.243   9.543  18.822  0.00  0.00    +0.000 A 
ATOM     19  C   UNL     1       1.114   9.102  20.140  0.00  0.00    +0.000 A 
ATOM     20  C   UNL     1       1.611   7.842  20.496  0.00  0.00    +0.000 A 
BRANCH  19  21
ATOM     21  C   UNL     1       0.473   9.963  21.176  0.00  0.00    +0.000 C 
ATOM     22  N   UNL     1       0.851   9.973  22.415  0.00  0.00    +0.000 NA
ATOM     23  N   UNL     1      -0.566  10.783  20.853  0.00  0.00    +0.000 N 
ATOM     24  H   UNL     1       1.667   9.375  22.560  0.00  0.00    +0.000 HD
ATOM     25  H   UNL     1      -1.167  10.506  20.085  0.00  0.00    +0.000 HD
ATOM     26  H   UNL     1      -1.065  11.105  21.676  0.00  0.00    +0.000 HD
ENDBRANCH  19  21
ENDBRANCH  14  15
ENDBRANCH   1  14
TORSDOF 5
ENDMDL
MODEL 4
REMARK VINA RESULT:      -7.2      1.523      2.143
REMARK  Name = 
REMARK  6 active torsions:
REMARK  status: ('A' for Active; 'I' for Inactive)
REMARK    1  A    between atoms: C_1  and  C_2
REMARK    2  A    between atoms: C_6  and  C_8
REMARK    3  A    between atoms: C_8  and  N_9
REMARK    4  A    between atoms: C_8  and  C_10
REMARK    5  A    between atoms: C_10  and  C_11
REMARK    6  A    between atoms: C_15  and  C_16
REMARK                            x       y       z     vdW  Elec       q    Type
REMARK                         _______ _______ _______ _____ _____    ______ ____
ROOT
ATOM      1  C   UNL     1       6.639   5.954  16.845  0.00  0.00    +0.000 C 
ENDROOT
BRANCH   1   7
ATOM      2  C   UNL     1       1.691   2.330  18.385  0.00  0.00    +0.000 C 
ATOM      3  C   UNL     1       2.528   3.559  18.727  0.00  0.00    +0.000 C 
ATOM      4  C   UNL     1       2.089   4.773  17.894  0.00  0.00    +0.000 C 
ATOM      5  C   UNL     1       2.985   5.984  18.158  0.00  0.00    +0.000 C 
ATOM      6  N   UNL     1       4.391   5.637  17.970  0.00  0.00    +0.000 N 
ATOM      7  C   UNL     1       5.148   6.347  17.040  0.00  0.00    +0.000 C 
ATOM      8  O   UNL     1       4.631   7.204  16.315  0.00  0.00    +0.000 OA
ATOM      9  C   UNL     1       4.856   4.524  18.797  0.00  0.00    +0.000 C 
ATOM     10  C   UNL     1       4.022   3.278  18.513  0.00  0.00    +0.000 C 
ENDBRANCH   1   7
BRANCH   1  11
ATOM     11  N   UNL     1       7.298   6.004  18.176  0.00  0.00    +0.000 NA
ATOM     12  H   UNL     1       7.841   6.874  18.221  0.00  0.00    +0.000 HD
ATOM     13  H   UNL     1       7.992   5.259  18.230  0.00  0.00    +0.000 HD
ENDBRANCH   1  11
BRANCH   1  14
ATOM     14  C   UNL     1       6.806   4.545  16.248  0.00  0.00    +0.000 C 
BRANCH  14  15
ATOM     15  C   UNL     1       6.947   4.535  14.741  0.00  0.00    +0.000 A 
ATOM     16  C   UNL     1       7.825   5.412  14.087  0.00  0.00    +0.000 A 
ATOM     17  C   UNL     1       7.937   5.389  12.694  0.00  0.00    +0.000 A 
ATOM     18  C   UNL     1       7.167   4.501  11.942  0.00  0.00    +0.000 A 
ATOM     19  C   UNL     1       6.286   3.624  12.576  0.00  0.00    +0.000 A 
ATOM     20  C   UNL     1       6.180   3.644  13.971  0.00  0.00    +0.000 A 
BRANCH  19  21
ATOM     21  C   UNL     1       5.442   2.683  11.784  0.00  0.00    +0.000 C 
ATOM     22  N   UNL     1       5.822   1.482  11.480  0.00  0.00    +0.000 NA
ATOM     23  N   UNL     1       4.213   3.061  11.333  0.00  0.00    +0.000 N 
ATOM     24  H   UNL     1       6.725   1.259  11.903  0.00  0.00    +0.000 HD
ATOM     25  H   UNL     1       4.062   4.045  11.142  0.00  0.00    +0.000 HD
ATOM     26  H   UNL     1       3.868   2.440  10.608  0.00  0.00    +0.000 HD
ENDBRANCH  19  21
ENDBRANCH  14  15
ENDBRANCH   1  14
TORSDOF 5
ENDMDL
MODEL 5
REMARK VINA RESULT:      -7.0      2.639      3.669
REMARK  Name = 
REMARK  6 active torsions:
REMARK  status: ('A' for Active; 'I' for Inactive)
REMARK    1  A    between atoms: C_1  and  C_2
REMARK    2  A    between atoms: C_6  and  C_8
REMARK    3  A    between atoms: C_8  and  N_9
REMARK    4  A    between atoms: C_8  and  C_10
REMARK    5  A    between atoms: C_10  and  C_11
REMARK    6  A    between atoms: C_15  and  C_16
REMARK                            x       y       z     vdW  Elec       q    Type
REMARK                         _______ _______ _______ _____ _____    ______ ____
ROOT
ATOM      1  C   UNL     1       3.218   7.397  17.672  0.00  0.00    +0.000 C 
ENDROOT
BRANCH   1   7
ATOM      2  C   UNL     1       0.384   1.889  18.942  0.00  0.00    +0.000 C 
ATOM      3  C   UNL     1       1.563   2.814  19.231  0.00  0.00    +0.000 C 
ATOM      4  C   UNL     1       1.180   3.886  20.263  0.00  0.00    +0.000 C 
ATOM      5  C   UNL     1       2.323   4.876  20.487  0.00  0.00    +0.000 C 
ATOM      6  N   UNL     1       2.776   5.439  19.217  0.00  0.00    +0.000 N 
ATOM      7  C   UNL     1       2.745   6.820  19.036  0.00  0.00    +0.000 C 
ATOM      8  O   UNL     1       2.264   7.567  19.893  0.00  0.00    +0.000 OA
ATOM      9  C   UNL     1       3.207   4.444  18.235  0.00  0.00    +0.000 C 
ATOM     10  C   UNL     1       2.067   3.473  17.939  0.00  0.00    +0.000 C 
ENDBRANCH   1   7
BRANCH   1  11
ATOM     11  N   UNL     1       2.387   8.594  17.376  0.00  0.00    +0.000 NA
ATOM     12  H   UNL     1       1.411   8.352  17.576  0.00  0.00    +0.000 HD
ATOM     13  H   UNL     1       2.413   8.773  16.372  0.00  0.00    +0.000 HD
ENDBRANCH   1  11
BRANCH   1  14
ATOM     14  C   UNL     1       4.703   7.798  17.682  0.00  0.00    +0.000 C 
BRANCH  14  15
ATOM     15  C   UNL     1       5.647   6.646  17.410  0.00  0.00    +0.000 A 
ATOM     16  C   UNL     1       6.357   6.028  18.449  0.00  0.00    +0.000 A 
ATOM     17  C   UNL     1       7.226   4.968  18.175  0.00  0.00    +0.000 A 
ATOM     18  C   UNL     1       7.403   4.525  16.864  0.00  0.00    +0.000 A 
ATOM     19  C   UNL     1       6.707   5.131  15.817  0.00  0.00    +0.000 A 
ATOM     20  C   UNL     1       5.831   6.188  16.094  0.00  0.00    +0.000 A 
BRANCH  19  21
ATOM     21  C   UNL     1       6.899   4.681  14.408  0.00  0.00    +0.000 C 
ATOM     22  N   UNL     1       6.298   3.647  13.910  0.00  0.00    +0.000 NA
ATOM     23  N   UNL     1       7.741   5.352  13.573  0.00  0.00    +0.000 N 
ATOM     24  H   UNL     1       5.646   3.237  14.582  0.00  0.00    +0.000 HD
ATOM     25  H   UNL     1       8.530   5.838  13.986  0.00  0.00    +0.000 HD
ATOM     26  H   UNL     1       7.975   4.805  12.751  0.00  0.00    +0.000 HD
ENDBRANCH  19  21
ENDBRANCH  14  15
ENDBRANCH   1  14
TORSDOF 5
ENDMDL
MODEL 6
REMARK VINA RESULT:      -6.9      1.055      1.153
REMARK  Name = 
REMARK  6 active torsions:
REMARK  status: ('A' for Active; 'I' for Inactive)
REMARK    1  A    between atoms: C_1  and  C_2
REMARK    2  A    between atoms: C_6  and  C_8
REMARK    3  A    between atoms: C_8  and  N_9
REMARK    4  A    between atoms: C_8  and  C_10
REMARK    5  A    between atoms: C_10  and  C_11
REMARK    6  A    between atoms: C_15  and  C_16
REMARK                            x       y       z     vdW  Elec       q    Type
REMARK                         _______ _______ _______ _____ _____    ______ ____
ROOT
ATOM      1  C   UNL     1       6.586   5.042  17.235  0.00  0.00    +0.000 C 
ENDROOT
BRANCH   1   7
ATOM      2  C   UNL     1       0.700   3.188  18.614  0.00  0.00    +0.000 C 
ATOM      3  C   UNL     1       2.187   2.848  18.655  0.00  0.00    +0.000 C 
ATOM      4  C   UNL     1       2.866   3.494  19.873  0.00  0.00    +0.000 C 
ATOM      5  C   UNL     1       4.374   3.241  19.870  0.00  0.00    +0.000 C 
ATOM      6  N   UNL     1       4.964   3.653  18.599  0.00  0.00    +0.000 N 
ATOM      7  C   UNL     1       5.980   4.606  18.599  0.00  0.00    +0.000 C 
ATOM      8  O   UNL     1       6.330   5.169  19.641  0.00  0.00    +0.000 OA
ATOM      9  C   UNL     1       4.381   3.007  17.423  0.00  0.00    +0.000 C 
ATOM     10  C   UNL     1       2.882   3.291  17.360  0.00  0.00    +0.000 C 
ENDBRANCH   1   7
BRANCH   1  11
ATOM     11  N   UNL     1       7.683   4.094  16.904  0.00  0.00    +0.000 NA
ATOM     12  H   UNL     1       7.290   3.363  16.300  0.00  0.00    +0.000 HD
ATOM     13  H   UNL     1       7.966   3.607  17.754  0.00  0.00    +0.000 HD
ENDBRANCH   1  11
BRANCH   1  14
ATOM     14  C   UNL     1       5.549   5.036  16.098  0.00  0.00    +0.000 C 
BRANCH  14  15
ATOM     15  C   UNL     1       6.143   4.755  14.734  0.00  0.00    +0.000 A 
ATOM     16  C   UNL     1       7.302   5.412  14.297  0.00  0.00    +0.000 A 
ATOM     17  C   UNL     1       7.832   5.141  13.032  0.00  0.00    +0.000 A 
ATOM     18  C   UNL     1       7.204   4.223  12.189  0.00  0.00    +0.000 A 
ATOM     19  C   UNL     1       6.048   3.562  12.607  0.00  0.00    +0.000 A 
ATOM     20  C   UNL     1       5.523   3.830  13.877  0.00  0.00    +0.000 A 
BRANCH  19  21
ATOM     21  C   UNL     1       5.354   2.592  11.711  0.00  0.00    +0.000 C 
ATOM     22  N   UNL     1       4.193   2.824  11.186  0.00  0.00    +0.000 NA
ATOM     23  N   UNL     1       5.925   1.392  11.411  0.00  0.00    +0.000 N 
ATOM     24  H   UNL     1       3.862   3.764  11.415  0.00  0.00    +0.000 HD
ATOM     25  H   UNL     1       6.551   0.981  12.094  0.00  0.00    +0.000 HD
ATOM     26  H   UNL     1       5.253   0.740  11.019  0.00  0.00    +0.000 HD
ENDBRANCH  19  21
ENDBRANCH  14  15
ENDBRANCH   1  14
TORSDOF 5
ENDMDL
MODEL 7
REMARK VINA RESULT:      -6.8      4.262      8.142
REMARK  Name = 
REMARK  6 active torsions:
REMARK  status: ('A' for Active; 'I' for Inactive)
REMARK    1  A    between atoms: C_1  and  C_2
REMARK    2  A    between atoms: C_6  and  C_8
REMARK    3  A    between atoms: C_8  and  N_9
REMARK    4  A    between atoms: C_8  and  C_10
REMARK    5  A    between atoms: C_10  and  C_11
REMARK    6  A    between atoms: C_15  and  C_16
REMARK                            x       y       z     vdW  Elec       q    Type
REMARK                         _______ _______ _______ _____ _____    ______ ____
ROOT
ATOM      1  C   UNL     1       2.791   5.858  18.850  0.00  0.00    +0.000 C 
ENDROOT
BRANCH   1   7
ATOM      2  C   UNL     1       6.897   4.737  14.175  0.00  0.00    +0.000 C 
ATOM      3  C   UNL     1       6.659   5.384  15.536  0.00  0.00    +0.000 C 
ATOM      4  C   UNL     1       6.812   4.355  16.667  0.00  0.00    +0.000 C 
ATOM      5  C   UNL     1       6.480   4.970  18.028  0.00  0.00    +0.000 C 
ATOM      6  N   UNL     1       5.163   5.603  18.002  0.00  0.00    +0.000 N 
ATOM      7  C   UNL     1       4.189   5.182  18.904  0.00  0.00    +0.000 C 
ATOM      8  O   UNL     1       4.390   4.229  19.665  0.00  0.00    +0.000 OA
ATOM      9  C   UNL     1       5.008   6.632  16.975  0.00  0.00    +0.000 C 
ATOM     10  C   UNL     1       5.271   6.037  15.594  0.00  0.00    +0.000 C 
ENDBRANCH   1   7
BRANCH   1  11
ATOM     11  N   UNL     1       1.887   4.967  18.076  0.00  0.00    +0.000 NA
ATOM     12  H   UNL     1       1.286   4.476  18.746  0.00  0.00    +0.000 HD
ATOM     13  H   UNL     1       2.443   4.235  17.636  0.00  0.00    +0.000 HD
ENDBRANCH   1  11
BRANCH   1  14
ATOM     14  C   UNL     1       2.194   6.096  20.249  0.00  0.00    +0.000 C 
BRANCH  14  15
ATOM     15  C   UNL     1       1.531   7.448  20.405  0.00  0.00    +0.000 A 
ATOM     16  C   UNL     1       0.732   7.741  21.519  0.00  0.00    +0.000 A 
ATOM     17  C   UNL     1       0.125   8.994  21.643  0.00  0.00    +0.000 A 
ATOM     18  C   UNL     1       0.303   9.961  20.652  0.00  0.00    +0.000 A 
ATOM     19  C   UNL     1       1.093   9.686  19.536  0.00  0.00    +0.000 A 
ATOM     20  C   UNL     1       1.705   8.432  19.417  0.00  0.00    +0.000 A 
BRANCH  19  21
ATOM     21  C   UNL     1       1.277  10.702  18.459  0.00  0.00    +0.000 C 
ATOM     22  N   UNL     1       2.097  10.538  17.469  0.00  0.00    +0.000 NA
ATOM     23  N   UNL     1       0.580  11.872  18.481  0.00  0.00    +0.000 N 
ATOM     24  H   UNL     1       2.535   9.615  17.497  0.00  0.00    +0.000 HD
ATOM     25  H   UNL     1       0.303  12.242  19.383  0.00  0.00    +0.000 HD
ATOM     26  H   UNL     1       0.981  12.564  17.855  0.00  0.00    +0.000 HD
ENDBRANCH  19  21
ENDBRANCH  14  15
ENDBRANCH   1  14
TORSDOF 5
ENDMDL
MODEL 8
REMARK VINA RESULT:      -6.8      3.568      4.661
REMARK  Name = 
REMARK  6 active torsions:
REMARK  status: ('A' for Active; 'I' for Inactive)
REMARK    1  A    between atoms: C_1  and  C_2
REMARK    2  A    between atoms: C_6  and  C_8
REMARK    3  A    between atoms: C_8  and  N_9
REMARK    4  A    between atoms: C_8  and  C_10
REMARK    5  A    between atoms: C_10  and  C_11
REMARK    6  A    between atoms: C_15  and  C_16
REMARK                            x       y       z     vdW  Elec       q    Type
REMARK                         _______ _______ _______ _____ _____    ______ ____
ROOT
ATOM      1  C   UNL     1       2.566   7.743  17.753  0.00  0.00    +0.000 C 
ENDROOT
BRANCH   1   7
ATOM      2  C   UNL     1       0.402   1.952  19.081  0.00  0.00    +0.000 C 
ATOM      3  C   UNL     1       1.552   2.946  19.215  0.00  0.00    +0.000 C 
ATOM      4  C   UNL     1       1.312   3.910  20.387  0.00  0.00    +0.000 C 
ATOM      5  C   UNL     1       2.410   4.971  20.469  0.00  0.00    +0.000 C 
ATOM      6  N   UNL     1       2.566   5.654  19.187  0.00  0.00    +0.000 N 
ATOM      7  C   UNL     1       2.410   7.037  19.129  0.00  0.00    +0.000 C 
ATOM      8  O   UNL     1       2.059   7.683  20.123  0.00  0.00    +0.000 OA
ATOM      9  C   UNL     1       2.859   4.767  18.061  0.00  0.00    +0.000 C 
ATOM     10  C   UNL     1       1.748   3.730  17.910  0.00  0.00    +0.000 C 
ENDBRANCH   1   7
BRANCH   1  11
ATOM     11  N   UNL     1       1.649   8.913  17.738  0.00  0.00    +0.000 NA
ATOM     12  H   UNL     1       2.100   9.654  17.192  0.00  0.00    +0.000 HD
ATOM     13  H   UNL     1       1.578   9.289  18.683  0.00  0.00    +0.000 HD
ENDBRANCH   1  11
BRANCH   1  14
ATOM     14  C   UNL     1       4.005   8.221  17.493  0.00  0.00    +0.000 C 
BRANCH  14  15
ATOM     15  C   UNL     1       4.923   7.137  16.971  0.00  0.00    +0.000 A 
ATOM     16  C   UNL     1       4.799   6.648  15.662  0.00  0.00    +0.000 A 
ATOM     17  C   UNL     1       5.654   5.643  15.201  0.00  0.00    +0.000 A 
ATOM     18  C   UNL     1       6.630   5.110  16.043  0.00  0.00    +0.000 A 
ATOM     19  C   UNL     1       6.766   5.582  17.350  0.00  0.00    +0.000 A 
ATOM     20  C   UNL     1       5.912   6.594  17.807  0.00  0.00    +0.000 A 
BRANCH  19  21
ATOM     21  C   UNL     1       7.791   5.009  18.269  0.00  0.00    +0.000 C 
ATOM     22  N   UNL     1       8.522   3.986  17.957  0.00  0.00    +0.000 NA
ATOM     23  N   UNL     1       7.998   5.547  19.503  0.00  0.00    +0.000 N 
ATOM     24  H   UNL     1       8.345   3.680  16.998  0.00  0.00    +0.000 HD
ATOM     25  H   UNL     1       7.215   6.005  19.957  0.00  0.00    +0.000 HD
ATOM     26  H   UNL     1       8.519   4.920  20.107  0.00  0.00    +0.000 HD
ENDBRANCH  19  21
ENDBRANCH  14  15
ENDBRANCH   1  14
TORSDOF 5
ENDMDL
MODEL 9
REMARK VINA RESULT:      -6.8      4.412      8.267
REMARK  Name = 
REMARK  6 active torsions:
REMARK  status: ('A' for Active; 'I' for Inactive)
REMARK    1  A    between atoms: C_1  and  C_2
REMARK    2  A    between atoms: C_6  and  C_8
REMARK    3  A    between atoms: C_8  and  N_9
REMARK    4  A    between atoms: C_8  and  C_10
REMARK    5  A    between atoms: C_10  and  C_11
REMARK    6  A    between atoms: C_15  and  C_16
REMARK                            x       y       z     vdW  Elec       q    Type
REMARK                         _______ _______ _______ _____ _____    ______ ____
ROOT
ATOM      1  C   UNL     1       1.481   4.269  19.842  0.00  0.00    +0.000 C 
ENDROOT
BRANCH   1   7
ATOM      2  C   UNL     1       7.053   5.954  17.374  0.00  0.00    +0.000 C 
ATOM      3  C   UNL     1       6.081   4.816  17.671  0.00  0.00    +0.000 C 
ATOM      4  C   UNL     1       4.999   4.721  16.583  0.00  0.00    +0.000 C 
ATOM      5  C   UNL     1       3.964   3.648  16.921  0.00  0.00    +0.000 C 
ATOM      6  N   UNL     1       3.416   3.860  18.259  0.00  0.00    +0.000 N 
ATOM      7  C   UNL     1       2.042   4.030  18.412  0.00  0.00    +0.000 C 
ATOM      8  O   UNL     1       1.292   4.090  17.432  0.00  0.00    +0.000 OA
ATOM      9  C   UNL     1       4.418   3.892  19.324  0.00  0.00    +0.000 C 
ATOM     10  C   UNL     1       5.436   4.997  19.051  0.00  0.00    +0.000 C 
ENDBRANCH   1   7
BRANCH   1  11
ATOM     11  N   UNL     1       1.542   2.975  20.572  0.00  0.00    +0.000 NA
ATOM     12  H   UNL     1       1.711   2.236  19.882  0.00  0.00    +0.000 HD
ATOM     13  H   UNL     1       0.620   2.769  20.956  0.00  0.00    +0.000 HD
ENDBRANCH   1  11
BRANCH   1  14
ATOM     14  C   UNL     1       2.277   5.330  20.621  0.00  0.00    +0.000 C 
BRANCH  14  15
ATOM     15  C   UNL     1       1.905   6.754  20.264  0.00  0.00    +0.000 A 
ATOM     16  C   UNL     1       2.233   7.299  19.015  0.00  0.00    +0.000 A 
ATOM     17  C   UNL     1       1.883   8.617  18.707  0.00  0.00    +0.000 A 
ATOM     18  C   UNL     1       1.213   9.404  19.646  0.00  0.00    +0.000 A 
ATOM     19  C   UNL     1       0.881   8.877  20.895  0.00  0.00    +0.000 A 
ATOM     20  C   UNL     1       1.227   7.555  21.198  0.00  0.00    +0.000 A 
BRANCH  19  21
ATOM     21  C   UNL     1       0.183   9.711  21.916  0.00  0.00    +0.000 C 
ATOM     22  N   UNL     1       0.336  10.995  22.001  0.00  0.00    +0.000 NA
ATOM     23  N   UNL     1      -0.654   9.140  22.826  0.00  0.00    +0.000 N 
ATOM     24  H   UNL     1       0.933  11.349  21.251  0.00  0.00    +0.000 HD
ATOM     25  H   UNL     1      -0.474   8.180  23.098  0.00  0.00    +0.000 HD
ATOM     26  H   UNL     1      -0.850   9.762  23.604  0.00  0.00    +0.000 HD
ENDBRANCH  19  21
ENDBRANCH  14  15
ENDBRANCH   1  14
TORSDOF 5
ENDMDL
