MODEL 1
REMARK VINA RESULT:      -8.4      0.000      0.000
REMARK  Name = 
REMARK  10 active torsions:
REMARK  status: ('A' for Active; 'I' for Inactive)
REMARK    1  A    between atoms: N_2  and  C_3
REMARK    2  A    between atoms: C_6  and  O_7
REMARK    3  A    between atoms: O_7  and  C_8
REMARK    4  A    between atoms: C_11  and  C_12
REMARK    5  A    between atoms: C_14  and  C_15
REMARK    6  A    between atoms: C_19  and  C_20
REMARK    7  A    between atoms: C_20  and  O_21
REMARK    8  A    between atoms: C_20  and  C_22
REMARK    9  A    between atoms: C_22  and  O_23
REMARK   10  A    between atoms: C_27  and  C_28
REMARK                            x       y       z     vdW  Elec       q    Type
REMARK                         _______ _______ _______ _____ _____    ______ ____
ROOT
ATOM      1  C   UNL     1       1.261   9.634  18.963  0.00  0.00    +0.000 A 
ATOM      2  C   UNL     1       1.896   9.167  17.810  0.00  0.00    +0.000 A 
ATOM      3  C   UNL     1       2.546   7.918  17.815  0.00  0.00    +0.000 A 
ATOM      4  C   UNL     1       2.575   7.106  18.965  0.00  0.00    +0.000 A 
ATOM      5  C   UNL     1       1.839   7.550  20.077  0.00  0.00    +0.000 A 
ATOM      6  C   UNL     1       1.222   8.800  20.087  0.00  0.00    +0.000 A 
ENDROOT
BRANCH   4   7
ATOM      7  C   UNL     1       3.365   5.864  19.041  0.00  0.00    +0.000 A 
ATOM      8  N   UNL     1       4.638   5.873  18.614  0.00  0.00    +0.000 NA
ATOM      9  C   UNL     1       5.299   4.698  18.744  0.00  0.00    +0.000 A 
ATOM     10  C   UNL     1       4.751   3.542  19.257  0.00  0.00    +0.000 A 
ATOM     11  C   UNL     1       3.434   3.624  19.634  0.00  0.00    +0.000 A 
ATOM     12  N   UNL     1       2.746   4.787  19.576  0.00  0.00    +0.000 NA
BRANCH   9  13
ATOM     13  C   UNL     1       6.704   4.642  18.234  0.00  0.00    +0.000 C 
ATOM     14  N   UNL     1       6.864   4.187  16.954  0.00  0.00    +0.000 N 
ATOM     15  O   UNL     1       7.660   4.964  18.925  0.00  0.00    +0.000 OA
ATOM     16  H   UNL     1       6.065   3.886  16.410  0.00  0.00    +0.000 HD
ATOM     17  H   UNL     1       7.801   4.075  16.593  0.00  0.00    +0.000 HD
ENDBRANCH   9  13
BRANCH  11  18
ATOM     18  C   UNL     1       2.665   2.390  20.053  0.00  0.00    +0.000 C 
BRANCH  18  19
ATOM     19  O   UNL     1       2.175   1.735  18.876  0.00  0.00    +0.000 OA
ATOM     20  H   UNL     1       2.841   1.059  18.647  0.00  0.00    +0.000 HD
ENDBRANCH  18  19
BRANCH  18  21
ATOM     21  C   UNL     1       1.500   2.726  20.998  0.00  0.00    +0.000 C 
BRANCH  21  22
ATOM     22  O   UNL     1       0.350   3.200  20.287  0.00  0.00    +0.000 OA
ATOM     23  H   UNL     1       0.587   4.067  19.902  0.00  0.00    +0.000 HD
ENDBRANCH  21  22
ENDBRANCH  18  21
ENDBRANCH  11  18
ENDBRANCH   4   7
BRANCH   1  24
ATOM     24  O   UNL     1       0.725  10.920  18.955  0.00  0.00    +0.000 OA
BRANCH  24  28
ATOM     25  C   UNL     1      -3.376  11.175  18.302  0.00  0.00    +0.000 A 
ATOM     26  C   UNL     1      -2.619  10.319  17.526  0.00  0.00    +0.000 A 
ATOM     27  C   UNL     1      -1.251  10.319  17.719  0.00  0.00    +0.000 A 
ATOM     28  C   UNL     1      -0.641  11.062  18.754  0.00  0.00    +0.000 A 
ATOM     29  C   UNL     1      -1.422  11.946  19.528  0.00  0.00    +0.000 A 
ATOM     30  C   UNL     1      -2.814  11.989  19.277  0.00  0.00    +0.000 A 
BRANCH  29  31
ATOM     31  C   UNL     1      -0.947  12.862  20.627  0.00  0.00    +0.000 C 
ATOM     32  F   UNL     1      -1.900  13.589  21.252  0.00  0.00    +0.000 F 
ATOM     33  F   UNL     1      -0.302  12.161  21.607  0.00  0.00    +0.000 F 
ATOM     34  F   UNL     1      -0.018  13.758  20.175  0.00  0.00    +0.000 F 
ENDBRANCH  29  31
BRANCH  25  36
ATOM     35  C   UNL     1      -5.903  11.303  17.899  0.00  0.00    +0.000 C 
ATOM     36  N   UNL     1      -4.737  11.235  18.073  0.00  0.00    +0.000 NA
ENDBRANCH  25  36
ENDBRANCH  24  28
ENDBRANCH   1  24
TORSDOF 10
ENDMDL
MODEL 2
REMARK VINA RESULT:      -8.4      2.568      3.481
REMARK  Name = 
REMARK  10 active torsions:
REMARK  status: ('A' for Active; 'I' for Inactive)
REMARK    1  A    between atoms: N_2  and  C_3
REMARK    2  A    between atoms: C_6  and  O_7
REMARK    3  A    between atoms: O_7  and  C_8
REMARK    4  A    between atoms: C_11  and  C_12
REMARK    5  A    between atoms: C_14  and  C_15
REMARK    6  A    between atoms: C_19  and  C_20
REMARK    7  A    between atoms: C_20  and  O_21
REMARK    8  A    between atoms: C_20  and  C_22
REMARK    9  A    between atoms: C_22  and  O_23
REMARK   10  A    between atoms: C_27  and  C_28
REMARK                            x       y       z     vdW  Elec       q    Type
REMARK                         _______ _______ _______ _____ _____    ______ ____
ROOT
ATOM      1  C   UNL     1       1.087   9.043  19.582  0.00  0.00    +0.000 A 
ATOM      2  C   UNL     1       1.479   7.955  20.366  0.00  0.00    +0.000 A 
ATOM      3  C   UNL     1       2.372   6.996  19.851  0.00  0.00    +0.000 A 
ATOM      4  C   UNL     1       2.896   7.101  18.548  0.00  0.00    +0.000 A 
ATOM      5  C   UNL     1       2.570   8.258  17.822  0.00  0.00    +0.000 A 
ATOM      6  C   UNL     1       1.662   9.194  18.315  0.00  0.00    +0.000 A 
ENDROOT
BRANCH   4   7
ATOM      7  C   UNL     1       3.718   6.042  17.934  0.00  0.00    +0.000 A 
ATOM      8  N   UNL     1       4.782   6.390  17.193  0.00  0.00    +0.000 NA
ATOM      9  C   UNL     1       5.497   5.355  16.688  0.00  0.00    +0.000 A 
ATOM     10  C   UNL     1       5.193   4.025  16.878  0.00  0.00    +0.000 A 
ATOM     11  C   UNL     1       4.067   3.772  17.621  0.00  0.00    +0.000 A 
ATOM     12  N   UNL     1       3.351   4.766  18.193  0.00  0.00    +0.000 NA
BRANCH   9  13
ATOM     13  C   UNL     1       6.662   5.691  15.812  0.00  0.00    +0.000 C 
ATOM     14  N   UNL     1       6.629   5.183  14.543  0.00  0.00    +0.000 N 
ATOM     15  O   UNL     1       7.602   6.363  16.210  0.00  0.00    +0.000 OA
ATOM     16  H   UNL     1       5.862   4.594  14.243  0.00  0.00    +0.000 HD
ATOM     17  H   UNL     1       7.424   5.334  13.939  0.00  0.00    +0.000 HD
ENDBRANCH   9  13
BRANCH  11  18
ATOM     18  C   UNL     1       3.526   2.366  17.762  0.00  0.00    +0.000 C 
BRANCH  18  19
ATOM     19  O   UNL     1       2.157   2.357  17.341  0.00  0.00    +0.000 OA
ATOM     20  H   UNL     1       1.669   1.854  18.020  0.00  0.00    +0.000 HD
ENDBRANCH  18  19
BRANCH  18  21
ATOM     21  C   UNL     1       3.642   1.843  19.203  0.00  0.00    +0.000 C 
BRANCH  21  22
ATOM     22  O   UNL     1       4.970   1.988  19.722  0.00  0.00    +0.000 OA
ATOM     23  H   UNL     1       4.979   1.571  20.607  0.00  0.00    +0.000 HD
ENDBRANCH  21  22
ENDBRANCH  18  21
ENDBRANCH  11  18
ENDBRANCH   4   7
BRANCH   1  24
ATOM     24  O   UNL     1       0.118   9.910  20.084  0.00  0.00    +0.000 OA
BRANCH  24  28
ATOM     25  C   UNL     1       0.546  13.936  19.124  0.00  0.00    +0.000 A 
ATOM     26  C   UNL     1       1.345  13.385  20.107  0.00  0.00    +0.000 A 
ATOM     27  C   UNL     1       1.121  12.067  20.453  0.00  0.00    +0.000 A 
ATOM     28  C   UNL     1       0.203  11.254  19.750  0.00  0.00    +0.000 A 
ATOM     29  C   UNL     1      -0.621  11.833  18.761  0.00  0.00    +0.000 A 
ATOM     30  C   UNL     1      -0.430  13.202  18.461  0.00  0.00    +0.000 A 
BRANCH  29  31
ATOM     31  C   UNL     1      -1.695  11.150  17.953  0.00  0.00    +0.000 C 
ATOM     32  F   UNL     1      -2.834  10.842  18.614  0.00  0.00    +0.000 F 
ATOM     33  F   UNL     1      -2.072  11.919  16.887  0.00  0.00    +0.000 F 
ATOM     34  F   UNL     1      -1.248   9.984  17.397  0.00  0.00    +0.000 F 
ENDBRANCH  29  31
BRANCH  25  36
ATOM     35  C   UNL     1       0.878  16.413  18.564  0.00  0.00    +0.000 C 
ATOM     36  N   UNL     1       0.712  15.272  18.816  0.00  0.00    +0.000 NA
ENDBRANCH  25  36
ENDBRANCH  24  28
ENDBRANCH   1  24
TORSDOF 10
ENDMDL
MODEL 3
REMARK VINA RESULT:      -8.3      4.293      9.386
REMARK  Name = 
REMARK  10 active torsions:
REMARK  status: ('A' for Active; 'I' for Inactive)
REMARK    1  A    between atoms: N_2  and  C_3
REMARK    2  A    between atoms: C_6  and  O_7
REMARK    3  A    between atoms: O_7  and  C_8
REMARK    4  A    between atoms: C_11  and  C_12
REMARK    5  A    between atoms: C_14  and  C_15
REMARK    6  A    between atoms: C_19  and  C_20
REMARK    7  A    between atoms: C_20  and  O_21
REMARK    8  A    between atoms: C_20  and  C_22
REMARK    9  A    between atoms: C_22  and  O_23
REMARK   10  A    between atoms: C_27  and  C_28
REMARK                            x       y       z     vdW  Elec       q    Type
REMARK                         _______ _______ _______ _____ _____    ______ ____
ROOT
ATOM      1  C   UNL     1       3.622   5.583  18.719  0.00  0.00    +0.000 A 
ATOM      2  C   UNL     1       2.853   5.465  19.879  0.00  0.00    +0.000 A 
ATOM      3  C   UNL     1       2.000   6.514  20.273  0.00  0.00    +0.000 A 
ATOM      4  C   UNL     1       1.891   7.699  19.520  0.00  0.00    +0.000 A 
ATOM      5  C   UNL     1       2.593   7.747  18.304  0.00  0.00    +0.000 A 
ATOM      6  C   UNL     1       3.463   6.726  17.926  0.00  0.00    +0.000 A 
ENDROOT
BRANCH   4   7
ATOM      7  C   UNL     1       1.117   8.866  19.981  0.00  0.00    +0.000 A 
ATOM      8  N   UNL     1       0.783   8.955  21.278  0.00  0.00    +0.000 NA
ATOM      9  C   UNL     1       0.095  10.071  21.622  0.00  0.00    +0.000 A 
ATOM     10  C   UNL     1      -0.273  11.067  20.743  0.00  0.00    +0.000 A 
ATOM     11  C   UNL     1       0.084  10.868  19.433  0.00  0.00    +0.000 A 
ATOM     12  N   UNL     1       0.818   9.799  19.049  0.00  0.00    +0.000 NA
BRANCH   9  13
ATOM     13  C   UNL     1      -0.346  10.193  23.046  0.00  0.00    +0.000 C 
ATOM     14  N   UNL     1      -1.467  10.944  23.268  0.00  0.00    +0.000 N 
ATOM     15  O   UNL     1       0.268   9.669  23.964  0.00  0.00    +0.000 OA
ATOM     16  H   UNL     1      -1.940  11.405  22.501  0.00  0.00    +0.000 HD
ATOM     17  H   UNL     1      -1.763  11.103  24.221  0.00  0.00    +0.000 HD
ENDBRANCH   9  13
BRANCH  11  18
ATOM     18  C   UNL     1      -0.403  11.796  18.343  0.00  0.00    +0.000 C 
BRANCH  18  19
ATOM     19  O   UNL     1      -0.473  13.126  18.871  0.00  0.00    +0.000 OA
ATOM     20  H   UNL     1      -1.310  13.503  18.542  0.00  0.00    +0.000 HD
ENDBRANCH  18  19
BRANCH  18  21
ATOM     21  C   UNL     1      -1.773  11.371  17.790  0.00  0.00    +0.000 C 
BRANCH  21  22
ATOM     22  O   UNL     1      -1.925   9.947  17.767  0.00  0.00    +0.000 OA
ATOM     23  H   UNL     1      -1.155   9.583  17.286  0.00  0.00    +0.000 HD
ENDBRANCH  21  22
ENDBRANCH  18  21
ENDBRANCH  11  18
ENDBRANCH   4   7
BRANCH   1  24
ATOM     24  O   UNL     1       4.535   4.574  18.420  0.00  0.00    +0.000 OA
BRANCH  24  28
ATOM     25  C   UNL     1       6.838   5.077  14.992  0.00  0.00    +0.000 A 
ATOM     26  C   UNL     1       5.574   4.531  14.885  0.00  0.00    +0.000 A 
ATOM     27  C   UNL     1       4.870   4.307  16.052  0.00  0.00    +0.000 A 
ATOM     28  C   UNL     1       5.352   4.733  17.310  0.00  0.00    +0.000 A 
ATOM     29  C   UNL     1       6.652   5.272  17.409  0.00  0.00    +0.000 A 
ATOM     30  C   UNL     1       7.391   5.436  16.214  0.00  0.00    +0.000 A 
BRANCH  29  31
ATOM     31  C   UNL     1       7.361   5.723  18.661  0.00  0.00    +0.000 C 
ATOM     32  F   UNL     1       6.622   5.738  19.793  0.00  0.00    +0.000 F 
ATOM     33  F   UNL     1       8.443   4.929  18.926  0.00  0.00    +0.000 F 
ATOM     34  F   UNL     1       7.880   6.980  18.526  0.00  0.00    +0.000 F 
ENDBRANCH  29  31
BRANCH  25  36
ATOM     35  C   UNL     1       8.197   5.403  12.845  0.00  0.00    +0.000 C 
ATOM     36  N   UNL     1       7.580   5.243  13.839  0.00  0.00    +0.000 NA
ENDBRANCH  25  36
ENDBRANCH  24  28
ENDBRANCH   1  24
TORSDOF 10
ENDMDL
MODEL 4
REMARK VINA RESULT:      -8.3      2.592      4.492
REMARK  Name = 
REMARK  10 active torsions:
REMARK  status: ('A' for Active; 'I' for Inactive)
REMARK    1  A    between atoms: N_2  and  C_3
REMARK    2  A    between atoms: C_6  and  O_7
REMARK    3  A    between atoms: O_7  and  C_8
REMARK    4  A    between atoms: C_11  and  C_12
REMARK    5  A    between atoms: C_14  and  C_15
REMARK    6  A    between atoms: C_19  and  C_20
REMARK    7  A    between atoms: C_20  and  O_21
REMARK    8  A    between atoms: C_20  and  C_22
REMARK    9  A    between atoms: C_22  and  O_23
REMARK   10  A    between atoms: C_27  and  C_28
REMARK                            x       y       z     vdW  Elec       q    Type
REMARK                         _______ _______ _______ _____ _____    ______ ____
ROOT
ATOM      1  C   UNL     1       0.957   9.234  19.723  0.00  0.00    +0.000 A 
ATOM      2  C   UNL     1       1.385   8.205  20.565  0.00  0.00    +0.000 A 
ATOM      3  C   UNL     1       2.236   7.196  20.074  0.00  0.00    +0.000 A 
ATOM      4  C   UNL     1       2.681   7.191  18.738  0.00  0.00    +0.000 A 
ATOM      5  C   UNL     1       2.324   8.294  17.944  0.00  0.00    +0.000 A 
ATOM      6  C   UNL     1       1.456   9.278  18.415  0.00  0.00    +0.000 A 
ENDROOT
BRANCH   4   7
ATOM      7  C   UNL     1       3.454   6.076  18.161  0.00  0.00    +0.000 A 
ATOM      8  N   UNL     1       2.954   4.832  18.230  0.00  0.00    +0.000 NA
ATOM      9  C   UNL     1       3.715   3.871  17.653  0.00  0.00    +0.000 A 
ATOM     10  C   UNL     1       4.928   4.094  17.039  0.00  0.00    +0.000 A 
ATOM     11  C   UNL     1       5.371   5.394  17.051  0.00  0.00    +0.000 A 
ATOM     12  N   UNL     1       4.624   6.397  17.565  0.00  0.00    +0.000 NA
BRANCH   9  13
ATOM     13  C   UNL     1       3.226   2.460  17.749  0.00  0.00    +0.000 C 
ATOM     14  N   UNL     1       4.069   1.569  18.352  0.00  0.00    +0.000 N 
ATOM     15  O   UNL     1       2.144   2.115  17.296  0.00  0.00    +0.000 OA
ATOM     16  H   UNL     1       4.979   1.863  18.685  0.00  0.00    +0.000 HD
ATOM     17  H   UNL     1       3.804   0.594  18.382  0.00  0.00    +0.000 HD
ENDBRANCH   9  13
BRANCH  11  18
ATOM     18  C   UNL     1       6.759   5.748  16.565  0.00  0.00    +0.000 C 
BRANCH  18  19
ATOM     19  O   UNL     1       7.509   4.539  16.402  0.00  0.00    +0.000 OA
ATOM     20  H   UNL     1       8.394   4.810  16.092  0.00  0.00    +0.000 HD
ENDBRANCH  18  19
BRANCH  18  21
ATOM     21  C   UNL     1       7.485   6.698  17.529  0.00  0.00    +0.000 C 
BRANCH  21  22
ATOM     22  O   UNL     1       7.345   8.070  17.141  0.00  0.00    +0.000 OA
ATOM     23  H   UNL     1       6.400   8.302  17.244  0.00  0.00    +0.000 HD
ENDBRANCH  21  22
ENDBRANCH  18  21
ENDBRANCH  11  18
ENDBRANCH   4   7
BRANCH   1  24
ATOM     24  O   UNL     1       0.030  10.152  20.211  0.00  0.00    +0.000 OA
BRANCH  24  28
ATOM     25  C   UNL     1       0.611  14.129  19.138  0.00  0.00    +0.000 A 
ATOM     26  C   UNL     1       1.444  13.552  20.076  0.00  0.00    +0.000 A 
ATOM     27  C   UNL     1       1.172  12.255  20.465  0.00  0.00    +0.000 A 
ATOM     28  C   UNL     1       0.165  11.483  19.844  0.00  0.00    +0.000 A 
ATOM     29  C   UNL     1      -0.692  12.089  18.900  0.00  0.00    +0.000 A 
ATOM     30  C   UNL     1      -0.447  13.439  18.558  0.00  0.00    +0.000 A 
BRANCH  29  31
ATOM     31  C   UNL     1      -1.855  11.453  18.182  0.00  0.00    +0.000 C 
ATOM     32  F   UNL     1      -1.824  10.106  18.071  0.00  0.00    +0.000 F 
ATOM     33  F   UNL     1      -3.038  11.756  18.797  0.00  0.00    +0.000 F 
ATOM     34  F   UNL     1      -1.993  11.939  16.911  0.00  0.00    +0.000 F 
ENDBRANCH  29  31
BRANCH  25  36
ATOM     35  C   UNL     1       1.040  16.573  18.499  0.00  0.00    +0.000 C 
ATOM     36  N   UNL     1       0.829  15.448  18.790  0.00  0.00    +0.000 NA
ENDBRANCH  25  36
ENDBRANCH  24  28
ENDBRANCH   1  24
TORSDOF 10
ENDMDL
MODEL 5
REMARK VINA RESULT:      -8.3      1.172      3.089
REMARK  Name = 
REMARK  10 active torsions:
REMARK  status: ('A' for Active; 'I' for Inactive)
REMARK    1  A    between atoms: N_2  and  C_3
REMARK    2  A    between atoms: C_6  and  O_7
REMARK    3  A    between atoms: O_7  and  C_8
REMARK    4  A    between atoms: C_11  and  C_12
REMARK    5  A    between atoms: C_14  and  C_15
REMARK    6  A    between atoms: C_19  and  C_20
REMARK    7  A    between atoms: C_20  and  O_21
REMARK    8  A    between atoms: C_20  and  C_22
REMARK    9  A    between atoms: C_22  and  O_23
REMARK   10  A    between atoms: C_27  and  C_28
REMARK                            x       y       z     vdW  Elec       q    Type
REMARK                         _______ _______ _______ _____ _____    ______ ____
ROOT
ATOM      1  C   UNL     1       1.388   9.430  19.361  0.00  0.00    +0.000 A 
ATOM      2  C   UNL     1       1.970   9.267  18.102  0.00  0.00    +0.000 A 
ATOM      3  C   UNL     1       2.653   8.077  17.786  0.00  0.00    +0.000 A 
ATOM      4  C   UNL     1       2.767   7.024  18.714  0.00  0.00    +0.000 A 
ATOM      5  C   UNL     1       2.081   7.170  19.931  0.00  0.00    +0.000 A 
ATOM      6  C   UNL     1       1.432   8.358  20.261  0.00  0.00    +0.000 A 
ENDROOT
BRANCH   4   7
ATOM      7  C   UNL     1       3.594   5.829  18.462  0.00  0.00    +0.000 A 
ATOM      8  N   UNL     1       3.022   4.616  18.524  0.00  0.00    +0.000 NA
ATOM      9  C   UNL     1       3.846   3.574  18.254  0.00  0.00    +0.000 A 
ATOM     10  C   UNL     1       5.184   3.692  17.946  0.00  0.00    +0.000 A 
ATOM     11  C   UNL     1       5.683   4.971  17.942  0.00  0.00    +0.000 A 
ATOM     12  N   UNL     1       4.891   6.047  18.150  0.00  0.00    +0.000 NA
BRANCH   9  13
ATOM     13  C   UNL     1       3.268   2.199  18.361  0.00  0.00    +0.000 C 
ATOM     14  N   UNL     1       4.159   1.163  18.287  0.00  0.00    +0.000 N 
ATOM     15  O   UNL     1       2.068   2.005  18.487  0.00  0.00    +0.000 OA
ATOM     16  H   UNL     1       5.145   1.340  18.142  0.00  0.00    +0.000 HD
ATOM     17  H   UNL     1       3.804   0.217  18.293  0.00  0.00    +0.000 HD
ENDBRANCH   9  13
BRANCH  11  18
ATOM     18  C   UNL     1       7.166   5.227  17.788  0.00  0.00    +0.000 C 
BRANCH  18  19
ATOM     19  O   UNL     1       7.850   3.969  17.787  0.00  0.00    +0.000 OA
ATOM     20  H   UNL     1       8.787   4.171  17.603  0.00  0.00    +0.000 HD
ENDBRANCH  18  19
BRANCH  18  21
ATOM     21  C   UNL     1       7.717   6.131  18.902  0.00  0.00    +0.000 C 
BRANCH  21  22
ATOM     22  O   UNL     1       7.566   5.539  20.198  0.00  0.00    +0.000 OA
ATOM     23  H   UNL     1       8.420   5.647  20.664  0.00  0.00    +0.000 HD
ENDBRANCH  21  22
ENDBRANCH  18  21
ENDBRANCH  11  18
ENDBRANCH   4   7
BRANCH   1  24
ATOM     24  O   UNL     1       0.817  10.662  19.676  0.00  0.00    +0.000 OA
BRANCH  24  28
ATOM     25  C   UNL     1      -3.041  11.293  18.253  0.00  0.00    +0.000 A 
ATOM     26  C   UNL     1      -2.232  10.365  17.627  0.00  0.00    +0.000 A 
ATOM     27  C   UNL     1      -0.932  10.239  18.078  0.00  0.00    +0.000 A 
ATOM     28  C   UNL     1      -0.466  10.929  19.220  0.00  0.00    +0.000 A 
ATOM     29  C   UNL     1      -1.295  11.888  19.838  0.00  0.00    +0.000 A 
ATOM     30  C   UNL     1      -2.603  12.058  19.327  0.00  0.00    +0.000 A 
BRANCH  29  31
ATOM     31  C   UNL     1      -0.957  12.764  21.018  0.00  0.00    +0.000 C 
ATOM     32  F   UNL     1      -0.539  12.126  22.135  0.00  0.00    +0.000 F 
ATOM     33  F   UNL     1       0.030  13.656  20.701  0.00  0.00    +0.000 F 
ATOM     34  F   UNL     1      -2.017  13.540  21.394  0.00  0.00    +0.000 F 
ENDBRANCH  29  31
BRANCH  25  36
ATOM     35  C   UNL     1      -5.422  11.649  17.377  0.00  0.00    +0.000 C 
ATOM     36  N   UNL     1      -4.321  11.479  17.768  0.00  0.00    +0.000 NA
ENDBRANCH  25  36
ENDBRANCH  24  28
ENDBRANCH   1  24
TORSDOF 10
ENDMDL
MODEL 6
REMARK VINA RESULT:      -8.3      2.488      3.406
REMARK  Name = 
REMARK  10 active torsions:
REMARK  status: ('A' for Active; 'I' for Inactive)
REMARK    1  A    between atoms: N_2  and  C_3
REMARK    2  A    between atoms: C_6  and  O_7
REMARK    3  A    between atoms: O_7  and  C_8
REMARK    4  A    between atoms: C_11  and  C_12
REMARK    5  A    between atoms: C_14  and  C_15
REMARK    6  A    between atoms: C_19  and  C_20
REMARK    7  A    between atoms: C_20  and  O_21
REMARK    8  A    between atoms: C_20  and  C_22
REMARK    9  A    between atoms: C_22  and  O_23
REMARK   10  A    between atoms: C_27  and  C_28
REMARK                            x       y       z     vdW  Elec       q    Type
REMARK                         _______ _______ _______ _____ _____    ______ ____
ROOT
ATOM      1  C   UNL     1       0.870   9.076  19.692  0.00  0.00    +0.000 A 
ATOM      2  C   UNL     1       1.258   8.120  20.633  0.00  0.00    +0.000 A 
ATOM      3  C   UNL     1       2.205   7.135  20.292  0.00  0.00    +0.000 A 
ATOM      4  C   UNL     1       2.787   7.083  19.011  0.00  0.00    +0.000 A 
ATOM      5  C   UNL     1       2.460   8.119  18.120  0.00  0.00    +0.000 A 
ATOM      6  C   UNL     1       1.499   9.077  18.441  0.00  0.00    +0.000 A 
ENDROOT
BRANCH   4   7
ATOM      7  C   UNL     1       3.672   5.983  18.583  0.00  0.00    +0.000 A 
ATOM      8  N   UNL     1       4.560   6.205  17.601  0.00  0.00    +0.000 NA
ATOM      9  C   UNL     1       5.350   5.149  17.289  0.00  0.00    +0.000 A 
ATOM     10  C   UNL     1       5.282   3.912  17.892  0.00  0.00    +0.000 A 
ATOM     11  C   UNL     1       4.318   3.774  18.860  0.00  0.00    +0.000 A 
ATOM     12  N   UNL     1       3.542   4.812  19.247  0.00  0.00    +0.000 NA
BRANCH   9  13
ATOM     13  C   UNL     1       6.321   5.330  16.165  0.00  0.00    +0.000 C 
ATOM     14  N   UNL     1       5.858   6.005  15.070  0.00  0.00    +0.000 N 
ATOM     15  O   UNL     1       7.458   4.883  16.210  0.00  0.00    +0.000 OA
ATOM     16  H   UNL     1       4.901   6.333  15.033  0.00  0.00    +0.000 HD
ATOM     17  H   UNL     1       6.461   6.095  14.264  0.00  0.00    +0.000 HD
ENDBRANCH   9  13
BRANCH  11  18
ATOM     18  C   UNL     1       4.023   2.426  19.479  0.00  0.00    +0.000 C 
BRANCH  18  19
ATOM     19  O   UNL     1       5.232   1.909  20.048  0.00  0.00    +0.000 OA
ATOM     20  H   UNL     1       5.812   1.689  19.294  0.00  0.00    +0.000 HD
ENDBRANCH  18  19
BRANCH  18  21
ATOM     21  C   UNL     1       3.450   1.432  18.456  0.00  0.00    +0.000 C 
BRANCH  21  22
ATOM     22  O   UNL     1       2.314   1.966  17.766  0.00  0.00    +0.000 OA
ATOM     23  H   UNL     1       2.039   1.299  17.106  0.00  0.00    +0.000 HD
ENDBRANCH  21  22
ENDBRANCH  18  21
ENDBRANCH  11  18
ENDBRANCH   4   7
BRANCH   1  24
ATOM     24  O   UNL     1      -0.149   9.966  20.028  0.00  0.00    +0.000 OA
BRANCH  24  28
ATOM     25  C   UNL     1       0.512  13.970  19.110  0.00  0.00    +0.000 A 
ATOM     26  C   UNL     1       1.231  13.382  20.132  0.00  0.00    +0.000 A 
ATOM     27  C   UNL     1       0.929  12.074  20.460  0.00  0.00    +0.000 A 
ATOM     28  C   UNL     1       0.014  11.305  19.705  0.00  0.00    +0.000 A 
ATOM     29  C   UNL     1      -0.727  11.922  18.675  0.00  0.00    +0.000 A 
ATOM     30  C   UNL     1      -0.458  13.282  18.392  0.00  0.00    +0.000 A 
BRANCH  29  31
ATOM     31  C   UNL     1      -1.786  11.290  17.807  0.00  0.00    +0.000 C 
ATOM     32  F   UNL     1      -2.139  11.980  16.699  0.00  0.00    +0.000 F 
ATOM     33  F   UNL     1      -1.394  10.054  17.375  0.00  0.00    +0.000 F 
ATOM     34  F   UNL     1      -2.942  11.063  18.501  0.00  0.00    +0.000 F 
ENDBRANCH  29  31
BRANCH  25  36
ATOM     35  C   UNL     1       0.988  16.427  18.565  0.00  0.00    +0.000 C 
ATOM     36  N   UNL     1       0.755  15.297  18.817  0.00  0.00    +0.000 NA
ENDBRANCH  25  36
ENDBRANCH  24  28
ENDBRANCH   1  24
TORSDOF 10
ENDMDL
MODEL 7
REMARK VINA RESULT:      -8.2      1.361      3.286
REMARK  Name = 
REMARK  10 active torsions:
REMARK  status: ('A' for Active; 'I' for Inactive)
REMARK    1  A    between atoms: N_2  and  C_3
REMARK    2  A    between atoms: C_6  and  O_7
REMARK    3  A    between atoms: O_7  and  C_8
REMARK    4  A    between atoms: C_11  and  C_12
REMARK    5  A    between atoms: C_14  and  C_15
REMARK    6  A    between atoms: C_19  and  C_20
REMARK    7  A    between atoms: C_20  and  O_21
REMARK    8  A    between atoms: C_20  and  C_22
REMARK    9  A    between atoms: C_22  and  O_23
REMARK   10  A    between atoms: C_27  and  C_28
REMARK                            x       y       z     vdW  Elec       q    Type
REMARK                         _______ _______ _______ _____ _____    ______ ____
ROOT
ATOM      1  C   UNL     1       0.893  10.353  18.827  0.00  0.00    +0.000 A 
ATOM      2  C   UNL     1       0.778   9.676  20.043  0.00  0.00    +0.000 A 
ATOM      3  C   UNL     1       1.393   8.421  20.215  0.00  0.00    +0.000 A 
ATOM      4  C   UNL     1       2.137   7.816  19.185  0.00  0.00    +0.000 A 
ATOM      5  C   UNL     1       2.327   8.566  18.012  0.00  0.00    +0.000 A 
ATOM      6  C   UNL     1       1.694   9.793  17.824  0.00  0.00    +0.000 A 
ENDROOT
BRANCH   4   7
ATOM      7  C   UNL     1       2.671   6.445  19.288  0.00  0.00    +0.000 A 
ATOM      8  N   UNL     1       2.076   5.575  20.120  0.00  0.00    +0.000 NA
ATOM      9  C   UNL     1       2.613   4.331  20.135  0.00  0.00    +0.000 A 
ATOM     10  C   UNL     1       3.698   3.936  19.383  0.00  0.00    +0.000 A 
ATOM     11  C   UNL     1       4.258   4.907  18.590  0.00  0.00    +0.000 A 
ATOM     12  N   UNL     1       3.727   6.147  18.498  0.00  0.00    +0.000 NA
BRANCH   9  13
ATOM     13  C   UNL     1       2.018   3.340  21.084  0.00  0.00    +0.000 C 
ATOM     14  N   UNL     1       0.738   2.940  20.815  0.00  0.00    +0.000 N 
ATOM     15  O   UNL     1       2.630   2.923  22.056  0.00  0.00    +0.000 OA
ATOM     16  H   UNL     1       0.231   3.327  20.029  0.00  0.00    +0.000 HD
ATOM     17  H   UNL     1       0.277   2.320  21.466  0.00  0.00    +0.000 HD
ENDBRANCH   9  13
BRANCH  11  18
ATOM     18  C   UNL     1       5.552   4.656  17.847  0.00  0.00    +0.000 C 
BRANCH  18  19
ATOM     19  O   UNL     1       6.468   4.001  18.732  0.00  0.00    +0.000 OA
ATOM     20  H   UNL     1       6.184   4.235  19.635  0.00  0.00    +0.000 HD
ENDBRANCH  18  19
BRANCH  18  21
ATOM     21  C   UNL     1       6.171   5.954  17.306  0.00  0.00    +0.000 C 
BRANCH  21  22
ATOM     22  O   UNL     1       5.627   6.320  16.033  0.00  0.00    +0.000 OA
ATOM     23  H   UNL     1       5.336   7.251  16.101  0.00  0.00    +0.000 HD
ENDBRANCH  21  22
ENDBRANCH  18  21
ENDBRANCH  11  18
ENDBRANCH   4   7
BRANCH   1  24
ATOM     24  O   UNL     1       0.182  11.539  18.655  0.00  0.00    +0.000 OA
BRANCH  24  28
ATOM     25  C   UNL     1      -3.955  11.168  18.419  0.00  0.00    +0.000 A 
ATOM     26  C   UNL     1      -3.158  10.399  17.593  0.00  0.00    +0.000 A 
ATOM     27  C   UNL     1      -1.793  10.606  17.645  0.00  0.00    +0.000 A 
ATOM     28  C   UNL     1      -1.202  11.473  18.592  0.00  0.00    +0.000 A 
ATOM     29  C   UNL     1      -2.028  12.266  19.416  0.00  0.00    +0.000 A 
ATOM     30  C   UNL     1      -3.428  12.095  19.309  0.00  0.00    +0.000 A 
BRANCH  29  31
ATOM     31  C   UNL     1      -1.589  13.288  20.435  0.00  0.00    +0.000 C 
ATOM     32  F   UNL     1      -0.652  14.173  20.028  0.00  0.00    +0.000 F 
ATOM     33  F   UNL     1      -2.649  14.033  20.872  0.00  0.00    +0.000 F 
ATOM     34  F   UNL     1      -1.094  12.697  21.564  0.00  0.00    +0.000 F 
ENDBRANCH  29  31
BRANCH  25  36
ATOM     35  C   UNL     1      -6.497  10.884  18.277  0.00  0.00    +0.000 C 
ATOM     36  N   UNL     1      -5.326  11.021  18.330  0.00  0.00    +0.000 NA
ENDBRANCH  25  36
ENDBRANCH  24  28
ENDBRANCH   1  24
TORSDOF 10
ENDMDL
MODEL 8
REMARK VINA RESULT:      -8.2      2.879      3.654
REMARK  Name = 
REMARK  10 active torsions:
REMARK  status: ('A' for Active; 'I' for Inactive)
REMARK    1  A    between atoms: N_2  and  C_3
REMARK    2  A    between atoms: C_6  and  O_7
REMARK    3  A    between atoms: O_7  and  C_8
REMARK    4  A    between atoms: C_11  and  C_12
REMARK    5  A    between atoms: C_14  and  C_15
REMARK    6  A    between atoms: C_19  and  C_20
REMARK    7  A    between atoms: C_20  and  O_21
REMARK    8  A    between atoms: C_20  and  C_22
REMARK    9  A    between atoms: C_22  and  O_23
REMARK   10  A    between atoms: C_27  and  C_28
REMARK                            x       y       z     vdW  Elec       q    Type
REMARK                         _______ _______ _______ _____ _____    ______ ____
ROOT
ATOM      1  C   UNL     1       1.055   9.488  18.999  0.00  0.00    +0.000 A 
ATOM      2  C   UNL     1       1.609   9.207  17.748  0.00  0.00    +0.000 A 
ATOM      3  C   UNL     1       2.470   8.105  17.586  0.00  0.00    +0.000 A 
ATOM      4  C   UNL     1       2.795   7.258  18.663  0.00  0.00    +0.000 A 
ATOM      5  C   UNL     1       2.141   7.499  19.882  0.00  0.00    +0.000 A 
ATOM      6  C   UNL     1       1.313   8.607  20.056  0.00  0.00    +0.000 A 
ENDROOT
BRANCH   4   7
ATOM      7  C   UNL     1       3.801   6.185  18.555  0.00  0.00    +0.000 A 
ATOM      8  N   UNL     1       4.923   6.412  17.854  0.00  0.00    +0.000 NA
ATOM      9  C   UNL     1       5.805   5.383  17.828  0.00  0.00    +0.000 A 
ATOM     10  C   UNL     1       5.610   4.167  18.445  0.00  0.00    +0.000 A 
ATOM     11  C   UNL     1       4.416   4.020  19.107  0.00  0.00    +0.000 A 
ATOM     12  N   UNL     1       3.528   5.034  19.209  0.00  0.00    +0.000 NA
BRANCH   9  13
ATOM     13  C   UNL     1       7.048   5.568  17.017  0.00  0.00    +0.000 C 
ATOM     14  N   UNL     1       7.780   4.439  16.769  0.00  0.00    +0.000 N 
ATOM     15  O   UNL     1       7.405   6.665  16.614  0.00  0.00    +0.000 OA
ATOM     16  H   UNL     1       7.492   3.545  17.146  0.00  0.00    +0.000 HD
ATOM     17  H   UNL     1       8.659   4.529  16.279  0.00  0.00    +0.000 HD
ENDBRANCH   9  13
BRANCH  11  18
ATOM     18  C   UNL     1       4.003   2.682  19.681  0.00  0.00    +0.000 C 
BRANCH  18  19
ATOM     19  O   UNL     1       5.172   2.014  20.170  0.00  0.00    +0.000 OA
ATOM     20  H   UNL     1       5.656   2.673  20.704  0.00  0.00    +0.000 HD
ENDBRANCH  18  19
BRANCH  18  21
ATOM     21  C   UNL     1       3.284   1.805  18.644  0.00  0.00    +0.000 C 
BRANCH  21  22
ATOM     22  O   UNL     1       4.037   0.631  18.318  0.00  0.00    +0.000 OA
ATOM     23  H   UNL     1       4.337   0.238  19.162  0.00  0.00    +0.000 HD
ENDBRANCH  21  22
ENDBRANCH  18  21
ENDBRANCH  11  18
ENDBRANCH   4   7
BRANCH   1  24
ATOM     24  O   UNL     1       0.297  10.648  19.147  0.00  0.00    +0.000 OA
BRANCH  24  28
ATOM     25  C   UNL     1       2.184  14.104  20.488  0.00  0.00    +0.000 A 
ATOM     26  C   UNL     1       2.542  13.567  19.267  0.00  0.00    +0.000 A 
ATOM     27  C   UNL     1       1.951  12.377  18.891  0.00  0.00    +0.000 A 
ATOM     28  C   UNL     1       0.919  11.781  19.650  0.00  0.00    +0.000 A 
ATOM     29  C   UNL     1       0.575  12.328  20.904  0.00  0.00    +0.000 A 
ATOM     30  C   UNL     1       1.235  13.511  21.312  0.00  0.00    +0.000 A 
BRANCH  29  31
ATOM     31  C   UNL     1      -0.448  11.804  21.881  0.00  0.00    +0.000 C 
ATOM     32  F   UNL     1      -0.641  12.542  22.997  0.00  0.00    +0.000 F 
ATOM     33  F   UNL     1      -1.675  11.682  21.290  0.00  0.00    +0.000 F 
ATOM     34  F   UNL     1      -0.142  10.541  22.306  0.00  0.00    +0.000 F 
ENDBRANCH  29  31
BRANCH  25  36
ATOM     35  C   UNL     1       3.335  16.255  21.271  0.00  0.00    +0.000 C 
ATOM     36  N   UNL     1       2.817  15.258  20.909  0.00  0.00    +0.000 NA
ENDBRANCH  25  36
ENDBRANCH  24  28
ENDBRANCH   1  24
TORSDOF 10
ENDMDL
MODEL 9
REMARK VINA RESULT:      -8.2      3.839      9.438
REMARK  Name = 
REMARK  10 active torsions:
REMARK  status: ('A' for Active; 'I' for Inactive)
REMARK    1  A    between atoms: N_2  and  C_3
REMARK    2  A    between atoms: C_6  and  O_7
REMARK    3  A    between atoms: O_7  and  C_8
REMARK    4  A    between atoms: C_11  and  C_12
REMARK    5  A    between atoms: C_14  and  C_15
REMARK    6  A    between atoms: C_19  and  C_20
REMARK    7  A    between atoms: C_20  and  O_21
REMARK    8  A    between atoms: C_20  and  C_22
REMARK    9  A    between atoms: C_22  and  O_23
REMARK   10  A    between atoms: C_27  and  C_28
REMARK                            x       y       z     vdW  Elec       q    Type
REMARK                         _______ _______ _______ _____ _____    ______ ____
ROOT
ATOM      1  C   UNL     1       2.631   7.248  19.336  0.00  0.00    +0.000 A 
ATOM      2  C   UNL     1       2.488   7.918  18.118  0.00  0.00    +0.000 A 
ATOM      3  C   UNL     1       1.537   8.947  17.984  0.00  0.00    +0.000 A 
ATOM      4  C   UNL     1       0.711   9.334  19.056  0.00  0.00    +0.000 A 
ATOM      5  C   UNL     1       0.949   8.719  20.297  0.00  0.00    +0.000 A 
ATOM      6  C   UNL     1       1.867   7.678  20.428  0.00  0.00    +0.000 A 
ENDROOT
BRANCH   4   7
ATOM      7  C   UNL     1      -0.387  10.307  18.904  0.00  0.00    +0.000 A 
ATOM      8  N   UNL     1      -1.150  10.262  17.801  0.00  0.00    +0.000 NA
ATOM      9  C   UNL     1      -2.151  11.173  17.754  0.00  0.00    +0.000 A 
ATOM     10  C   UNL     1      -2.405  12.111  18.731  0.00  0.00    +0.000 A 
ATOM     11  C   UNL     1      -1.548  12.100  19.804  0.00  0.00    +0.000 A 
ATOM     12  N   UNL     1      -0.568  11.176  19.924  0.00  0.00    +0.000 NA
BRANCH   9  13
ATOM     13  C   UNL     1      -2.998  11.198  16.521  0.00  0.00    +0.000 C 
ATOM     14  N   UNL     1      -4.192  11.858  16.622  0.00  0.00    +0.000 N 
ATOM     15  O   UNL     1      -2.656  10.644  15.486  0.00  0.00    +0.000 OA
ATOM     16  H   UNL     1      -4.477  12.276  17.498  0.00  0.00    +0.000 HD
ATOM     17  H   UNL     1      -4.821  11.845  15.831  0.00  0.00    +0.000 HD
ENDBRANCH   9  13
BRANCH  11  18
ATOM     18  C   UNL     1      -1.609  13.181  20.861  0.00  0.00    +0.000 C 
BRANCH  18  19
ATOM     19  O   UNL     1      -1.729  14.451  20.210  0.00  0.00    +0.000 OA
ATOM     20  H   UNL     1      -0.870  14.897  20.330  0.00  0.00    +0.000 HD
ENDBRANCH  18  19
BRANCH  18  21
ATOM     21  C   UNL     1      -0.374  13.166  21.776  0.00  0.00    +0.000 C 
BRANCH  21  22
ATOM     22  O   UNL     1      -0.433  12.111  22.742  0.00  0.00    +0.000 OA
ATOM     23  H   UNL     1      -0.935  12.451  23.510  0.00  0.00    +0.000 HD
ENDBRANCH  21  22
ENDBRANCH  18  21
ENDBRANCH  11  18
ENDBRANCH   4   7
BRANCH   1  24
ATOM     24  O   UNL     1       3.503   6.164  19.401  0.00  0.00    +0.000 OA
BRANCH  24  28
ATOM     25  C   UNL     1       5.295   4.768  15.916  0.00  0.00    +0.000 A 
ATOM     26  C   UNL     1       5.866   5.827  16.594  0.00  0.00    +0.000 A 
ATOM     27  C   UNL     1       5.201   6.313  17.703  0.00  0.00    +0.000 A 
ATOM     28  C   UNL     1       4.046   5.683  18.219  0.00  0.00    +0.000 A 
ATOM     29  C   UNL     1       3.461   4.615  17.507  0.00  0.00    +0.000 A 
ATOM     30  C   UNL     1       4.114   4.167  16.335  0.00  0.00    +0.000 A 
BRANCH  29  31
ATOM     31  C   UNL     1       2.204   3.861  17.861  0.00  0.00    +0.000 C 
ATOM     32  F   UNL     1       1.998   3.627  19.176  0.00  0.00    +0.000 F 
ATOM     33  F   UNL     1       1.093   4.523  17.415  0.00  0.00    +0.000 F 
ATOM     34  F   UNL     1       2.152   2.643  17.242  0.00  0.00    +0.000 F 
ENDBRANCH  29  31
BRANCH  25  36
ATOM     35  C   UNL     1       6.456   3.949  13.784  0.00  0.00    +0.000 C 
ATOM     36  N   UNL     1       5.912   4.315  14.766  0.00  0.00    +0.000 NA
ENDBRANCH  25  36
ENDBRANCH  24  28
ENDBRANCH   1  24
TORSDOF 10
ENDMDL
