MODEL 1
REMARK VINA RESULT:      -8.5      0.000      0.000
REMARK  Name = 
REMARK  13 active torsions:
REMARK  status: ('A' for Active; 'I' for Inactive)
REMARK    1  A    between atoms: C_1  and  C_2
REMARK    2  A    between atoms: C_2  and  O_3
REMARK    3  A    between atoms: O_3  and  C_4
REMARK    4  A    between atoms: C_4  and  C_6
REMARK    5  A    between atoms: C_6  and  O_7
REMARK    6  A    between atoms: C_6  and  C_8
REMARK    7  A    between atoms: C_8  and  O_9
REMARK    8  A    between atoms: C_8  and  C_10
REMARK    9  A    between atoms: C_14  and  C_15
REMARK   10  A    between atoms: C_18  and  O_19
REMARK   11  A    between atoms: O_19  and  C_20
REMARK   12  A    between atoms: C_23  and  C_24
REMARK   13  A    between atoms: C_28  and  C_29
REMARK                            x       y       z     vdW  Elec       q    Type
REMARK                         _______ _______ _______ _____ _____    ______ ____
ROOT
ATOM      1  C   UNL     1       1.834   7.849  19.921  0.00  0.00    +0.000 A 
ATOM      2  C   UNL     1       1.963   8.542  18.707  0.00  0.00    +0.000 A 
ATOM      3  C   UNL     1       1.371   9.792  18.538  0.00  0.00    +0.000 A 
ATOM      4  C   UNL     1       0.647  10.367  19.582  0.00  0.00    +0.000 A 
ATOM      5  C   UNL     1       0.580   9.731  20.820  0.00  0.00    +0.000 A 
ATOM      6  C   UNL     1       1.141   8.471  20.975  0.00  0.00    +0.000 A 
ENDROOT
BRANCH   1  11
ATOM      7  C   UNL     1       3.885   4.915  19.404  0.00  0.00    +0.000 A 
ATOM      8  C   UNL     1       3.005   3.863  19.664  0.00  0.00    +0.000 A 
ATOM      9  C   UNL     1       1.770   4.137  20.242  0.00  0.00    +0.000 A 
ATOM     10  C   UNL     1       1.417   5.454  20.485  0.00  0.00    +0.000 A 
ATOM     11  C   UNL     1       2.282   6.462  20.070  0.00  0.00    +0.000 A 
ATOM     12  N   UNL     1       3.529   6.209  19.594  0.00  0.00    +0.000 NA
BRANCH   7  13
ATOM     13  C   UNL     1       5.341   4.633  19.046  0.00  0.00    +0.000 C 
BRANCH  13  14
ATOM     14  O   UNL     1       5.579   3.227  18.891  0.00  0.00    +0.000 OA
ATOM     15  H   UNL     1       5.094   2.957  18.083  0.00  0.00    +0.000 HD
ENDBRANCH  13  14
BRANCH  13  16
ATOM     16  C   UNL     1       5.907   5.433  17.841  0.00  0.00    +0.000 C 
BRANCH  16  17
ATOM     17  C   UNL     1       6.823   4.551  16.972  0.00  0.00    +0.000 C 
ATOM     18  O   UNL     1       8.004   4.329  17.221  0.00  0.00    +0.000 OA
BRANCH  17  19
ATOM     19  O   UNL     1       6.162   4.142  15.855  0.00  0.00    +0.000 OA
BRANCH  19  21
ATOM     20  C   UNL     1       6.152   3.790  13.457  0.00  0.00    +0.000 C 
ATOM     21  C   UNL     1       6.698   4.624  14.599  0.00  0.00    +0.000 C 
ENDBRANCH  19  21
ENDBRANCH  17  19
ENDBRANCH  16  17
BRANCH  16  22
ATOM     22  O   UNL     1       4.880   6.110  17.120  0.00  0.00    +0.000 OA
ATOM     23  H   UNL     1       5.007   7.064  17.318  0.00  0.00    +0.000 HD
ENDBRANCH  16  22
ENDBRANCH  13  16
ENDBRANCH   7  13
ENDBRANCH   1  11
BRANCH   4  24
ATOM     24  O   UNL     1       0.055  11.573  19.309  0.00  0.00    +0.000 OA
BRANCH  24  25
ATOM     25  C   UNL     1      -1.252  11.603  18.886  0.00  0.00    +0.000 A 
ATOM     26  C   UNL     1      -2.160  12.124  19.803  0.00  0.00    +0.000 A 
ATOM     27  C   UNL     1      -3.511  12.205  19.474  0.00  0.00    +0.000 A 
ATOM     28  C   UNL     1      -3.973  11.764  18.221  0.00  0.00    +0.000 A 
ATOM     29  C   UNL     1      -3.051  11.249  17.293  0.00  0.00    +0.000 A 
ATOM     30  C   UNL     1      -1.689  11.203  17.619  0.00  0.00    +0.000 A 
BRANCH  28  31
ATOM     31  C   UNL     1      -5.439  11.867  17.883  0.00  0.00    +0.000 C 
ATOM     32  F   UNL     1      -6.022  10.656  17.658  0.00  0.00    +0.000 F 
ATOM     33  F   UNL     1      -6.158  12.443  18.883  0.00  0.00    +0.000 F 
ATOM     34  F   UNL     1      -5.668  12.601  16.763  0.00  0.00    +0.000 F 
ENDBRANCH  28  31
BRANCH  29  35
ATOM     35  C   UNL     1      -3.457  10.750  16.008  0.00  0.00    +0.000 C 
ATOM     36  N   UNL     1      -3.811  10.343  14.981  0.00  0.00    +0.000 NA
ENDBRANCH  29  35
ENDBRANCH  24  25
ENDBRANCH   4  24
TORSDOF 12
ENDMDL
MODEL 2
REMARK VINA RESULT:      -8.4      1.764      2.478
REMARK  Name = 
REMARK  13 active torsions:
REMARK  status: ('A' for Active; 'I' for Inactive)
REMARK    1  A    between atoms: C_1  and  C_2
REMARK    2  A    between atoms: C_2  and  O_3
REMARK    3  A    between atoms: O_3  and  C_4
REMARK    4  A    between atoms: C_4  and  C_6
REMARK    5  A    between atoms: C_6  and  O_7
REMARK    6  A    between atoms: C_6  and  C_8
REMARK    7  A    between atoms: C_8  and  O_9
REMARK    8  A    between atoms: C_8  and  C_10
REMARK    9  A    between atoms: C_14  and  C_15
REMARK   10  A    between atoms: C_18  and  O_19
REMARK   11  A    between atoms: O_19  and  C_20
REMARK   12  A    between atoms: C_23  and  C_24
REMARK   13  A    between atoms: C_28  and  C_29
REMARK                            x       y       z     vdW  Elec       q    Type
REMARK                         _______ _______ _______ _____ _____    ______ ____
ROOT
ATOM      1  C   UNL     1       2.041   7.733  19.458  0.00  0.00    +0.000 A 
ATOM      2  C   UNL     1       2.196   8.359  18.212  0.00  0.00    +0.000 A 
ATOM      3  C   UNL     1       1.612   9.601  17.965  0.00  0.00    +0.000 A 
ATOM      4  C   UNL     1       0.870  10.231  18.962  0.00  0.00    +0.000 A 
ATOM      5  C   UNL     1       0.776   9.663  20.231  0.00  0.00    +0.000 A 
ATOM      6  C   UNL     1       1.329   8.411  20.464  0.00  0.00    +0.000 A 
ENDROOT
BRANCH   1  11
ATOM      7  C   UNL     1       3.626   4.558  18.760  0.00  0.00    +0.000 A 
ATOM      8  C   UNL     1       2.912   3.664  19.560  0.00  0.00    +0.000 A 
ATOM      9  C   UNL     1       2.037   4.160  20.519  0.00  0.00    +0.000 A 
ATOM     10  C   UNL     1       1.846   5.528  20.613  0.00  0.00    +0.000 A 
ATOM     11  C   UNL     1       2.480   6.354  19.690  0.00  0.00    +0.000 A 
ATOM     12  N   UNL     1       3.410   5.894  18.812  0.00  0.00    +0.000 NA
BRANCH   7  13
ATOM     13  C   UNL     1       4.794   4.069  17.908  0.00  0.00    +0.000 C 
BRANCH  13  14
ATOM     14  O   UNL     1       4.674   4.513  16.550  0.00  0.00    +0.000 OA
ATOM     15  H   UNL     1       5.084   3.814  15.999  0.00  0.00    +0.000 HD
ENDBRANCH  13  14
BRANCH  13  16
ATOM     16  C   UNL     1       6.211   4.366  18.472  0.00  0.00    +0.000 C 
BRANCH  16  17
ATOM     17  C   UNL     1       7.082   5.087  17.425  0.00  0.00    +0.000 C 
ATOM     18  O   UNL     1       7.898   4.524  16.702  0.00  0.00    +0.000 OA
BRANCH  17  19
ATOM     19  O   UNL     1       6.883   6.431  17.492  0.00  0.00    +0.000 OA
BRANCH  19  21
ATOM     20  C   UNL     1       7.884   8.631  17.677  0.00  0.00    +0.000 C 
ATOM     21  C   UNL     1       7.933   7.188  18.140  0.00  0.00    +0.000 C 
ENDBRANCH  19  21
ENDBRANCH  17  19
ENDBRANCH  16  17
BRANCH  16  22
ATOM     22  O   UNL     1       6.156   5.010  19.742  0.00  0.00    +0.000 OA
ATOM     23  H   UNL     1       6.052   4.286  20.398  0.00  0.00    +0.000 HD
ENDBRANCH  16  22
ENDBRANCH  13  16
ENDBRANCH   7  13
ENDBRANCH   1  11
BRANCH   4  24
ATOM     24  O   UNL     1       0.288  11.424  18.614  0.00  0.00    +0.000 OA
BRANCH  24  25
ATOM     25  C   UNL     1      -1.080  11.548  18.671  0.00  0.00    +0.000 A 
ATOM     26  C   UNL     1      -1.780  10.844  17.696  0.00  0.00    +0.000 A 
ATOM     27  C   UNL     1      -3.171  10.896  17.666  0.00  0.00    +0.000 A 
ATOM     28  C   UNL     1      -3.883  11.658  18.610  0.00  0.00    +0.000 A 
ATOM     29  C   UNL     1      -3.172  12.359  19.601  0.00  0.00    +0.000 A 
ATOM     30  C   UNL     1      -1.774  12.272  19.645  0.00  0.00    +0.000 A 
BRANCH  28  31
ATOM     31  C   UNL     1      -5.389  11.695  18.562  0.00  0.00    +0.000 C 
ATOM     32  F   UNL     1      -5.914  10.895  17.593  0.00  0.00    +0.000 F 
ATOM     33  F   UNL     1      -5.952  11.281  19.728  0.00  0.00    +0.000 F 
ATOM     34  F   UNL     1      -5.874  12.941  18.315  0.00  0.00    +0.000 F 
ENDBRANCH  28  31
BRANCH  29  35
ATOM     35  C   UNL     1      -3.832  13.182  20.576  0.00  0.00    +0.000 C 
ATOM     36  N   UNL     1      -4.378  13.859  21.344  0.00  0.00    +0.000 NA
ENDBRANCH  29  35
ENDBRANCH  24  25
ENDBRANCH   4  24
TORSDOF 12
ENDMDL
MODEL 3
REMARK VINA RESULT:      -8.3      0.993      1.641
REMARK  Name = 
REMARK  13 active torsions:
REMARK  status: ('A' for Active; 'I' for Inactive)
REMARK    1  A    between atoms: C_1  and  C_2
REMARK    2  A    between atoms: C_2  and  O_3
REMARK    3  A    between atoms: O_3  and  C_4
REMARK    4  A    between atoms: C_4  and  C_6
REMARK    5  A    between atoms: C_6  and  O_7
REMARK    6  A    between atoms: C_6  and  C_8
REMARK    7  A    between atoms: C_8  and  O_9
REMARK    8  A    between atoms: C_8  and  C_10
REMARK    9  A    between atoms: C_14  and  C_15
REMARK   10  A    between atoms: C_18  and  O_19
REMARK   11  A    between atoms: O_19  and  C_20
REMARK   12  A    between atoms: C_23  and  C_24
REMARK   13  A    between atoms: C_28  and  C_29
REMARK                            x       y       z     vdW  Elec       q    Type
REMARK                         _______ _______ _______ _____ _____    ______ ____
ROOT
ATOM      1  C   UNL     1       1.835   7.697  19.923  0.00  0.00    +0.000 A 
ATOM      2  C   UNL     1       1.983   8.378  18.706  0.00  0.00    +0.000 A 
ATOM      3  C   UNL     1       1.428   9.645  18.529  0.00  0.00    +0.000 A 
ATOM      4  C   UNL     1       0.722  10.246  19.570  0.00  0.00    +0.000 A 
ATOM      5  C   UNL     1       0.638   9.621  20.812  0.00  0.00    +0.000 A 
ATOM      6  C   UNL     1       1.162   8.345  20.974  0.00  0.00    +0.000 A 
ENDROOT
BRANCH   1  11
ATOM      7  C   UNL     1       3.648   4.638  19.258  0.00  0.00    +0.000 A 
ATOM      8  C   UNL     1       2.778   3.648  19.719  0.00  0.00    +0.000 A 
ATOM      9  C   UNL     1       1.667   4.015  20.470  0.00  0.00    +0.000 A 
ATOM     10  C   UNL     1       1.415   5.358  20.688  0.00  0.00    +0.000 A 
ATOM     11  C   UNL     1       2.242   6.298  20.080  0.00  0.00    +0.000 A 
ATOM     12  N   UNL     1       3.383   5.957  19.426  0.00  0.00    +0.000 NA
BRANCH   7  13
ATOM     13  C   UNL     1       5.012   4.263  18.688  0.00  0.00    +0.000 C 
BRANCH  13  14
ATOM     14  O   UNL     1       5.415   2.954  19.112  0.00  0.00    +0.000 OA
ATOM     15  H   UNL     1       5.006   2.816  19.991  0.00  0.00    +0.000 HD
ENDBRANCH  13  14
BRANCH  13  16
ATOM     16  C   UNL     1       5.170   4.429  17.151  0.00  0.00    +0.000 C 
BRANCH  16  17
ATOM     17  C   UNL     1       5.666   5.843  16.796  0.00  0.00    +0.000 C 
ATOM     18  O   UNL     1       4.943   6.743  16.382  0.00  0.00    +0.000 OA
BRANCH  17  19
ATOM     19  O   UNL     1       7.020   5.911  16.915  0.00  0.00    +0.000 OA
BRANCH  19  21
ATOM     20  C   UNL     1       7.831   8.087  17.611  0.00  0.00    +0.000 C 
ATOM     21  C   UNL     1       7.511   6.670  18.046  0.00  0.00    +0.000 C 
ENDBRANCH  19  21
ENDBRANCH  17  19
ENDBRANCH  16  17
BRANCH  16  22
ATOM     22  O   UNL     1       5.933   3.371  16.577  0.00  0.00    +0.000 OA
ATOM     23  H   UNL     1       5.300   2.863  16.023  0.00  0.00    +0.000 HD
ENDBRANCH  16  22
ENDBRANCH  13  16
ENDBRANCH   7  13
ENDBRANCH   1  11
BRANCH   4  24
ATOM     24  O   UNL     1       0.166  11.468  19.290  0.00  0.00    +0.000 OA
BRANCH  24  25
ATOM     25  C   UNL     1      -1.142  11.534  18.873  0.00  0.00    +0.000 A 
ATOM     26  C   UNL     1      -2.034  12.065  19.800  0.00  0.00    +0.000 A 
ATOM     27  C   UNL     1      -3.383  12.183  19.477  0.00  0.00    +0.000 A 
ATOM     28  C   UNL     1      -3.861  11.768  18.221  0.00  0.00    +0.000 A 
ATOM     29  C   UNL     1      -2.954  11.243  17.283  0.00  0.00    +0.000 A 
ATOM     30  C   UNL     1      -1.593  11.160  17.603  0.00  0.00    +0.000 A 
BRANCH  28  31
ATOM     31  C   UNL     1      -5.325  11.910  17.891  0.00  0.00    +0.000 C 
ATOM     32  F   UNL     1      -5.937  10.717  17.649  0.00  0.00    +0.000 F 
ATOM     33  F   UNL     1      -6.027  12.488  18.901  0.00  0.00    +0.000 F 
ATOM     34  F   UNL     1      -5.541  12.666  16.783  0.00  0.00    +0.000 F 
ENDBRANCH  28  31
BRANCH  29  35
ATOM     35  C   UNL     1      -3.378  10.769  15.994  0.00  0.00    +0.000 C 
ATOM     36  N   UNL     1      -3.704  10.407  14.941  0.00  0.00    +0.000 NA
ENDBRANCH  29  35
ENDBRANCH  24  25
ENDBRANCH   4  24
TORSDOF 12
ENDMDL
MODEL 4
REMARK VINA RESULT:      -8.2      1.925      2.826
REMARK  Name = 
REMARK  13 active torsions:
REMARK  status: ('A' for Active; 'I' for Inactive)
REMARK    1  A    between atoms: C_1  and  C_2
REMARK    2  A    between atoms: C_2  and  O_3
REMARK    3  A    between atoms: O_3  and  C_4
REMARK    4  A    between atoms: C_4  and  C_6
REMARK    5  A    between atoms: C_6  and  O_7
REMARK    6  A    between atoms: C_6  and  C_8
REMARK    7  A    between atoms: C_8  and  O_9
REMARK    8  A    between atoms: C_8  and  C_10
REMARK    9  A    between atoms: C_14  and  C_15
REMARK   10  A    between atoms: C_18  and  O_19
REMARK   11  A    between atoms: O_19  and  C_20
REMARK   12  A    between atoms: C_23  and  C_24
REMARK   13  A    between atoms: C_28  and  C_29
REMARK                            x       y       z     vdW  Elec       q    Type
REMARK                         _______ _______ _______ _____ _____    ______ ____
ROOT
ATOM      1  C   UNL     1       2.598   7.008  18.607  0.00  0.00    +0.000 A 
ATOM      2  C   UNL     1       2.669   8.041  17.660  0.00  0.00    +0.000 A 
ATOM      3  C   UNL     1       2.087   9.281  17.919  0.00  0.00    +0.000 A 
ATOM      4  C   UNL     1       1.432   9.503  19.129  0.00  0.00    +0.000 A 
ATOM      5  C   UNL     1       1.425   8.517  20.113  0.00  0.00    +0.000 A 
ATOM      6  C   UNL     1       1.974   7.272  19.839  0.00  0.00    +0.000 A 
ENDROOT
BRANCH   1  11
ATOM      7  C   UNL     1       4.403   4.368  16.915  0.00  0.00    +0.000 A 
ATOM      8  C   UNL     1       3.578   3.256  17.093  0.00  0.00    +0.000 A 
ATOM      9  C   UNL     1       2.514   3.334  17.984  0.00  0.00    +0.000 A 
ATOM     10  C   UNL     1       2.259   4.534  18.626  0.00  0.00    +0.000 A 
ATOM     11  C   UNL     1       3.033   5.643  18.295  0.00  0.00    +0.000 A 
ATOM     12  N   UNL     1       4.132   5.560  17.501  0.00  0.00    +0.000 NA
BRANCH   7  13
ATOM     13  C   UNL     1       5.731   4.234  16.178  0.00  0.00    +0.000 C 
BRANCH  13  14
ATOM     14  O   UNL     1       5.533   3.914  14.794  0.00  0.00    +0.000 OA
ATOM     15  H   UNL     1       4.610   3.595  14.720  0.00  0.00    +0.000 HD
ENDBRANCH  13  14
BRANCH  13  16
ATOM     16  C   UNL     1       6.718   5.424  16.343  0.00  0.00    +0.000 C 
BRANCH  16  17
ATOM     17  C   UNL     1       7.471   5.336  17.684  0.00  0.00    +0.000 C 
ATOM     18  O   UNL     1       8.045   4.330  18.087  0.00  0.00    +0.000 OA
BRANCH  17  19
ATOM     19  O   UNL     1       7.321   6.493  18.384  0.00  0.00    +0.000 OA
BRANCH  19  21
ATOM     20  C   UNL     1       8.220   8.701  17.944  0.00  0.00    +0.000 C 
ATOM     21  C   UNL     1       7.149   7.689  17.586  0.00  0.00    +0.000 C 
ENDBRANCH  19  21
ENDBRANCH  17  19
ENDBRANCH  16  17
BRANCH  16  22
ATOM     22  O   UNL     1       7.557   5.582  15.201  0.00  0.00    +0.000 OA
ATOM     23  H   UNL     1       7.578   6.548  15.024  0.00  0.00    +0.000 HD
ENDBRANCH  16  22
ENDBRANCH  13  16
ENDBRANCH   7  13
ENDBRANCH   1  11
BRANCH   4  24
ATOM     24  O   UNL     1       0.843  10.733  19.276  0.00  0.00    +0.000 OA
BRANCH  24  25
ATOM     25  C   UNL     1      -0.474  10.898  18.921  0.00  0.00    +0.000 A 
ATOM     26  C   UNL     1      -0.868  10.218  17.772  0.00  0.00    +0.000 A 
ATOM     27  C   UNL     1      -2.184  10.312  17.326  0.00  0.00    +0.000 A 
ATOM     28  C   UNL     1      -3.126  11.089  18.024  0.00  0.00    +0.000 A 
ATOM     29  C   UNL     1      -2.727  11.765  19.191  0.00  0.00    +0.000 A 
ATOM     30  C   UNL     1      -1.410  11.637  19.652  0.00  0.00    +0.000 A 
BRANCH  28  31
ATOM     31  C   UNL     1      -4.546  11.171  17.526  0.00  0.00    +0.000 C 
ATOM     32  F   UNL     1      -4.711  10.632  16.286  0.00  0.00    +0.000 F 
ATOM     33  F   UNL     1      -5.414  10.508  18.336  0.00  0.00    +0.000 F 
ATOM     34  F   UNL     1      -4.997  12.450  17.435  0.00  0.00    +0.000 F 
ENDBRANCH  28  31
BRANCH  29  35
ATOM     35  C   UNL     1      -3.627  12.602  19.934  0.00  0.00    +0.000 C 
ATOM     36  N   UNL     1      -4.355  13.296  20.514  0.00  0.00    +0.000 NA
ENDBRANCH  29  35
ENDBRANCH  24  25
ENDBRANCH   4  24
TORSDOF 12
ENDMDL
MODEL 5
REMARK VINA RESULT:      -8.2      1.513      2.140
REMARK  Name = 
REMARK  13 active torsions:
REMARK  status: ('A' for Active; 'I' for Inactive)
REMARK    1  A    between atoms: C_1  and  C_2
REMARK    2  A    between atoms: C_2  and  O_3
REMARK    3  A    between atoms: O_3  and  C_4
REMARK    4  A    between atoms: C_4  and  C_6
REMARK    5  A    between atoms: C_6  and  O_7
REMARK    6  A    between atoms: C_6  and  C_8
REMARK    7  A    between atoms: C_8  and  O_9
REMARK    8  A    between atoms: C_8  and  C_10
REMARK    9  A    between atoms: C_14  and  C_15
REMARK   10  A    between atoms: C_18  and  O_19
REMARK   11  A    between atoms: O_19  and  C_20
REMARK   12  A    between atoms: C_23  and  C_24
REMARK   13  A    between atoms: C_28  and  C_29
REMARK                            x       y       z     vdW  Elec       q    Type
REMARK                         _______ _______ _______ _____ _____    ______ ____
ROOT
ATOM      1  C   UNL     1       2.098   7.451  19.721  0.00  0.00    +0.000 A 
ATOM      2  C   UNL     1       2.259   8.140  18.510  0.00  0.00    +0.000 A 
ATOM      3  C   UNL     1       1.729   9.419  18.345  0.00  0.00    +0.000 A 
ATOM      4  C   UNL     1       1.036  10.025  19.392  0.00  0.00    +0.000 A 
ATOM      5  C   UNL     1       0.940   9.390  20.629  0.00  0.00    +0.000 A 
ATOM      6  C   UNL     1       1.438   8.103  20.779  0.00  0.00    +0.000 A 
ENDROOT
BRANCH   1  11
ATOM      7  C   UNL     1       3.462   4.234  18.788  0.00  0.00    +0.000 A 
ATOM      8  C   UNL     1       2.754   3.343  19.595  0.00  0.00    +0.000 A 
ATOM      9  C   UNL     1       1.970   3.839  20.630  0.00  0.00    +0.000 A 
ATOM     10  C   UNL     1       1.859   5.209  20.794  0.00  0.00    +0.000 A 
ATOM     11  C   UNL     1       2.477   6.043  19.866  0.00  0.00    +0.000 A 
ATOM     12  N   UNL     1       3.322   5.576  18.910  0.00  0.00    +0.000 NA
BRANCH   7  13
ATOM     13  C   UNL     1       4.545   3.725  17.841  0.00  0.00    +0.000 C 
BRANCH  13  14
ATOM     14  O   UNL     1       4.168   3.904  16.469  0.00  0.00    +0.000 OA
ATOM     15  H   UNL     1       3.435   3.275  16.305  0.00  0.00    +0.000 HD
ENDBRANCH  13  14
BRANCH  13  16
ATOM     16  C   UNL     1       5.979   4.264  18.104  0.00  0.00    +0.000 C 
BRANCH  16  17
ATOM     17  C   UNL     1       6.418   5.232  16.988  0.00  0.00    +0.000 C 
ATOM     18  O   UNL     1       5.979   6.368  16.850  0.00  0.00    +0.000 OA
BRANCH  17  19
ATOM     19  O   UNL     1       7.280   4.610  16.139  0.00  0.00    +0.000 OA
BRANCH  19  21
ATOM     20  C   UNL     1       6.273   3.876  14.059  0.00  0.00    +0.000 C 
ATOM     21  C   UNL     1       7.120   4.935  14.737  0.00  0.00    +0.000 C 
ENDBRANCH  19  21
ENDBRANCH  17  19
ENDBRANCH  16  17
BRANCH  16  22
ATOM     22  O   UNL     1       6.121   4.778  19.425  0.00  0.00    +0.000 OA
ATOM     23  H   UNL     1       5.221   4.746  19.817  0.00  0.00    +0.000 HD
ENDBRANCH  16  22
ENDBRANCH  13  16
ENDBRANCH   7  13
ENDBRANCH   1  11
BRANCH   4  24
ATOM     24  O   UNL     1       0.505  11.261  19.124  0.00  0.00    +0.000 OA
BRANCH  24  25
ATOM     25  C   UNL     1      -0.853  11.388  18.952  0.00  0.00    +0.000 A 
ATOM     26  C   UNL     1      -1.379  10.697  17.865  0.00  0.00    +0.000 A 
ATOM     27  C   UNL     1      -2.746  10.752  17.602  0.00  0.00    +0.000 A 
ATOM     28  C   UNL     1      -3.606  11.504  18.423  0.00  0.00    +0.000 A 
ATOM     29  C   UNL     1      -3.071  12.191  19.527  0.00  0.00    +0.000 A 
ATOM     30  C   UNL     1      -1.701  12.101  19.805  0.00  0.00    +0.000 A 
BRANCH  28  31
ATOM     31  C   UNL     1      -5.083  11.545  18.123  0.00  0.00    +0.000 C 
ATOM     32  F   UNL     1      -5.592  12.809  18.120  0.00  0.00    +0.000 F 
ATOM     33  F   UNL     1      -5.375  11.025  16.902  0.00  0.00    +0.000 F 
ATOM     34  F   UNL     1      -5.821  10.852  19.029  0.00  0.00    +0.000 F 
ENDBRANCH  28  31
BRANCH  29  35
ATOM     35  C   UNL     1      -3.886  13.003  20.389  0.00  0.00    +0.000 C 
ATOM     36  N   UNL     1      -4.522  13.675  21.089  0.00  0.00    +0.000 NA
ENDBRANCH  29  35
ENDBRANCH  24  25
ENDBRANCH   4  24
TORSDOF 12
ENDMDL
MODEL 6
REMARK VINA RESULT:      -8.2      1.468      1.888
REMARK  Name = 
REMARK  13 active torsions:
REMARK  status: ('A' for Active; 'I' for Inactive)
REMARK    1  A    between atoms: C_1  and  C_2
REMARK    2  A    between atoms: C_2  and  O_3
REMARK    3  A    between atoms: O_3  and  C_4
REMARK    4  A    between atoms: C_4  and  C_6
REMARK    5  A    between atoms: C_6  and  O_7
REMARK    6  A    between atoms: C_6  and  C_8
REMARK    7  A    between atoms: C_8  and  O_9
REMARK    8  A    between atoms: C_8  and  C_10
REMARK    9  A    between atoms: C_14  and  C_15
REMARK   10  A    between atoms: C_18  and  O_19
REMARK   11  A    between atoms: O_19  and  C_20
REMARK   12  A    between atoms: C_23  and  C_24
REMARK   13  A    between atoms: C_28  and  C_29
REMARK                            x       y       z     vdW  Elec       q    Type
REMARK                         _______ _______ _______ _____ _____    ______ ____
ROOT
ATOM      1  C   UNL     1       2.026   7.695  19.557  0.00  0.00    +0.000 A 
ATOM      2  C   UNL     1       2.157   8.254  18.277  0.00  0.00    +0.000 A 
ATOM      3  C   UNL     1       1.583   9.489  17.980  0.00  0.00    +0.000 A 
ATOM      4  C   UNL     1       0.876  10.182  18.962  0.00  0.00    +0.000 A 
ATOM      5  C   UNL     1       0.808   9.681  20.261  0.00  0.00    +0.000 A 
ATOM      6  C   UNL     1       1.351   8.435  20.544  0.00  0.00    +0.000 A 
ENDROOT
BRANCH   1  11
ATOM      7  C   UNL     1       3.710   4.532  19.064  0.00  0.00    +0.000 A 
ATOM      8  C   UNL     1       2.925   3.638  19.794  0.00  0.00    +0.000 A 
ATOM      9  C   UNL     1       1.949   4.133  20.651  0.00  0.00    +0.000 A 
ATOM     10  C   UNL     1       1.734   5.500  20.709  0.00  0.00    +0.000 A 
ATOM     11  C   UNL     1       2.454   6.324  19.848  0.00  0.00    +0.000 A 
ATOM     12  N   UNL     1       3.475   5.866  19.078  0.00  0.00    +0.000 NA
BRANCH   7  13
ATOM     13  C   UNL     1       4.965   4.048  18.345  0.00  0.00    +0.000 C 
BRANCH  13  14
ATOM     14  O   UNL     1       4.786   2.730  17.807  0.00  0.00    +0.000 OA
ATOM     15  H   UNL     1       5.636   2.263  17.946  0.00  0.00    +0.000 HD
ENDBRANCH  13  14
BRANCH  13  16
ATOM     16  C   UNL     1       5.547   5.015  17.277  0.00  0.00    +0.000 C 
BRANCH  16  17
ATOM     17  C   UNL     1       6.679   4.341  16.479  0.00  0.00    +0.000 C 
ATOM     18  O   UNL     1       7.873   4.539  16.676  0.00  0.00    +0.000 OA
BRANCH  17  19
ATOM     19  O   UNL     1       6.160   3.581  15.476  0.00  0.00    +0.000 OA
BRANCH  19  21
ATOM     20  C   UNL     1       5.365   3.928  13.212  0.00  0.00    +0.000 C 
ATOM     21  C   UNL     1       6.567   3.951  14.137  0.00  0.00    +0.000 C 
ENDBRANCH  19  21
ENDBRANCH  17  19
ENDBRANCH  16  17
BRANCH  16  22
ATOM     22  O   UNL     1       4.525   5.602  16.476  0.00  0.00    +0.000 OA
ATOM     23  H   UNL     1       4.925   5.721  15.587  0.00  0.00    +0.000 HD
ENDBRANCH  16  22
ENDBRANCH  13  16
ENDBRANCH   7  13
ENDBRANCH   1  11
BRANCH   4  24
ATOM     24  O   UNL     1       0.301  11.363  18.567  0.00  0.00    +0.000 OA
BRANCH  24  25
ATOM     25  C   UNL     1      -1.062  11.513  18.658  0.00  0.00    +0.000 A 
ATOM     26  C   UNL     1      -1.801  10.789  17.728  0.00  0.00    +0.000 A 
ATOM     27  C   UNL     1      -3.192  10.864  17.735  0.00  0.00    +0.000 A 
ATOM     28  C   UNL     1      -3.863  11.668  18.674  0.00  0.00    +0.000 A 
ATOM     29  C   UNL     1      -3.113  12.388  19.620  0.00  0.00    +0.000 A 
ATOM     30  C   UNL     1      -1.716  12.279  19.628  0.00  0.00    +0.000 A 
BRANCH  28  31
ATOM     31  C   UNL     1      -5.369  11.730  18.668  0.00  0.00    +0.000 C 
ATOM     32  F   UNL     1      -5.935  10.915  17.735  0.00  0.00    +0.000 F 
ATOM     33  F   UNL     1      -5.905  11.356  19.860  0.00  0.00    +0.000 F 
ATOM     34  F   UNL     1      -5.841  12.977  18.402  0.00  0.00    +0.000 F 
ENDBRANCH  28  31
BRANCH  29  35
ATOM     35  C   UNL     1      -3.731  13.254  20.587  0.00  0.00    +0.000 C 
ATOM     36  N   UNL     1      -4.243  13.965  21.347  0.00  0.00    +0.000 NA
ENDBRANCH  29  35
ENDBRANCH  24  25
ENDBRANCH   4  24
TORSDOF 12
ENDMDL
MODEL 7
REMARK VINA RESULT:      -8.1      1.214      2.079
REMARK  Name = 
REMARK  13 active torsions:
REMARK  status: ('A' for Active; 'I' for Inactive)
REMARK    1  A    between atoms: C_1  and  C_2
REMARK    2  A    between atoms: C_2  and  O_3
REMARK    3  A    between atoms: O_3  and  C_4
REMARK    4  A    between atoms: C_4  and  C_6
REMARK    5  A    between atoms: C_6  and  O_7
REMARK    6  A    between atoms: C_6  and  C_8
REMARK    7  A    between atoms: C_8  and  O_9
REMARK    8  A    between atoms: C_8  and  C_10
REMARK    9  A    between atoms: C_14  and  C_15
REMARK   10  A    between atoms: C_18  and  O_19
REMARK   11  A    between atoms: O_19  and  C_20
REMARK   12  A    between atoms: C_23  and  C_24
REMARK   13  A    between atoms: C_28  and  C_29
REMARK                            x       y       z     vdW  Elec       q    Type
REMARK                         _______ _______ _______ _____ _____    ______ ____
ROOT
ATOM      1  C   UNL     1       2.463   7.568  18.904  0.00  0.00    +0.000 A 
ATOM      2  C   UNL     1       1.780   7.750  20.116  0.00  0.00    +0.000 A 
ATOM      3  C   UNL     1       1.029   8.903  20.341  0.00  0.00    +0.000 A 
ATOM      4  C   UNL     1       0.949   9.885  19.356  0.00  0.00    +0.000 A 
ATOM      5  C   UNL     1       1.551   9.682  18.115  0.00  0.00    +0.000 A 
ATOM      6  C   UNL     1       2.326   8.550  17.906  0.00  0.00    +0.000 A 
ENDROOT
BRANCH   1  11
ATOM      7  C   UNL     1       4.966   5.555  17.242  0.00  0.00    +0.000 A 
ATOM      8  C   UNL     1       4.762   4.284  17.784  0.00  0.00    +0.000 A 
ATOM      9  C   UNL     1       3.928   4.142  18.888  0.00  0.00    +0.000 A 
ATOM     10  C   UNL     1       3.269   5.254  19.382  0.00  0.00    +0.000 A 
ATOM     11  C   UNL     1       3.405   6.464  18.706  0.00  0.00    +0.000 A 
ATOM     12  N   UNL     1       4.288   6.639  17.689  0.00  0.00    +0.000 NA
BRANCH   7  13
ATOM     13  C   UNL     1       6.082   5.792  16.230  0.00  0.00    +0.000 C 
BRANCH  13  14
ATOM     14  O   UNL     1       7.011   6.779  16.697  0.00  0.00    +0.000 OA
ATOM     15  H   UNL     1       6.481   7.439  17.190  0.00  0.00    +0.000 HD
ENDBRANCH  13  14
BRANCH  13  16
ATOM     16  C   UNL     1       6.820   4.520  15.729  0.00  0.00    +0.000 C 
BRANCH  16  17
ATOM     17  C   UNL     1       7.255   4.676  14.259  0.00  0.00    +0.000 C 
ATOM     18  O   UNL     1       7.920   5.615  13.834  0.00  0.00    +0.000 OA
BRANCH  17  19
ATOM     19  O   UNL     1       6.717   3.683  13.501  0.00  0.00    +0.000 OA
BRANCH  19  21
ATOM     20  C   UNL     1       4.986   3.243  11.861  0.00  0.00    +0.000 C 
ATOM     21  C   UNL     1       5.297   3.797  13.238  0.00  0.00    +0.000 C 
ENDBRANCH  19  21
ENDBRANCH  17  19
ENDBRANCH  16  17
BRANCH  16  22
ATOM     22  O   UNL     1       7.862   4.124  16.617  0.00  0.00    +0.000 OA
ATOM     23  H   UNL     1       8.233   4.960  16.975  0.00  0.00    +0.000 HD
ENDBRANCH  16  22
ENDBRANCH  13  16
ENDBRANCH   7  13
ENDBRANCH   1  11
BRANCH   4  24
ATOM     24  O   UNL     1       0.233  11.007  19.684  0.00  0.00    +0.000 OA
BRANCH  24  25
ATOM     25  C   UNL     1      -1.030  11.177  19.167  0.00  0.00    +0.000 A 
ATOM     26  C   UNL     1      -1.902  11.911  19.965  0.00  0.00    +0.000 A 
ATOM     27  C   UNL     1      -3.205  12.147  19.534  0.00  0.00    +0.000 A 
ATOM     28  C   UNL     1      -3.655  11.650  18.297  0.00  0.00    +0.000 A 
ATOM     29  C   UNL     1      -2.766  10.919  17.489  0.00  0.00    +0.000 A 
ATOM     30  C   UNL     1      -1.446  10.716  17.915  0.00  0.00    +0.000 A 
BRANCH  28  31
ATOM     31  C   UNL     1      -5.067  11.922  17.848  0.00  0.00    +0.000 C 
ATOM     32  F   UNL     1      -5.849  10.806  17.832  0.00  0.00    +0.000 F 
ATOM     33  F   UNL     1      -5.704  12.808  18.659  0.00  0.00    +0.000 F 
ATOM     34  F   UNL     1      -5.128  12.432  16.590  0.00  0.00    +0.000 F 
ENDBRANCH  28  31
BRANCH  29  35
ATOM     35  C   UNL     1      -3.167  10.354  16.230  0.00  0.00    +0.000 C 
ATOM     36  N   UNL     1      -3.483   9.873  15.222  0.00  0.00    +0.000 NA
ENDBRANCH  29  35
ENDBRANCH  24  25
ENDBRANCH   4  24
TORSDOF 12
ENDMDL
MODEL 8
REMARK VINA RESULT:      -8.1      1.595      2.310
REMARK  Name = 
REMARK  13 active torsions:
REMARK  status: ('A' for Active; 'I' for Inactive)
REMARK    1  A    between atoms: C_1  and  C_2
REMARK    2  A    between atoms: C_2  and  O_3
REMARK    3  A    between atoms: O_3  and  C_4
REMARK    4  A    between atoms: C_4  and  C_6
REMARK    5  A    between atoms: C_6  and  O_7
REMARK    6  A    between atoms: C_6  and  C_8
REMARK    7  A    between atoms: C_8  and  O_9
REMARK    8  A    between atoms: C_8  and  C_10
REMARK    9  A    between atoms: C_14  and  C_15
REMARK   10  A    between atoms: C_18  and  O_19
REMARK   11  A    between atoms: O_19  and  C_20
REMARK   12  A    between atoms: C_23  and  C_24
REMARK   13  A    between atoms: C_28  and  C_29
REMARK                            x       y       z     vdW  Elec       q    Type
REMARK                         _______ _______ _______ _____ _____    ______ ____
ROOT
ATOM      1  C   UNL     1       2.193   7.543  19.303  0.00  0.00    +0.000 A 
ATOM      2  C   UNL     1       1.522   8.170  20.364  0.00  0.00    +0.000 A 
ATOM      3  C   UNL     1       0.939   9.425  20.192  0.00  0.00    +0.000 A 
ATOM      4  C   UNL     1       1.017  10.065  18.956  0.00  0.00    +0.000 A 
ATOM      5  C   UNL     1       1.605   9.420  17.870  0.00  0.00    +0.000 A 
ATOM      6  C   UNL     1       2.215   8.187  18.053  0.00  0.00    +0.000 A 
ENDROOT
BRANCH   1  11
ATOM      7  C   UNL     1       4.956   5.236  18.951  0.00  0.00    +0.000 A 
ATOM      8  C   UNL     1       4.361   3.993  19.173  0.00  0.00    +0.000 A 
ATOM      9  C   UNL     1       3.065   3.939  19.671  0.00  0.00    +0.000 A 
ATOM     10  C   UNL     1       2.371   5.120  19.874  0.00  0.00    +0.000 A 
ATOM     11  C   UNL     1       2.972   6.318  19.498  0.00  0.00    +0.000 A 
ATOM     12  N   UNL     1       4.269   6.394  19.101  0.00  0.00    +0.000 NA
BRANCH   7  13
ATOM     13  C   UNL     1       6.455   5.338  18.685  0.00  0.00    +0.000 C 
BRANCH  13  14
ATOM     14  O   UNL     1       7.211   5.241  19.900  0.00  0.00    +0.000 OA
ATOM     15  H   UNL     1       7.039   4.344  20.255  0.00  0.00    +0.000 HD
ENDBRANCH  13  14
BRANCH  13  16
ATOM     16  C   UNL     1       7.014   4.379  17.599  0.00  0.00    +0.000 C 
BRANCH  16  17
ATOM     17  C   UNL     1       6.727   4.918  16.184  0.00  0.00    +0.000 C 
ATOM     18  O   UNL     1       6.727   6.108  15.888  0.00  0.00    +0.000 OA
BRANCH  17  19
ATOM     19  O   UNL     1       6.384   3.897  15.353  0.00  0.00    +0.000 OA
BRANCH  19  21
ATOM     20  C   UNL     1       6.180   3.634  12.951  0.00  0.00    +0.000 C 
ATOM     21  C   UNL     1       5.595   4.270  14.197  0.00  0.00    +0.000 C 
ENDBRANCH  19  21
ENDBRANCH  17  19
ENDBRANCH  16  17
BRANCH  16  22
ATOM     22  O   UNL     1       8.378   4.040  17.838  0.00  0.00    +0.000 OA
ATOM     23  H   UNL     1       8.643   4.562  18.627  0.00  0.00    +0.000 HD
ENDBRANCH  16  22
ENDBRANCH  13  16
ENDBRANCH   7  13
ENDBRANCH   1  11
BRANCH   4  24
ATOM     24  O   UNL     1       0.462  11.317  18.893  0.00  0.00    +0.000 OA
BRANCH  24  25
ATOM     25  C   UNL     1      -0.905  11.448  18.836  0.00  0.00    +0.000 A 
ATOM     26  C   UNL     1      -1.521  10.777  17.785  0.00  0.00    +0.000 A 
ATOM     27  C   UNL     1      -2.904  10.838  17.637  0.00  0.00    +0.000 A 
ATOM     28  C   UNL     1      -3.692  11.574  18.540  0.00  0.00    +0.000 A 
ATOM     29  C   UNL     1      -3.066  12.241  19.609  0.00  0.00    +0.000 A 
ATOM     30  C   UNL     1      -1.678  12.146  19.770  0.00  0.00    +0.000 A 
BRANCH  28  31
ATOM     31  C   UNL     1      -5.188  11.622  18.365  0.00  0.00    +0.000 C 
ATOM     32  F   UNL     1      -5.622  10.926  17.276  0.00  0.00    +0.000 F 
ATOM     33  F   UNL     1      -5.849  11.092  19.429  0.00  0.00    +0.000 F 
ATOM     34  F   UNL     1      -5.657  12.887  18.204  0.00  0.00    +0.000 F 
ENDBRANCH  28  31
BRANCH  29  35
ATOM     35  C   UNL     1      -3.805  13.038  20.549  0.00  0.00    +0.000 C 
ATOM     36  N   UNL     1      -4.378  13.689  21.320  0.00  0.00    +0.000 NA
ENDBRANCH  29  35
ENDBRANCH  24  25
ENDBRANCH   4  24
TORSDOF 12
ENDMDL
MODEL 9
REMARK VINA RESULT:      -8.1      1.226      1.796
REMARK  Name = 
REMARK  13 active torsions:
REMARK  status: ('A' for Active; 'I' for Inactive)
REMARK    1  A    between atoms: C_1  and  C_2
REMARK    2  A    between atoms: C_2  and  O_3
REMARK    3  A    between atoms: O_3  and  C_4
REMARK    4  A    between atoms: C_4  and  C_6
REMARK    5  A    between atoms: C_6  and  O_7
REMARK    6  A    between atoms: C_6  and  C_8
REMARK    7  A    between atoms: C_8  and  O_9
REMARK    8  A    between atoms: C_8  and  C_10
REMARK    9  A    between atoms: C_14  and  C_15
REMARK   10  A    between atoms: C_18  and  O_19
REMARK   11  A    between atoms: O_19  and  C_20
REMARK   12  A    between atoms: C_23  and  C_24
REMARK   13  A    between atoms: C_28  and  C_29
REMARK                            x       y       z     vdW  Elec       q    Type
REMARK                         _______ _______ _______ _____ _____    ______ ____
ROOT
ATOM      1  C   UNL     1       1.977   7.431  19.650  0.00  0.00    +0.000 A 
ATOM      2  C   UNL     1       1.337   8.125  20.687  0.00  0.00    +0.000 A 
ATOM      3  C   UNL     1       0.906   9.438  20.502  0.00  0.00    +0.000 A 
ATOM      4  C   UNL     1       1.106  10.070  19.276  0.00  0.00    +0.000 A 
ATOM      5  C   UNL     1       1.664   9.368  18.209  0.00  0.00    +0.000 A 
ATOM      6  C   UNL     1       2.123   8.073  18.407  0.00  0.00    +0.000 A 
ENDROOT
BRANCH   1  11
ATOM      7  C   UNL     1       4.006   4.526  18.926  0.00  0.00    +0.000 A 
ATOM      8  C   UNL     1       3.416   3.526  19.701  0.00  0.00    +0.000 A 
ATOM      9  C   UNL     1       2.468   3.876  20.655  0.00  0.00    +0.000 A 
ATOM     10  C   UNL     1       2.083   5.202  20.768  0.00  0.00    +0.000 A 
ATOM     11  C   UNL     1       2.605   6.125  19.867  0.00  0.00    +0.000 A 
ATOM     12  N   UNL     1       3.601   5.817  18.996  0.00  0.00    +0.000 NA
BRANCH   7  13
ATOM     13  C   UNL     1       5.242   4.222  18.084  0.00  0.00    +0.000 C 
BRANCH  13  14
ATOM     14  O   UNL     1       5.023   3.100  17.218  0.00  0.00    +0.000 OA
ATOM     15  H   UNL     1       5.895   2.667  17.110  0.00  0.00    +0.000 HD
ENDBRANCH  13  14
BRANCH  13  16
ATOM     16  C   UNL     1       5.840   5.425  17.304  0.00  0.00    +0.000 C 
BRANCH  16  17
ATOM     17  C   UNL     1       7.113   5.012  16.541  0.00  0.00    +0.000 C 
ATOM     18  O   UNL     1       7.965   4.249  16.985  0.00  0.00    +0.000 OA
BRANCH  17  19
ATOM     19  O   UNL     1       7.195   5.686  15.363  0.00  0.00    +0.000 OA
BRANCH  19  21
ATOM     20  C   UNL     1       6.075   4.018  14.006  0.00  0.00    +0.000 C 
ATOM     21  C   UNL     1       7.322   4.863  14.178  0.00  0.00    +0.000 C 
ENDBRANCH  19  21
ENDBRANCH  17  19
ENDBRANCH  16  17
BRANCH  16  22
ATOM     22  O   UNL     1       4.858   6.084  16.506  0.00  0.00    +0.000 OA
ATOM     23  H   UNL     1       4.558   6.851  17.042  0.00  0.00    +0.000 HD
ENDBRANCH  16  22
ENDBRANCH  13  16
ENDBRANCH   7  13
ENDBRANCH   1  11
BRANCH   4  24
ATOM     24  O   UNL     1       0.699  11.377  19.200  0.00  0.00    +0.000 OA
BRANCH  24  25
ATOM     25  C   UNL     1      -0.628  11.682  19.388  0.00  0.00    +0.000 A 
ATOM     26  C   UNL     1      -0.928  12.306  20.595  0.00  0.00    +0.000 A 
ATOM     27  C   UNL     1      -2.243  12.664  20.884  0.00  0.00    +0.000 A 
ATOM     28  C   UNL     1      -3.278  12.399  19.970  0.00  0.00    +0.000 A 
ATOM     29  C   UNL     1      -2.968  11.779  18.746  0.00  0.00    +0.000 A 
ATOM     30  C   UNL     1      -1.638  11.455  18.448  0.00  0.00    +0.000 A 
BRANCH  28  31
ATOM     31  C   UNL     1      -4.692  12.800  20.301  0.00  0.00    +0.000 C 
ATOM     32  F   UNL     1      -4.800  13.443  21.497  0.00  0.00    +0.000 F 
ATOM     33  F   UNL     1      -5.217  13.648  19.376  0.00  0.00    +0.000 F 
ATOM     34  F   UNL     1      -5.534  11.736  20.377  0.00  0.00    +0.000 F 
ENDBRANCH  28  31
BRANCH  29  35
ATOM     35  C   UNL     1      -3.980  11.450  17.779  0.00  0.00    +0.000 C 
ATOM     36  N   UNL     1      -4.814  11.179  17.019  0.00  0.00    +0.000 NA
ENDBRANCH  29  35
ENDBRANCH  24  25
ENDBRANCH   4  24
TORSDOF 12
ENDMDL
