MODEL 1
REMARK VINA RESULT:      -7.3      0.000      0.000
REMARK  Name = 
REMARK  4 active torsions:
REMARK  status: ('A' for Active; 'I' for Inactive)
REMARK    1  A    between atoms: C_1  and  C_2
REMARK    2  A    between atoms: C_4  and  C_5
REMARK    3  A    between atoms: N_7  and  C_8
REMARK    4  A    between atoms: C_10  and  C_11
REMARK                            x       y       z     vdW  Elec       q    Type
REMARK                         _______ _______ _______ _____ _____    ______ ____
ROOT
ATOM      1  C   UNL     1       4.746   4.196  19.078  0.00  0.00    +0.000 A 
ATOM      2  C   UNL     1       3.413   4.401  19.349  0.00  0.00    +0.000 A 
ATOM      3  C   UNL     1       2.969   3.247  20.050  0.00  0.00    +0.000 A 
ATOM      4  N   UNL     1       3.979   2.364  20.191  0.00  0.00    +0.000 NA
ATOM      5  N   UNL     1       5.026   2.959  19.598  0.00  0.00    +0.000 N 
ATOM      6  H   UNL     1       5.907   2.456  19.589  0.00  0.00    +0.000 HD
ENDROOT
BRANCH   1   9
ATOM      7  C   UNL     1       6.846   5.516  19.051  0.00  0.00    +0.000 C 
ATOM      8  O   UNL     1       7.143   5.225  20.196  0.00  0.00    +0.000 OA
ATOM      9  N   UNL     1       5.649   5.030  18.428  0.00  0.00    +0.000 N 
ATOM     10  H   UNL     1       5.467   5.296  17.471  0.00  0.00    +0.000 HD
BRANCH   7  14
ATOM     11  C   UNL     1       8.242   8.903  17.764  0.00  0.00    +0.000 C 
ATOM     12  C   UNL     1       7.270   7.775  17.843  0.00  0.00    +0.000 C 
ATOM     13  C   UNL     1       7.288   6.704  16.788  0.00  0.00    +0.000 C 
ATOM     14  C   UNL     1       7.721   6.371  18.203  0.00  0.00    +0.000 C 
ENDBRANCH   7  14
ENDBRANCH   1   9
BRANCH   3  15
ATOM     15  C   UNL     1       1.575   3.015  20.585  0.00  0.00    +0.000 C 
ATOM     16  F   UNL     1       1.601   2.293  21.739  0.00  0.00    +0.000 F 
ATOM     17  F   UNL     1       0.931   4.175  20.870  0.00  0.00    +0.000 F 
ATOM     18  F   UNL     1       0.800   2.321  19.714  0.00  0.00    +0.000 F 
ENDBRANCH   3  15
TORSDOF 3
ENDMDL
MODEL 2
REMARK VINA RESULT:      -7.2      2.526      3.195
REMARK  Name = 
REMARK  4 active torsions:
REMARK  status: ('A' for Active; 'I' for Inactive)
REMARK    1  A    between atoms: C_1  and  C_2
REMARK    2  A    between atoms: C_4  and  C_5
REMARK    3  A    between atoms: N_7  and  C_8
REMARK    4  A    between atoms: C_10  and  C_11
REMARK                            x       y       z     vdW  Elec       q    Type
REMARK                         _______ _______ _______ _____ _____    ______ ____
ROOT
ATOM      1  C   UNL     1       3.827   3.470  18.017  0.00  0.00    +0.000 A 
ATOM      2  C   UNL     1       2.730   3.805  18.776  0.00  0.00    +0.000 A 
ATOM      3  C   UNL     1       2.903   3.158  20.030  0.00  0.00    +0.000 A 
ATOM      4  N   UNL     1       4.048   2.446  20.038  0.00  0.00    +0.000 NA
ATOM      5  N   UNL     1       4.576   2.650  18.821  0.00  0.00    +0.000 N 
ATOM      6  H   UNL     1       5.458   2.194  18.611  0.00  0.00    +0.000 HD
ENDROOT
BRANCH   1   9
ATOM      7  C   UNL     1       5.421   4.427  16.373  0.00  0.00    +0.000 C 
ATOM      8  O   UNL     1       6.296   4.609  17.201  0.00  0.00    +0.000 OA
ATOM      9  N   UNL     1       4.151   3.856  16.721  0.00  0.00    +0.000 N 
ATOM     10  H   UNL     1       3.472   3.717  15.987  0.00  0.00    +0.000 HD
BRANCH   7  14
ATOM     11  C   UNL     1       5.778   3.556  12.607  0.00  0.00    +0.000 C 
ATOM     12  C   UNL     1       6.243   3.720  14.014  0.00  0.00    +0.000 C 
ATOM     13  C   UNL     1       7.021   4.947  14.400  0.00  0.00    +0.000 C 
ATOM     14  C   UNL     1       5.616   4.752  14.934  0.00  0.00    +0.000 C 
ENDBRANCH   7  14
ENDBRANCH   1   9
BRANCH   3  15
ATOM     15  C   UNL     1       1.963   3.245  21.210  0.00  0.00    +0.000 C 
ATOM     16  F   UNL     1       2.339   4.231  22.070  0.00  0.00    +0.000 F 
ATOM     17  F   UNL     1       0.689   3.524  20.837  0.00  0.00    +0.000 F 
ATOM     18  F   UNL     1       1.935   2.095  21.930  0.00  0.00    +0.000 F 
ENDBRANCH   3  15
TORSDOF 3
ENDMDL
MODEL 3
REMARK VINA RESULT:      -7.0      2.563      3.291
REMARK  Name = 
REMARK  4 active torsions:
REMARK  status: ('A' for Active; 'I' for Inactive)
REMARK    1  A    between atoms: C_1  and  C_2
REMARK    2  A    between atoms: C_4  and  C_5
REMARK    3  A    between atoms: N_7  and  C_8
REMARK    4  A    between atoms: C_10  and  C_11
REMARK                            x       y       z     vdW  Elec       q    Type
REMARK                         _______ _______ _______ _____ _____    ______ ____
ROOT
ATOM      1  C   UNL     1       3.813   3.658  17.849  0.00  0.00    +0.000 A 
ATOM      2  C   UNL     1       2.665   3.988  18.531  0.00  0.00    +0.000 A 
ATOM      3  C   UNL     1       2.822   3.468  19.845  0.00  0.00    +0.000 A 
ATOM      4  N   UNL     1       4.007   2.835  19.962  0.00  0.00    +0.000 NA
ATOM      5  N   UNL     1       4.575   2.964  18.753  0.00  0.00    +0.000 N 
ATOM      6  H   UNL     1       5.491   2.549  18.619  0.00  0.00    +0.000 HD
ENDROOT
BRANCH   1   9
ATOM      7  C   UNL     1       5.373   4.649  16.193  0.00  0.00    +0.000 C 
ATOM      8  O   UNL     1       6.160   5.035  17.039  0.00  0.00    +0.000 OA
ATOM      9  N   UNL     1       4.169   3.948  16.536  0.00  0.00    +0.000 N 
ATOM     10  H   UNL     1       3.565   3.641  15.788  0.00  0.00    +0.000 HD
BRANCH   7  14
ATOM     11  C   UNL     1       5.826   3.451  12.528  0.00  0.00    +0.000 C 
ATOM     12  C   UNL     1       6.251   3.726  13.930  0.00  0.00    +0.000 C 
ATOM     13  C   UNL     1       7.045   4.966  14.236  0.00  0.00    +0.000 C 
ATOM     14  C   UNL     1       5.619   4.845  14.739  0.00  0.00    +0.000 C 
ENDBRANCH   7  14
ENDBRANCH   1   9
BRANCH   3  15
ATOM     15  C   UNL     1       1.828   3.599  20.976  0.00  0.00    +0.000 C 
ATOM     16  F   UNL     1       0.811   2.703  20.846  0.00  0.00    +0.000 F 
ATOM     17  F   UNL     1       2.392   3.369  22.189  0.00  0.00    +0.000 F 
ATOM     18  F   UNL     1       1.255   4.828  21.018  0.00  0.00    +0.000 F 
ENDBRANCH   3  15
TORSDOF 3
ENDMDL
MODEL 4
REMARK VINA RESULT:      -7.0      0.749      1.204
REMARK  Name = 
REMARK  4 active torsions:
REMARK  status: ('A' for Active; 'I' for Inactive)
REMARK    1  A    between atoms: C_1  and  C_2
REMARK    2  A    between atoms: C_4  and  C_5
REMARK    3  A    between atoms: N_7  and  C_8
REMARK    4  A    between atoms: C_10  and  C_11
REMARK                            x       y       z     vdW  Elec       q    Type
REMARK                         _______ _______ _______ _____ _____    ______ ____
ROOT
ATOM      1  C   UNL     1       4.305   3.965  18.491  0.00  0.00    +0.000 A 
ATOM      2  C   UNL     1       3.112   4.354  19.055  0.00  0.00    +0.000 A 
ATOM      3  C   UNL     1       2.436   3.157  19.418  0.00  0.00    +0.000 A 
ATOM      4  N   UNL     1       3.173   2.079  19.080  0.00  0.00    +0.000 NA
ATOM      5  N   UNL     1       4.282   2.594  18.526  0.00  0.00    +0.000 N 
ATOM      6  H   UNL     1       4.986   1.943  18.194  0.00  0.00    +0.000 HD
ENDROOT
BRANCH   1   9
ATOM      7  C   UNL     1       6.398   5.258  18.809  0.00  0.00    +0.000 C 
ATOM      8  O   UNL     1       6.457   5.031  20.005  0.00  0.00    +0.000 OA
ATOM      9  N   UNL     1       5.337   4.750  17.989  0.00  0.00    +0.000 N 
ATOM     10  H   UNL     1       5.352   4.962  17.002  0.00  0.00    +0.000 HD
BRANCH   7  14
ATOM     11  C   UNL     1       8.153   8.547  17.724  0.00  0.00    +0.000 C 
ATOM     12  C   UNL     1       7.126   7.468  17.656  0.00  0.00    +0.000 C 
ATOM     13  C   UNL     1       7.265   6.374  16.635  0.00  0.00    +0.000 C 
ATOM     14  C   UNL     1       7.441   6.052  18.106  0.00  0.00    +0.000 C 
ENDBRANCH   7  14
ENDBRANCH   1   9
BRANCH   3  15
ATOM     15  C   UNL     1       1.089   3.069  20.097  0.00  0.00    +0.000 C 
ATOM     16  F   UNL     1       0.584   4.306  20.356  0.00  0.00    +0.000 F 
ATOM     17  F   UNL     1       0.167   2.428  19.334  0.00  0.00    +0.000 F 
ATOM     18  F   UNL     1       1.154   2.422  21.288  0.00  0.00    +0.000 F 
ENDBRANCH   3  15
TORSDOF 3
ENDMDL
MODEL 5
REMARK VINA RESULT:      -6.9      5.221      7.083
REMARK  Name = 
REMARK  4 active torsions:
REMARK  status: ('A' for Active; 'I' for Inactive)
REMARK    1  A    between atoms: C_1  and  C_2
REMARK    2  A    between atoms: C_4  and  C_5
REMARK    3  A    between atoms: N_7  and  C_8
REMARK    4  A    between atoms: C_10  and  C_11
REMARK                            x       y       z     vdW  Elec       q    Type
REMARK                         _______ _______ _______ _____ _____    ______ ____
ROOT
ATOM      1  C   UNL     1       6.385   4.341  15.807  0.00  0.00    +0.000 A 
ATOM      2  C   UNL     1       6.019   3.702  14.646  0.00  0.00    +0.000 A 
ATOM      3  C   UNL     1       6.782   4.299  13.606  0.00  0.00    +0.000 A 
ATOM      4  N   UNL     1       7.572   5.273  14.103  0.00  0.00    +0.000 NA
ATOM      5  N   UNL     1       7.310   5.276  15.420  0.00  0.00    +0.000 N 
ATOM      6  H   UNL     1       7.808   5.948  15.995  0.00  0.00    +0.000 HD
ENDROOT
BRANCH   1   9
ATOM      7  C   UNL     1       5.097   5.041  17.809  0.00  0.00    +0.000 C 
ATOM      8  O   UNL     1       4.709   6.078  17.302  0.00  0.00    +0.000 OA
ATOM      9  N   UNL     1       5.946   4.121  17.109  0.00  0.00    +0.000 N 
ATOM     10  H   UNL     1       6.221   3.271  17.579  0.00  0.00    +0.000 HD
BRANCH   7  14
ATOM     11  C   UNL     1       3.378   2.726  20.409  0.00  0.00    +0.000 C 
ATOM     12  C   UNL     1       3.439   3.798  19.375  0.00  0.00    +0.000 C 
ATOM     13  C   UNL     1       3.445   5.240  19.799  0.00  0.00    +0.000 C 
ATOM     14  C   UNL     1       4.691   4.635  19.183  0.00  0.00    +0.000 C 
ENDBRANCH   7  14
ENDBRANCH   1   9
BRANCH   3  15
ATOM     15  C   UNL     1       6.746   3.915  12.146  0.00  0.00    +0.000 C 
ATOM     16  F   UNL     1       5.467   3.818  11.691  0.00  0.00    +0.000 F 
ATOM     17  F   UNL     1       7.368   4.827  11.356  0.00  0.00    +0.000 F 
ATOM     18  F   UNL     1       7.329   2.711  11.916  0.00  0.00    +0.000 F 
ENDBRANCH   3  15
TORSDOF 3
ENDMDL
MODEL 6
REMARK VINA RESULT:      -6.7      2.491      3.000
REMARK  Name = 
REMARK  4 active torsions:
REMARK  status: ('A' for Active; 'I' for Inactive)
REMARK    1  A    between atoms: C_1  and  C_2
REMARK    2  A    between atoms: C_4  and  C_5
REMARK    3  A    between atoms: N_7  and  C_8
REMARK    4  A    between atoms: C_10  and  C_11
REMARK                            x       y       z     vdW  Elec       q    Type
REMARK                         _______ _______ _______ _____ _____    ______ ____
ROOT
ATOM      1  C   UNL     1       4.256   3.331  18.173  0.00  0.00    +0.000 A 
ATOM      2  C   UNL     1       2.953   3.562  18.550  0.00  0.00    +0.000 A 
ATOM      3  C   UNL     1       2.839   3.095  19.888  0.00  0.00    +0.000 A 
ATOM      4  N   UNL     1       4.015   2.586  20.310  0.00  0.00    +0.000 NA
ATOM      5  N   UNL     1       4.840   2.740  19.263  0.00  0.00    +0.000 N 
ATOM      6  H   UNL     1       5.796   2.416  19.368  0.00  0.00    +0.000 HD
ENDROOT
BRANCH   1   9
ATOM      7  C   UNL     1       4.895   4.935  16.391  0.00  0.00    +0.000 C 
ATOM      8  O   UNL     1       4.346   5.881  16.927  0.00  0.00    +0.000 OA
ATOM      9  N   UNL     1       4.886   3.621  16.967  0.00  0.00    +0.000 N 
ATOM     10  H   UNL     1       5.373   2.882  16.481  0.00  0.00    +0.000 HD
BRANCH   7  14
ATOM     11  C   UNL     1       6.189   3.724  12.936  0.00  0.00    +0.000 C 
ATOM     12  C   UNL     1       6.189   3.842  14.422  0.00  0.00    +0.000 C 
ATOM     13  C   UNL     1       7.136   4.799  15.091  0.00  0.00    +0.000 C 
ATOM     14  C   UNL     1       5.646   5.080  15.114  0.00  0.00    +0.000 C 
ENDBRANCH   7  14
ENDBRANCH   1   9
BRANCH   3  15
ATOM     15  C   UNL     1       1.597   3.154  20.746  0.00  0.00    +0.000 C 
ATOM     16  F   UNL     1       1.771   2.479  21.915  0.00  0.00    +0.000 F 
ATOM     17  F   UNL     1       1.260   4.425  21.081  0.00  0.00    +0.000 F 
ATOM     18  F   UNL     1       0.523   2.594  20.134  0.00  0.00    +0.000 F 
ENDBRANCH   3  15
TORSDOF 3
ENDMDL
MODEL 7
REMARK VINA RESULT:      -6.7      2.577      3.322
REMARK  Name = 
REMARK  4 active torsions:
REMARK  status: ('A' for Active; 'I' for Inactive)
REMARK    1  A    between atoms: C_1  and  C_2
REMARK    2  A    between atoms: C_4  and  C_5
REMARK    3  A    between atoms: N_7  and  C_8
REMARK    4  A    between atoms: C_10  and  C_11
REMARK                            x       y       z     vdW  Elec       q    Type
REMARK                         _______ _______ _______ _____ _____    ______ ____
ROOT
ATOM      1  C   UNL     1       3.778   3.851  17.678  0.00  0.00    +0.000 A 
ATOM      2  C   UNL     1       2.476   3.479  17.920  0.00  0.00    +0.000 A 
ATOM      3  C   UNL     1       2.313   3.502  19.332  0.00  0.00    +0.000 A 
ATOM      4  N   UNL     1       3.466   3.859  19.933  0.00  0.00    +0.000 NA
ATOM      5  N   UNL     1       4.323   4.058  18.919  0.00  0.00    +0.000 N 
ATOM      6  H   UNL     1       5.269   4.338  19.154  0.00  0.00    +0.000 HD
ENDROOT
BRANCH   1   9
ATOM      7  C   UNL     1       5.069   5.230  16.069  0.00  0.00    +0.000 C 
ATOM      8  O   UNL     1       5.064   6.218  16.781  0.00  0.00    +0.000 OA
ATOM      9  N   UNL     1       4.437   4.004  16.463  0.00  0.00    +0.000 N 
ATOM     10  H   UNL     1       4.489   3.215  15.834  0.00  0.00    +0.000 HD
BRANCH   7  14
ATOM     11  C   UNL     1       6.138   3.621  12.701  0.00  0.00    +0.000 C 
ATOM     12  C   UNL     1       6.217   3.886  14.166  0.00  0.00    +0.000 C 
ATOM     13  C   UNL     1       7.235   4.861  14.691  0.00  0.00    +0.000 C 
ATOM     14  C   UNL     1       5.761   5.211  14.752  0.00  0.00    +0.000 C 
ENDBRANCH   7  14
ENDBRANCH   1   9
BRANCH   3  15
ATOM     15  C   UNL     1       1.040   3.188  20.084  0.00  0.00    +0.000 C 
ATOM     16  F   UNL     1       0.406   4.326  20.479  0.00  0.00    +0.000 F 
ATOM     17  F   UNL     1       0.152   2.494  19.329  0.00  0.00    +0.000 F 
ATOM     18  F   UNL     1       1.273   2.466  21.209  0.00  0.00    +0.000 F 
ENDBRANCH   3  15
TORSDOF 3
ENDMDL
MODEL 8
REMARK VINA RESULT:      -6.5      4.479      6.441
REMARK  Name = 
REMARK  4 active torsions:
REMARK  status: ('A' for Active; 'I' for Inactive)
REMARK    1  A    between atoms: C_1  and  C_2
REMARK    2  A    between atoms: C_4  and  C_5
REMARK    3  A    between atoms: N_7  and  C_8
REMARK    4  A    between atoms: C_10  and  C_11
REMARK                            x       y       z     vdW  Elec       q    Type
REMARK                         _______ _______ _______ _____ _____    ______ ____
ROOT
ATOM      1  C   UNL     1       5.435   4.149  17.690  0.00  0.00    +0.000 A 
ATOM      2  C   UNL     1       5.052   4.109  16.369  0.00  0.00    +0.000 A 
ATOM      3  C   UNL     1       6.237   4.296  15.606  0.00  0.00    +0.000 A 
ATOM      4  N   UNL     1       7.300   4.458  16.420  0.00  0.00    +0.000 NA
ATOM      5  N   UNL     1       6.788   4.368  17.658  0.00  0.00    +0.000 N 
ATOM      6  H   UNL     1       7.430   4.465  18.438  0.00  0.00    +0.000 HD
ENDROOT
BRANCH   1   9
ATOM      7  C   UNL     1       3.695   4.976  19.253  0.00  0.00    +0.000 C 
ATOM      8  O   UNL     1       3.497   6.001  18.625  0.00  0.00    +0.000 OA
ATOM      9  N   UNL     1       4.660   4.001  18.835  0.00  0.00    +0.000 N 
ATOM     10  H   UNL     1       4.767   3.165  19.391  0.00  0.00    +0.000 HD
BRANCH   7  14
ATOM     11  C   UNL     1       1.360   2.767  21.430  0.00  0.00    +0.000 C 
ATOM     12  C   UNL     1       1.689   3.770  20.377  0.00  0.00    +0.000 C 
ATOM     13  C   UNL     1       1.543   5.236  20.677  0.00  0.00    +0.000 C 
ATOM     14  C   UNL     1       2.925   4.644  20.483  0.00  0.00    +0.000 C 
ENDBRANCH   7  14
ENDBRANCH   1   9
BRANCH   3  15
ATOM     15  C   UNL     1       6.329   4.306  14.098  0.00  0.00    +0.000 C 
ATOM     16  F   UNL     1       5.145   4.668  13.532  0.00  0.00    +0.000 F 
ATOM     17  F   UNL     1       7.259   5.184  13.643  0.00  0.00    +0.000 F 
ATOM     18  F   UNL     1       6.640   3.085  13.594  0.00  0.00    +0.000 F 
ENDBRANCH   3  15
TORSDOF 3
ENDMDL
MODEL 9
REMARK VINA RESULT:      -6.5      2.731      3.228
REMARK  Name = 
REMARK  4 active torsions:
REMARK  status: ('A' for Active; 'I' for Inactive)
REMARK    1  A    between atoms: C_1  and  C_2
REMARK    2  A    between atoms: C_4  and  C_5
REMARK    3  A    between atoms: N_7  and  C_8
REMARK    4  A    between atoms: C_10  and  C_11
REMARK                            x       y       z     vdW  Elec       q    Type
REMARK                         _______ _______ _______ _____ _____    ______ ____
ROOT
ATOM      1  C   UNL     1       3.219   3.207  17.833  0.00  0.00    +0.000 A 
ATOM      2  C   UNL     1       3.053   3.832  19.047  0.00  0.00    +0.000 A 
ATOM      3  C   UNL     1       2.449   2.874  19.907  0.00  0.00    +0.000 A 
ATOM      4  N   UNL     1       2.239   1.716  19.247  0.00  0.00    +0.000 NA
ATOM      5  N   UNL     1       2.707   1.948  18.011  0.00  0.00    +0.000 N 
ATOM      6  H   UNL     1       2.645   1.191  17.337  0.00  0.00    +0.000 HD
ENDROOT
BRANCH   1   9
ATOM      7  C   UNL     1       5.102   4.255  16.603  0.00  0.00    +0.000 C 
ATOM      8  O   UNL     1       5.816   4.328  17.587  0.00  0.00    +0.000 OA
ATOM      9  N   UNL     1       3.780   3.701  16.660  0.00  0.00    +0.000 N 
ATOM     10  H   UNL     1       3.243   3.655  15.806  0.00  0.00    +0.000 HD
BRANCH   7  14
ATOM     11  C   UNL     1       5.898   3.773  12.834  0.00  0.00    +0.000 C 
ATOM     12  C   UNL     1       6.161   3.696  14.299  0.00  0.00    +0.000 C 
ATOM     13  C   UNL     1       7.045   4.723  14.950  0.00  0.00    +0.000 C 
ATOM     14  C   UNL     1       5.561   4.706  15.261  0.00  0.00    +0.000 C 
ENDBRANCH   7  14
ENDBRANCH   1   9
BRANCH   3  15
ATOM     15  C   UNL     1       2.091   3.086  21.359  0.00  0.00    +0.000 C 
ATOM     16  F   UNL     1       2.781   2.236  22.168  0.00  0.00    +0.000 F 
ATOM     17  F   UNL     1       2.379   4.342  21.785  0.00  0.00    +0.000 F 
ATOM     18  F   UNL     1       0.774   2.865  21.601  0.00  0.00    +0.000 F 
ENDBRANCH   3  15
TORSDOF 3
ENDMDL
