MODEL 1
REMARK VINA RESULT:      -8.4      0.000      0.000
REMARK  Name = 
REMARK  6 active torsions:
REMARK  status: ('A' for Active; 'I' for Inactive)
REMARK    1  A    between atoms: C_1  and  C_2
REMARK    2  A    between atoms: C_2  and  N_3
REMARK    3  A    between atoms: C_8  and  C_9
REMARK    4  A    between atoms: C_15  and  C_16
REMARK    5  A    between atoms: C_17  and  C_18
REMARK    6  A    between atoms: C_20  and  C_21
REMARK                            x       y       z     vdW  Elec       q    Type
REMARK                         _______ _______ _______ _____ _____    ______ ____
ROOT
ATOM      1  C   UNL     1       0.565   9.689  20.004  0.00  0.00    +0.000 A 
ATOM      2  C   UNL     1       0.773  10.157  21.248  0.00  0.00    +0.000 A 
ATOM      3  C   UNL     1      -0.178  11.148  21.823  0.00  0.00    +0.000 A 
ATOM      4  O   UNL     1      -0.067  11.614  22.948  0.00  0.00    +0.000 OA
ATOM      5  N   UNL     1      -1.226  11.511  20.955  0.00  0.00    +0.000 N 
ATOM      6  N   UNL     1      -2.189  12.418  21.279  0.00  0.00    +0.000 NA
ATOM      7  C   UNL     1      -2.959  12.485  20.182  0.00  0.00    +0.000 A 
ATOM      8  C   UNL     1      -4.143  13.382  20.160  0.00  0.00    +0.000 C 
ATOM      9  C   UNL     1      -2.501  11.620  19.159  0.00  0.00    +0.000 A 
ATOM     10  C   UNL     1      -1.394  11.003  19.680  0.00  0.00    +0.000 A 
ATOM     11  N   UNL     1      -0.502  10.088  19.227  0.00  0.00    +0.000 N 
ATOM     12  H   UNL     1      -0.588   9.682  18.292  0.00  0.00    +0.000 HD
ENDROOT
BRANCH   1  18
ATOM     13  N   UNL     1       3.937   5.718  17.981  0.00  0.00    +0.000 N 
ATOM     14  N   UNL     1       3.969   4.798  18.968  0.00  0.00    +0.000 NA
ATOM     15  C   UNL     1       3.191   5.329  19.914  0.00  0.00    +0.000 A 
ATOM     16  C   UNL     1       2.666   6.589  19.550  0.00  0.00    +0.000 A 
ATOM     17  C   UNL     1       1.809   7.536  20.140  0.00  0.00    +0.000 A 
ATOM     18  C   UNL     1       1.504   8.712  19.434  0.00  0.00    +0.000 A 
ATOM     19  C   UNL     1       2.067   8.944  18.174  0.00  0.00    +0.000 A 
ATOM     20  C   UNL     1       2.923   8.012  17.574  0.00  0.00    +0.000 A 
ATOM     21  C   UNL     1       3.192   6.835  18.283  0.00  0.00    +0.000 A 
BRANCH  13  23
ATOM     22  C   UNL     1       4.929   3.956  16.562  0.00  0.00    +0.000 C 
ATOM     23  C   UNL     1       4.606   5.430  16.726  0.00  0.00    +0.000 C 
ENDBRANCH  13  23
ENDBRANCH   1  18
BRANCH   9  24
ATOM     24  C   UNL     1      -3.076  11.406  17.809  0.00  0.00    +0.000 A 
ATOM     25  N   UNL     1      -2.413  10.851  16.808  0.00  0.00    +0.000 NA
ATOM     26  C   UNL     1      -3.321  10.805  15.775  0.00  0.00    +0.000 A 
ATOM     27  C   UNL     1      -2.984  10.190  14.477  0.00  0.00    +0.000 C 
ATOM     28  C   UNL     1      -4.500  11.382  16.180  0.00  0.00    +0.000 A 
ATOM     29  O   UNL     1      -4.364  11.757  17.478  0.00  0.00    +0.000 OA
ENDBRANCH   9  24
TORSDOF 3
ENDMDL
MODEL 2
REMARK VINA RESULT:      -8.1      1.418      1.763
REMARK  Name = 
REMARK  6 active torsions:
REMARK  status: ('A' for Active; 'I' for Inactive)
REMARK    1  A    between atoms: C_1  and  C_2
REMARK    2  A    between atoms: C_2  and  N_3
REMARK    3  A    between atoms: C_8  and  C_9
REMARK    4  A    between atoms: C_15  and  C_16
REMARK    5  A    between atoms: C_17  and  C_18
REMARK    6  A    between atoms: C_20  and  C_21
REMARK                            x       y       z     vdW  Elec       q    Type
REMARK                         _______ _______ _______ _____ _____    ______ ____
ROOT
ATOM      1  C   UNL     1       1.467   8.224  20.301  0.00  0.00    +0.000 A 
ATOM      2  C   UNL     1       1.659   8.429  21.616  0.00  0.00    +0.000 A 
ATOM      3  C   UNL     1       0.847   9.459  22.321  0.00  0.00    +0.000 A 
ATOM      4  O   UNL     1       0.953   9.698  23.516  0.00  0.00    +0.000 OA
ATOM      5  N   UNL     1      -0.061  10.144  21.491  0.00  0.00    +0.000 N 
ATOM      6  N   UNL     1      -0.881  11.137  21.934  0.00  0.00    +0.000 NA
ATOM      7  C   UNL     1      -1.548  11.526  20.836  0.00  0.00    +0.000 A 
ATOM      8  C   UNL     1      -2.561  12.608  20.927  0.00  0.00    +0.000 C 
ATOM      9  C   UNL     1      -1.167  10.781  19.693  0.00  0.00    +0.000 A 
ATOM     10  C   UNL     1      -0.218   9.899  20.140  0.00  0.00    +0.000 A 
ATOM     11  N   UNL     1       0.539   8.932  19.565  0.00  0.00    +0.000 N 
ATOM     12  H   UNL     1       0.454   8.714  18.570  0.00  0.00    +0.000 HD
ENDROOT
BRANCH   1  18
ATOM     13  N   UNL     1       4.280   4.123  17.751  0.00  0.00    +0.000 N 
ATOM     14  N   UNL     1       4.150   3.079  18.597  0.00  0.00    +0.000 NA
ATOM     15  C   UNL     1       3.432   3.581  19.604  0.00  0.00    +0.000 A 
ATOM     16  C   UNL     1       3.106   4.943  19.421  0.00  0.00    +0.000 A 
ATOM     17  C   UNL     1       2.380   5.914  20.135  0.00  0.00    +0.000 A 
ATOM     18  C   UNL     1       2.269   7.210  19.603  0.00  0.00    +0.000 A 
ATOM     19  C   UNL     1       2.895   7.531  18.393  0.00  0.00    +0.000 A 
ATOM     20  C   UNL     1       3.622   6.577  17.671  0.00  0.00    +0.000 A 
ATOM     21  C   UNL     1       3.697   5.284  18.206  0.00  0.00    +0.000 A 
BRANCH  13  23
ATOM     22  C   UNL     1       6.383   4.369  16.481  0.00  0.00    +0.000 C 
ATOM     23  C   UNL     1       4.935   3.919  16.473  0.00  0.00    +0.000 C 
ENDBRANCH  13  23
ENDBRANCH   1  18
BRANCH   9  24
ATOM     24  C   UNL     1      -1.671  10.906  18.304  0.00  0.00    +0.000 A 
ATOM     25  N   UNL     1      -2.030   9.874  17.558  0.00  0.00    +0.000 NA
ATOM     26  C   UNL     1      -2.471  10.436  16.381  0.00  0.00    +0.000 A 
ATOM     27  C   UNL     1      -3.024   9.610  15.291  0.00  0.00    +0.000 C 
ATOM     28  C   UNL     1      -2.318  11.799  16.442  0.00  0.00    +0.000 A 
ATOM     29  O   UNL     1      -1.822  12.115  17.667  0.00  0.00    +0.000 OA
ENDBRANCH   9  24
TORSDOF 3
ENDMDL
MODEL 3
REMARK VINA RESULT:      -7.9      3.727      8.568
REMARK  Name = 
REMARK  6 active torsions:
REMARK  status: ('A' for Active; 'I' for Inactive)
REMARK    1  A    between atoms: C_1  and  C_2
REMARK    2  A    between atoms: C_2  and  N_3
REMARK    3  A    between atoms: C_8  and  C_9
REMARK    4  A    between atoms: C_15  and  C_16
REMARK    5  A    between atoms: C_17  and  C_18
REMARK    6  A    between atoms: C_20  and  C_21
REMARK                            x       y       z     vdW  Elec       q    Type
REMARK                         _______ _______ _______ _____ _____    ______ ____
ROOT
ATOM      1  C   UNL     1       1.929   6.417  19.892  0.00  0.00    +0.000 A 
ATOM      2  C   UNL     1       1.420   5.617  20.846  0.00  0.00    +0.000 A 
ATOM      3  C   UNL     1       1.762   4.167  20.841  0.00  0.00    +0.000 A 
ATOM      4  O   UNL     1       1.351   3.376  21.679  0.00  0.00    +0.000 OA
ATOM      5  N   UNL     1       2.603   3.777  19.781  0.00  0.00    +0.000 N 
ATOM      6  N   UNL     1       3.016   2.495  19.584  0.00  0.00    +0.000 NA
ATOM      7  C   UNL     1       3.766   2.559  18.472  0.00  0.00    +0.000 A 
ATOM      8  C   UNL     1       4.409   1.331  17.939  0.00  0.00    +0.000 C 
ATOM      9  C   UNL     1       3.844   3.877  17.962  0.00  0.00    +0.000 A 
ATOM     10  C   UNL     1       3.097   4.640  18.821  0.00  0.00    +0.000 A 
ATOM     11  N   UNL     1       2.763   5.952  18.897  0.00  0.00    +0.000 N 
ATOM     12  H   UNL     1       3.107   6.627  18.210  0.00  0.00    +0.000 HD
ENDROOT
BRANCH   1  18
ATOM     13  N   UNL     1       0.756  11.870  20.236  0.00  0.00    +0.000 N 
ATOM     14  N   UNL     1       0.279  12.011  21.491  0.00  0.00    +0.000 NA
ATOM     15  C   UNL     1       0.325  10.771  21.984  0.00  0.00    +0.000 A 
ATOM     16  C   UNL     1       0.816   9.829  21.053  0.00  0.00    +0.000 A 
ATOM     17  C   UNL     1       1.078   8.447  21.057  0.00  0.00    +0.000 A 
ATOM     18  C   UNL     1       1.591   7.847  19.893  0.00  0.00    +0.000 A 
ATOM     19  C   UNL     1       1.812   8.614  18.743  0.00  0.00    +0.000 A 
ATOM     20  C   UNL     1       1.554   9.991  18.724  0.00  0.00    +0.000 A 
ATOM     21  C   UNL     1       1.069  10.573  19.902  0.00  0.00    +0.000 A 
BRANCH  13  23
ATOM     22  C   UNL     1      -0.216  13.300  18.472  0.00  0.00    +0.000 C 
ATOM     23  C   UNL     1       0.946  13.052  19.416  0.00  0.00    +0.000 C 
ENDBRANCH  13  23
ENDBRANCH   1  18
BRANCH   9  24
ATOM     24  C   UNL     1       4.572   4.357  16.762  0.00  0.00    +0.000 A 
ATOM     25  N   UNL     1       5.087   3.554  15.846  0.00  0.00    +0.000 NA
ATOM     26  C   UNL     1       5.621   4.402  14.903  0.00  0.00    +0.000 A 
ATOM     27  C   UNL     1       6.245   3.891  13.668  0.00  0.00    +0.000 C 
ATOM     28  C   UNL     1       5.447   5.702  15.311  0.00  0.00    +0.000 A 
ATOM     29  O   UNL     1       4.768   5.690  16.487  0.00  0.00    +0.000 OA
ENDBRANCH   9  24
TORSDOF 3
ENDMDL
MODEL 4
REMARK VINA RESULT:      -7.9      3.966      8.753
REMARK  Name = 
REMARK  6 active torsions:
REMARK  status: ('A' for Active; 'I' for Inactive)
REMARK    1  A    between atoms: C_1  and  C_2
REMARK    2  A    between atoms: C_2  and  N_3
REMARK    3  A    between atoms: C_8  and  C_9
REMARK    4  A    between atoms: C_15  and  C_16
REMARK    5  A    between atoms: C_17  and  C_18
REMARK    6  A    between atoms: C_20  and  C_21
REMARK                            x       y       z     vdW  Elec       q    Type
REMARK                         _______ _______ _______ _____ _____    ______ ____
ROOT
ATOM      1  C   UNL     1       2.091   6.328  19.717  0.00  0.00    +0.000 A 
ATOM      2  C   UNL     1       1.380   5.640  20.629  0.00  0.00    +0.000 A 
ATOM      3  C   UNL     1       1.659   4.190  20.828  0.00  0.00    +0.000 A 
ATOM      4  O   UNL     1       1.066   3.496  21.642  0.00  0.00    +0.000 OA
ATOM      5  N   UNL     1       2.668   3.677  19.990  0.00  0.00    +0.000 N 
ATOM      6  N   UNL     1       3.059   2.373  19.999  0.00  0.00    +0.000 NA
ATOM      7  C   UNL     1       4.007   2.308  19.050  0.00  0.00    +0.000 A 
ATOM      8  C   UNL     1       4.690   1.019  18.770  0.00  0.00    +0.000 C 
ATOM      9  C   UNL     1       4.233   3.566  18.440  0.00  0.00    +0.000 A 
ATOM     10  C   UNL     1       3.368   4.428  19.064  0.00  0.00    +0.000 A 
ATOM     11  N   UNL     1       3.078   5.747  18.949  0.00  0.00    +0.000 N 
ATOM     12  H   UNL     1       3.572   6.341  18.279  0.00  0.00    +0.000 HD
ENDROOT
BRANCH   1  18
ATOM     13  N   UNL     1       1.145  11.820  19.296  0.00  0.00    +0.000 N 
ATOM     14  N   UNL     1       0.632  12.144  20.501  0.00  0.00    +0.000 NA
ATOM     15  C   UNL     1       0.605  10.980  21.153  0.00  0.00    +0.000 A 
ATOM     16  C   UNL     1       1.087   9.904  20.374  0.00  0.00    +0.000 A 
ATOM     17  C   UNL     1       1.289   8.526  20.570  0.00  0.00    +0.000 A 
ATOM     18  C   UNL     1       1.816   7.758  19.517  0.00  0.00    +0.000 A 
ATOM     19  C   UNL     1       2.111   8.356  18.287  0.00  0.00    +0.000 A 
ATOM     20  C   UNL     1       1.914   9.727  18.076  0.00  0.00    +0.000 A 
ATOM     21  C   UNL     1       1.414  10.478  19.147  0.00  0.00    +0.000 A 
BRANCH  13  23
ATOM     22  C   UNL     1       2.838  13.395  18.428  0.00  0.00    +0.000 C 
ATOM     23  C   UNL     1       1.416  12.874  18.336  0.00  0.00    +0.000 C 
ENDBRANCH  13  23
ENDBRANCH   1  18
BRANCH   9  24
ATOM     24  C   UNL     1       5.192   3.906  17.362  0.00  0.00    +0.000 A 
ATOM     25  N   UNL     1       4.952   3.708  16.076  0.00  0.00    +0.000 NA
ATOM     26  C   UNL     1       6.067   4.200  15.436  0.00  0.00    +0.000 A 
ATOM     27  C   UNL     1       6.167   4.221  13.965  0.00  0.00    +0.000 C 
ATOM     28  C   UNL     1       6.970   4.641  16.372  0.00  0.00    +0.000 A 
ATOM     29  O   UNL     1       6.422   4.474  17.603  0.00  0.00    +0.000 OA
ENDBRANCH   9  24
TORSDOF 3
ENDMDL
MODEL 5
REMARK VINA RESULT:      -7.8      1.528      2.221
REMARK  Name = 
REMARK  6 active torsions:
REMARK  status: ('A' for Active; 'I' for Inactive)
REMARK    1  A    between atoms: C_1  and  C_2
REMARK    2  A    between atoms: C_2  and  N_3
REMARK    3  A    between atoms: C_8  and  C_9
REMARK    4  A    between atoms: C_15  and  C_16
REMARK    5  A    between atoms: C_17  and  C_18
REMARK    6  A    between atoms: C_20  and  C_21
REMARK                            x       y       z     vdW  Elec       q    Type
REMARK                         _______ _______ _______ _____ _____    ______ ____
ROOT
ATOM      1  C   UNL     1       1.135   8.156  20.716  0.00  0.00    +0.000 A 
ATOM      2  C   UNL     1       1.309   8.427  22.021  0.00  0.00    +0.000 A 
ATOM      3  C   UNL     1       0.583   9.576  22.631  0.00  0.00    +0.000 A 
ATOM      4  O   UNL     1       0.679   9.883  23.812  0.00  0.00    +0.000 OA
ATOM      5  N   UNL     1      -0.228  10.290  21.728  0.00  0.00    +0.000 N 
ATOM      6  N   UNL     1      -0.957  11.385  22.078  0.00  0.00    +0.000 NA
ATOM      7  C   UNL     1      -1.550  11.764  20.936  0.00  0.00    +0.000 A 
ATOM      8  C   UNL     1      -2.453  12.943  20.923  0.00  0.00    +0.000 C 
ATOM      9  C   UNL     1      -1.213  10.912  19.856  0.00  0.00    +0.000 A 
ATOM     10  C   UNL     1      -0.370   9.972  20.390  0.00  0.00    +0.000 A 
ATOM     11  N   UNL     1       0.303   8.901  19.905  0.00  0.00    +0.000 N 
ATOM     12  H   UNL     1       0.226   8.627  18.923  0.00  0.00    +0.000 HD
ENDROOT
BRANCH   1  18
ATOM     13  N   UNL     1       4.125   4.078  18.337  0.00  0.00    +0.000 N 
ATOM     14  N   UNL     1       4.703   4.686  17.280  0.00  0.00    +0.000 NA
ATOM     15  C   UNL     1       4.242   5.938  17.350  0.00  0.00    +0.000 A 
ATOM     16  C   UNL     1       3.364   6.139  18.438  0.00  0.00    +0.000 A 
ATOM     17  C   UNL     1       2.642   7.224  18.966  0.00  0.00    +0.000 A 
ATOM     18  C   UNL     1       1.852   7.025  20.111  0.00  0.00    +0.000 A 
ATOM     19  C   UNL     1       1.769   5.757  20.698  0.00  0.00    +0.000 A 
ATOM     20  C   UNL     1       2.481   4.666  20.184  0.00  0.00    +0.000 A 
ATOM     21  C   UNL     1       3.284   4.894  19.058  0.00  0.00    +0.000 A 
BRANCH  13  23
ATOM     22  C   UNL     1       3.407   1.719  18.216  0.00  0.00    +0.000 C 
ATOM     23  C   UNL     1       4.479   2.704  18.641  0.00  0.00    +0.000 C 
ENDBRANCH  13  23
ENDBRANCH   1  18
BRANCH   9  24
ATOM     24  C   UNL     1      -1.663  10.993  18.445  0.00  0.00    +0.000 A 
ATOM     25  N   UNL     1      -2.069   9.948  17.743  0.00  0.00    +0.000 NA
ATOM     26  C   UNL     1      -2.432  10.472  16.523  0.00  0.00    +0.000 A 
ATOM     27  C   UNL     1      -3.005   9.626  15.459  0.00  0.00    +0.000 C 
ATOM     28  C   UNL     1      -2.185  11.823  16.517  0.00  0.00    +0.000 A 
ATOM     29  O   UNL     1      -1.708  12.172  17.739  0.00  0.00    +0.000 OA
ENDBRANCH   9  24
TORSDOF 3
ENDMDL
MODEL 6
REMARK VINA RESULT:      -7.8      3.756      8.656
REMARK  Name = 
REMARK  6 active torsions:
REMARK  status: ('A' for Active; 'I' for Inactive)
REMARK    1  A    between atoms: C_1  and  C_2
REMARK    2  A    between atoms: C_2  and  N_3
REMARK    3  A    between atoms: C_8  and  C_9
REMARK    4  A    between atoms: C_15  and  C_16
REMARK    5  A    between atoms: C_17  and  C_18
REMARK    6  A    between atoms: C_20  and  C_21
REMARK                            x       y       z     vdW  Elec       q    Type
REMARK                         _______ _______ _______ _____ _____    ______ ____
ROOT
ATOM      1  C   UNL     1       1.935   6.311  20.140  0.00  0.00    +0.000 A 
ATOM      2  C   UNL     1       1.391   5.457  21.026  0.00  0.00    +0.000 A 
ATOM      3  C   UNL     1       1.684   4.001  20.910  0.00  0.00    +0.000 A 
ATOM      4  O   UNL     1       1.238   3.162  21.680  0.00  0.00    +0.000 OA
ATOM      5  N   UNL     1       2.522   3.666  19.829  0.00  0.00    +0.000 N 
ATOM      6  N   UNL     1       2.893   2.390  19.536  0.00  0.00    +0.000 NA
ATOM      7  C   UNL     1       3.656   2.514  18.438  0.00  0.00    +0.000 A 
ATOM      8  C   UNL     1       4.264   1.310  17.815  0.00  0.00    +0.000 C 
ATOM      9  C   UNL     1       3.784   3.865  18.032  0.00  0.00    +0.000 A 
ATOM     10  C   UNL     1       3.054   4.584  18.942  0.00  0.00    +0.000 A 
ATOM     11  N   UNL     1       2.764   5.896  19.118  0.00  0.00    +0.000 N 
ATOM     12  H   UNL     1       3.137   6.610  18.488  0.00  0.00    +0.000 HD
ENDROOT
BRANCH   1  18
ATOM     13  N   UNL     1       0.709  11.763  20.227  0.00  0.00    +0.000 N 
ATOM     14  N   UNL     1       1.010  12.173  18.977  0.00  0.00    +0.000 NA
ATOM     15  C   UNL     1       1.456  11.064  18.383  0.00  0.00    +0.000 A 
ATOM     16  C   UNL     1       1.457   9.944  19.243  0.00  0.00    +0.000 A 
ATOM     17  C   UNL     1       1.794   8.582  19.130  0.00  0.00    +0.000 A 
ATOM     18  C   UNL     1       1.646   7.747  20.251  0.00  0.00    +0.000 A 
ATOM     19  C   UNL     1       1.193   8.274  21.466  0.00  0.00    +0.000 A 
ATOM     20  C   UNL     1       0.855   9.626  21.595  0.00  0.00    +0.000 A 
ATOM     21  C   UNL     1       0.984  10.434  20.459  0.00  0.00    +0.000 A 
BRANCH  13  23
ATOM     22  C   UNL     1      -1.422  12.605  21.148  0.00  0.00    +0.000 C 
ATOM     23  C   UNL     1       0.093  12.699  21.148  0.00  0.00    +0.000 C 
ENDBRANCH  13  23
ENDBRANCH   1  18
BRANCH   9  24
ATOM     24  C   UNL     1       4.539   4.411  16.879  0.00  0.00    +0.000 A 
ATOM     25  N   UNL     1       5.129   3.658  15.965  0.00  0.00    +0.000 NA
ATOM     26  C   UNL     1       5.663   4.557  15.069  0.00  0.00    +0.000 A 
ATOM     27  C   UNL     1       6.362   4.110  13.850  0.00  0.00    +0.000 C 
ATOM     28  C   UNL     1       5.413   5.835  15.504  0.00  0.00    +0.000 A 
ATOM     29  O   UNL     1       4.686   5.759  16.649  0.00  0.00    +0.000 OA
ENDBRANCH   9  24
TORSDOF 3
ENDMDL
MODEL 7
REMARK VINA RESULT:      -7.7      0.740      1.404
REMARK  Name = 
REMARK  6 active torsions:
REMARK  status: ('A' for Active; 'I' for Inactive)
REMARK    1  A    between atoms: C_1  and  C_2
REMARK    2  A    between atoms: C_2  and  N_3
REMARK    3  A    between atoms: C_8  and  C_9
REMARK    4  A    between atoms: C_15  and  C_16
REMARK    5  A    between atoms: C_17  and  C_18
REMARK    6  A    between atoms: C_20  and  C_21
REMARK                            x       y       z     vdW  Elec       q    Type
REMARK                         _______ _______ _______ _____ _____    ______ ____
ROOT
ATOM      1  C   UNL     1       0.500   9.432  20.260  0.00  0.00    +0.000 A 
ATOM      2  C   UNL     1       0.706   9.922  21.496  0.00  0.00    +0.000 A 
ATOM      3  C   UNL     1      -0.185  10.998  22.012  0.00  0.00    +0.000 A 
ATOM      4  O   UNL     1      -0.071  11.490  23.126  0.00  0.00    +0.000 OA
ATOM      5  N   UNL     1      -1.176  11.412  21.101  0.00  0.00    +0.000 N 
ATOM      6  N   UNL     1      -2.077  12.397  21.368  0.00  0.00    +0.000 NA
ATOM      7  C   UNL     1      -2.807  12.488  20.246  0.00  0.00    +0.000 A 
ATOM      8  C   UNL     1      -3.919  13.469  20.160  0.00  0.00    +0.000 C 
ATOM      9  C   UNL     1      -2.386  11.559  19.263  0.00  0.00    +0.000 A 
ATOM     10  C   UNL     1      -1.344  10.878  19.837  0.00  0.00    +0.000 A 
ATOM     11  N   UNL     1      -0.511   9.885  19.438  0.00  0.00    +0.000 N 
ATOM     12  H   UNL     1      -0.600   9.459  18.513  0.00  0.00    +0.000 HD
ENDROOT
BRANCH   1  18
ATOM     13  N   UNL     1       4.060   5.653  18.191  0.00  0.00    +0.000 N 
ATOM     14  N   UNL     1       4.480   6.215  17.038  0.00  0.00    +0.000 NA
ATOM     15  C   UNL     1       3.812   7.370  16.991  0.00  0.00    +0.000 A 
ATOM     16  C   UNL     1       2.956   7.553  18.100  0.00  0.00    +0.000 A 
ATOM     17  C   UNL     1       2.076   8.558  18.542  0.00  0.00    +0.000 A 
ATOM     18  C   UNL     1       1.379   8.372  19.748  0.00  0.00    +0.000 A 
ATOM     19  C   UNL     1       1.542   7.190  20.481  0.00  0.00    +0.000 A 
ATOM     20  C   UNL     1       2.413   6.180  20.054  0.00  0.00    +0.000 A 
ATOM     21  C   UNL     1       3.118   6.399  18.863  0.00  0.00    +0.000 A 
BRANCH  13  23
ATOM     22  C   UNL     1       3.848   3.193  18.217  0.00  0.00    +0.000 C 
ATOM     23  C   UNL     1       4.660   4.407  18.629  0.00  0.00    +0.000 C 
ENDBRANCH  13  23
ENDBRANCH   1  18
BRANCH   9  24
ATOM     24  C   UNL     1      -2.936  11.347  17.903  0.00  0.00    +0.000 A 
ATOM     25  N   UNL     1      -2.279  10.731  16.933  0.00  0.00    +0.000 NA
ATOM     26  C   UNL     1      -3.160  10.713  15.876  0.00  0.00    +0.000 A 
ATOM     27  C   UNL     1      -2.825  10.049  14.602  0.00  0.00    +0.000 C 
ATOM     28  C   UNL     1      -4.314  11.366  16.234  0.00  0.00    +0.000 A 
ATOM     29  O   UNL     1      -4.191  11.764  17.527  0.00  0.00    +0.000 OA
ENDBRANCH   9  24
TORSDOF 3
ENDMDL
MODEL 8
REMARK VINA RESULT:      -7.7      3.955      9.055
REMARK  Name = 
REMARK  6 active torsions:
REMARK  status: ('A' for Active; 'I' for Inactive)
REMARK    1  A    between atoms: C_1  and  C_2
REMARK    2  A    between atoms: C_2  and  N_3
REMARK    3  A    between atoms: C_8  and  C_9
REMARK    4  A    between atoms: C_15  and  C_16
REMARK    5  A    between atoms: C_17  and  C_18
REMARK    6  A    between atoms: C_20  and  C_21
REMARK                            x       y       z     vdW  Elec       q    Type
REMARK                         _______ _______ _______ _____ _____    ______ ____
ROOT
ATOM      1  C   UNL     1       2.331   6.971  18.860  0.00  0.00    +0.000 A 
ATOM      2  C   UNL     1       1.622   5.918  18.414  0.00  0.00    +0.000 A 
ATOM      3  C   UNL     1       2.318   4.833  17.668  0.00  0.00    +0.000 A 
ATOM      4  O   UNL     1       1.749   3.839  17.239  0.00  0.00    +0.000 OA
ATOM      5  N   UNL     1       3.698   5.049  17.492  0.00  0.00    +0.000 N 
ATOM      6  N   UNL     1       4.513   4.189  16.821  0.00  0.00    +0.000 NA
ATOM      7  C   UNL     1       5.719   4.776  16.866  0.00  0.00    +0.000 A 
ATOM      8  C   UNL     1       6.890   4.116  16.235  0.00  0.00    +0.000 C 
ATOM      9  C   UNL     1       5.685   6.003  17.572  0.00  0.00    +0.000 A 
ATOM     10  C   UNL     1       4.381   6.153  17.968  0.00  0.00    +0.000 A 
ATOM     11  N   UNL     1       3.690   7.093  18.658  0.00  0.00    +0.000 N 
ATOM     12  H   UNL     1       4.154   7.924  19.031  0.00  0.00    +0.000 HD
ENDROOT
BRANCH   1  18
ATOM     13  N   UNL     1      -0.080  10.965  21.938  0.00  0.00    +0.000 N 
ATOM     14  N   UNL     1      -0.194  10.397  23.157  0.00  0.00    +0.000 NA
ATOM     15  C   UNL     1       0.314   9.175  22.981  0.00  0.00    +0.000 A 
ATOM     16  C   UNL     1       0.745   8.946  21.656  0.00  0.00    +0.000 A 
ATOM     17  C   UNL     1       1.350   7.884  20.959  0.00  0.00    +0.000 A 
ATOM     18  C   UNL     1       1.646   8.044  19.594  0.00  0.00    +0.000 A 
ATOM     19  C   UNL     1       1.317   9.235  18.937  0.00  0.00    +0.000 A 
ATOM     20  C   UNL     1       0.714  10.301  19.616  0.00  0.00    +0.000 A 
ATOM     21  C   UNL     1       0.453  10.130  20.982  0.00  0.00    +0.000 A 
BRANCH  13  23
ATOM     22  C   UNL     1      -1.207  12.907  22.964  0.00  0.00    +0.000 C 
ATOM     23  C   UNL     1      -0.449  12.358  21.770  0.00  0.00    +0.000 C 
ENDBRANCH  13  23
ENDBRANCH   1  18
BRANCH   9  24
ATOM     24  C   UNL     1       6.801   6.940  17.842  0.00  0.00    +0.000 A 
ATOM     25  N   UNL     1       6.885   8.152  17.318  0.00  0.00    +0.000 NA
ATOM     26  C   UNL     1       8.032   8.685  17.861  0.00  0.00    +0.000 A 
ATOM     27  C   UNL     1       8.454  10.068  17.571  0.00  0.00    +0.000 C 
ATOM     28  C   UNL     1       8.632   7.748  18.666  0.00  0.00    +0.000 A 
ATOM     29  O   UNL     1       7.852   6.635  18.675  0.00  0.00    +0.000 OA
ENDBRANCH   9  24
TORSDOF 3
ENDMDL
MODEL 9
REMARK VINA RESULT:      -7.6      3.814      9.185
REMARK  Name = 
REMARK  6 active torsions:
REMARK  status: ('A' for Active; 'I' for Inactive)
REMARK    1  A    between atoms: C_1  and  C_2
REMARK    2  A    between atoms: C_2  and  N_3
REMARK    3  A    between atoms: C_8  and  C_9
REMARK    4  A    between atoms: C_15  and  C_16
REMARK    5  A    between atoms: C_17  and  C_18
REMARK    6  A    between atoms: C_20  and  C_21
REMARK                            x       y       z     vdW  Elec       q    Type
REMARK                         _______ _______ _______ _____ _____    ______ ____
ROOT
ATOM      1  C   UNL     1       2.382   6.738  18.931  0.00  0.00    +0.000 A 
ATOM      2  C   UNL     1       1.678   5.706  18.431  0.00  0.00    +0.000 A 
ATOM      3  C   UNL     1       2.373   4.685  17.599  0.00  0.00    +0.000 A 
ATOM      4  O   UNL     1       1.809   3.712  17.117  0.00  0.00    +0.000 OA
ATOM      5  N   UNL     1       3.746   4.934  17.408  0.00  0.00    +0.000 N 
ATOM      6  N   UNL     1       4.557   4.134  16.662  0.00  0.00    +0.000 NA
ATOM      7  C   UNL     1       5.755   4.737  16.720  0.00  0.00    +0.000 A 
ATOM      8  C   UNL     1       6.922   4.140  16.020  0.00  0.00    +0.000 C 
ATOM      9  C   UNL     1       5.719   5.914  17.507  0.00  0.00    +0.000 A 
ATOM     10  C   UNL     1       4.423   6.015  17.941  0.00  0.00    +0.000 A 
ATOM     11  N   UNL     1       3.734   6.896  18.707  0.00  0.00    +0.000 N 
ATOM     12  H   UNL     1       4.194   7.708  19.125  0.00  0.00    +0.000 HD
ENDROOT
BRANCH   1  18
ATOM     13  N   UNL     1      -0.390  10.687  21.752  0.00  0.00    +0.000 N 
ATOM     14  N   UNL     1      -0.442  11.718  20.883  0.00  0.00    +0.000 NA
ATOM     15  C   UNL     1       0.210  11.257  19.812  0.00  0.00    +0.000 A 
ATOM     16  C   UNL     1       0.692   9.941  19.989  0.00  0.00    +0.000 A 
ATOM     17  C   UNL     1       1.397   9.009  19.205  0.00  0.00    +0.000 A 
ATOM     18  C   UNL     1       1.698   7.749  19.750  0.00  0.00    +0.000 A 
ATOM     19  C   UNL     1       1.320   7.440  21.062  0.00  0.00    +0.000 A 
ATOM     20  C   UNL     1       0.619   8.357  21.855  0.00  0.00    +0.000 A 
ATOM     21  C   UNL     1       0.306   9.596  21.283  0.00  0.00    +0.000 A 
BRANCH  13  23
ATOM     22  C   UNL     1      -2.140  11.893  23.010  0.00  0.00    +0.000 C 
ATOM     23  C   UNL     1      -1.094  10.794  23.016  0.00  0.00    +0.000 C 
ENDBRANCH  13  23
ENDBRANCH   1  18
BRANCH   9  24
ATOM     24  C   UNL     1       6.828   6.849  17.814  0.00  0.00    +0.000 A 
ATOM     25  N   UNL     1       6.938   8.056  17.282  0.00  0.00    +0.000 NA
ATOM     26  C   UNL     1       8.064   8.590  17.867  0.00  0.00    +0.000 A 
ATOM     27  C   UNL     1       8.503   9.968  17.582  0.00  0.00    +0.000 C 
ATOM     28  C   UNL     1       8.625   7.658  18.706  0.00  0.00    +0.000 A 
ATOM     29  O   UNL     1       7.841   6.549  18.693  0.00  0.00    +0.000 OA
ENDBRANCH   9  24
TORSDOF 3
ENDMDL
