MODEL 1
REMARK VINA RESULT:      -6.9      0.000      0.000
REMARK  Name = 
REMARK  6 active torsions:
REMARK  status: ('A' for Active; 'I' for Inactive)
REMARK    1  A    between atoms: C_1  and  S_2
REMARK    2  A    between atoms: S_2  and  N_5
REMARK    3  A    between atoms: N_5  and  C_6
REMARK    4  A    between atoms: N_5  and  C_15
REMARK    5  A    between atoms: C_6  and  C_7
REMARK    6  A    between atoms: C_19  and  C_20
REMARK                            x       y       z     vdW  Elec       q    Type
REMARK                         _______ _______ _______ _____ _____    ______ ____
ROOT
ATOM      1  N   UNL     1       3.196   3.955  18.429  0.00  0.00    +0.000 N 
ENDROOT
BRANCH   1   2
ATOM      2  C   UNL     1       2.687   5.296  18.764  0.00  0.00    +0.000 A 
ATOM      3  S   UNL     1       2.643   6.673  17.728  0.00  0.00    +0.000 S 
ATOM      4  C   UNL     1       1.932   7.661  18.940  0.00  0.00    +0.000 A 
ATOM      5  C   UNL     1       1.745   6.965  20.117  0.00  0.00    +0.000 A 
ATOM      6  C   UNL     1       2.215   5.616  20.014  0.00  0.00    +0.000 A 
ATOM      7  C   UNL     1       1.183   7.597  21.357  0.00  0.00    +0.000 C 
ATOM      8  C   UNL     1       0.531   8.956  21.090  0.00  0.00    +0.000 C 
ATOM      9  C   UNL     1       1.357   9.804  20.118  0.00  0.00    +0.000 C 
ATOM     10  C   UNL     1       1.547   9.108  18.750  0.00  0.00    +0.000 C 
BRANCH   6  11
ATOM     11  C   UNL     1       2.208   4.722  21.121  0.00  0.00    +0.000 C 
ATOM     12  N   UNL     1       2.219   3.909  21.962  0.00  0.00    +0.000 NA
ENDBRANCH   6  11
ENDBRANCH   1   2
BRANCH   1  14
ATOM     13  C   UNL     1       1.227   2.071  19.186  0.00  0.00    +0.000 C 
ATOM     14  S   UNL     1       1.905   2.999  17.817  0.00  0.00    +0.000 S 
ATOM     15  O   UNL     1       2.457   2.045  16.876  0.00  0.00    +0.000 OA
ATOM     16  O   UNL     1       0.850   3.906  17.404  0.00  0.00    +0.000 OA
ENDBRANCH   1  14
BRANCH   1  17
ATOM     17  C   UNL     1       4.498   3.946  17.685  0.00  0.00    +0.000 C 
BRANCH  17  18
ATOM     18  C   UNL     1       5.776   4.307  18.448  0.00  0.00    +0.000 C 
ATOM     19  O   UNL     1       5.876   4.117  19.662  0.00  0.00    +0.000 OA
ATOM     20  N   UNL     1       6.822   4.888  17.704  0.00  0.00    +0.000 N 
ATOM     21  C   UNL     1       8.076   5.232  18.392  0.00  0.00    +0.000 C 
ATOM     22  C   UNL     1       8.059   6.694  18.848  0.00  0.00    +0.000 C 
ATOM     23  C   UNL     1       7.736   7.629  17.679  0.00  0.00    +0.000 C 
ATOM     24  C   UNL     1       6.461   7.183  16.960  0.00  0.00    +0.000 C 
ATOM     25  C   UNL     1       6.566   5.719  16.526  0.00  0.00    +0.000 C 
ENDBRANCH  17  18
ENDBRANCH   1  17
TORSDOF 5
ENDMDL
MODEL 2
REMARK VINA RESULT:      -6.6      2.004      5.210
REMARK  Name = 
REMARK  6 active torsions:
REMARK  status: ('A' for Active; 'I' for Inactive)
REMARK    1  A    between atoms: C_1  and  S_2
REMARK    2  A    between atoms: S_2  and  N_5
REMARK    3  A    between atoms: N_5  and  C_6
REMARK    4  A    between atoms: N_5  and  C_15
REMARK    5  A    between atoms: C_6  and  C_7
REMARK    6  A    between atoms: C_19  and  C_20
REMARK                            x       y       z     vdW  Elec       q    Type
REMARK                         _______ _______ _______ _____ _____    ______ ____
ROOT
ATOM      1  N   UNL     1       5.501   4.774  17.893  0.00  0.00    +0.000 N 
ENDROOT
BRANCH   1   2
ATOM      2  C   UNL     1       4.494   5.777  18.282  0.00  0.00    +0.000 A 
ATOM      3  S   UNL     1       3.588   5.817  19.748  0.00  0.00    +0.000 S 
ATOM      4  C   UNL     1       2.759   7.249  19.289  0.00  0.00    +0.000 A 
ATOM      5  C   UNL     1       3.148   7.683  18.038  0.00  0.00    +0.000 A 
ATOM      6  C   UNL     1       4.121   6.809  17.455  0.00  0.00    +0.000 A 
ATOM      7  C   UNL     1       2.549   8.887  17.371  0.00  0.00    +0.000 C 
ATOM      8  C   UNL     1       1.742   9.762  18.333  0.00  0.00    +0.000 C 
ATOM      9  C   UNL     1       0.885   8.921  19.284  0.00  0.00    +0.000 C 
ATOM     10  C   UNL     1       1.736   7.959  20.144  0.00  0.00    +0.000 C 
BRANCH   6  11
ATOM     11  C   UNL     1       4.617   6.997  16.135  0.00  0.00    +0.000 C 
ATOM     12  N   UNL     1       4.971   7.067  15.022  0.00  0.00    +0.000 NA
ENDBRANCH   6  11
ENDBRANCH   1   2
BRANCH   1  14
ATOM     13  C   UNL     1       7.443   6.830  17.912  0.00  0.00    +0.000 C 
ATOM     14  S   UNL     1       7.023   5.216  18.556  0.00  0.00    +0.000 S 
ATOM     15  O   UNL     1       8.016   4.281  18.068  0.00  0.00    +0.000 OA
ATOM     16  O   UNL     1       6.837   5.406  19.983  0.00  0.00    +0.000 OA
ENDBRANCH   1  14
BRANCH   1  17
ATOM     17  C   UNL     1       5.053   3.349  18.034  0.00  0.00    +0.000 C 
BRANCH  17  18
ATOM     18  C   UNL     1       3.561   3.037  17.891  0.00  0.00    +0.000 C 
ATOM     19  O   UNL     1       2.885   3.522  16.982  0.00  0.00    +0.000 OA
ATOM     20  N   UNL     1       2.990   2.189  18.861  0.00  0.00    +0.000 N 
ATOM     21  C   UNL     1       1.564   1.844  18.752  0.00  0.00    +0.000 C 
ATOM     22  C   UNL     1       0.712   2.799  19.594  0.00  0.00    +0.000 C 
ATOM     23  C   UNL     1       1.212   2.849  21.040  0.00  0.00    +0.000 C 
ATOM     24  C   UNL     1       2.713   3.143  21.089  0.00  0.00    +0.000 C 
ATOM     25  C   UNL     1       3.491   2.137  20.236  0.00  0.00    +0.000 C 
ENDBRANCH  17  18
ENDBRANCH   1  17
TORSDOF 5
ENDMDL
MODEL 3
REMARK VINA RESULT:      -6.0      6.548     10.346
REMARK  Name = 
REMARK  6 active torsions:
REMARK  status: ('A' for Active; 'I' for Inactive)
REMARK    1  A    between atoms: C_1  and  S_2
REMARK    2  A    between atoms: S_2  and  N_5
REMARK    3  A    between atoms: N_5  and  C_6
REMARK    4  A    between atoms: N_5  and  C_15
REMARK    5  A    between atoms: C_6  and  C_7
REMARK    6  A    between atoms: C_19  and  C_20
REMARK                            x       y       z     vdW  Elec       q    Type
REMARK                         _______ _______ _______ _____ _____    ______ ____
ROOT
ATOM      1  N   UNL     1      -0.486  12.289  21.357  0.00  0.00    +0.000 N 
ENDROOT
BRANCH   1   2
ATOM      2  C   UNL     1       0.152  11.202  20.594  0.00  0.00    +0.000 A 
ATOM      3  S   UNL     1       0.442  11.164  18.895  0.00  0.00    +0.000 S 
ATOM      4  C   UNL     1       1.170   9.611  18.975  0.00  0.00    +0.000 A 
ATOM      5  C   UNL     1       1.180   9.120  20.264  0.00  0.00    +0.000 A 
ATOM      6  C   UNL     1       0.561  10.029  21.181  0.00  0.00    +0.000 A 
ATOM      7  C   UNL     1       1.716   7.762  20.615  0.00  0.00    +0.000 C 
ATOM      8  C   UNL     1       2.546   7.140  19.489  0.00  0.00    +0.000 C 
ATOM      9  C   UNL     1       1.905   7.367  18.116  0.00  0.00    +0.000 C 
ATOM     10  C   UNL     1       1.740   8.869  17.789  0.00  0.00    +0.000 C 
BRANCH   6  11
ATOM     11  C   UNL     1       0.374   9.713  22.556  0.00  0.00    +0.000 C 
ATOM     12  N   UNL     1       0.146   9.527  23.687  0.00  0.00    +0.000 NA
ENDBRANCH   6  11
ENDBRANCH   1   2
BRANCH   1  14
ATOM     13  C   UNL     1       0.200  14.691  20.031  0.00  0.00    +0.000 C 
ATOM     14  S   UNL     1       0.580  13.635  21.422  0.00  0.00    +0.000 S 
ATOM     15  O   UNL     1       1.933  13.147  21.240  0.00  0.00    +0.000 OA
ATOM     16  O   UNL     1       0.235  14.408  22.601  0.00  0.00    +0.000 OA
ENDBRANCH   1  14
BRANCH   1  17
ATOM     17  C   UNL     1      -1.923  12.540  21.007  0.00  0.00    +0.000 C 
BRANCH  17  18
ATOM     18  C   UNL     1      -2.917  12.788  22.145  0.00  0.00    +0.000 C 
ATOM     19  O   UNL     1      -2.747  12.304  23.266  0.00  0.00    +0.000 OA
ATOM     20  N   UNL     1      -4.047  13.575  21.845  0.00  0.00    +0.000 N 
ATOM     21  C   UNL     1      -5.018  13.858  22.914  0.00  0.00    +0.000 C 
ATOM     22  C   UNL     1      -6.160  12.837  22.890  0.00  0.00    +0.000 C 
ATOM     23  C   UNL     1      -6.796  12.759  21.500  0.00  0.00    +0.000 C 
ATOM     24  C   UNL     1      -5.732  12.533  20.423  0.00  0.00    +0.000 C 
ATOM     25  C   UNL     1      -4.640  13.602  20.507  0.00  0.00    +0.000 C 
ENDBRANCH  17  18
ENDBRANCH   1  17
TORSDOF 5
ENDMDL
MODEL 4
REMARK VINA RESULT:      -6.0      7.292      8.971
REMARK  Name = 
REMARK  6 active torsions:
REMARK  status: ('A' for Active; 'I' for Inactive)
REMARK    1  A    between atoms: C_1  and  S_2
REMARK    2  A    between atoms: S_2  and  N_5
REMARK    3  A    between atoms: N_5  and  C_6
REMARK    4  A    between atoms: N_5  and  C_15
REMARK    5  A    between atoms: C_6  and  C_7
REMARK    6  A    between atoms: C_19  and  C_20
REMARK                            x       y       z     vdW  Elec       q    Type
REMARK                         _______ _______ _______ _____ _____    ______ ____
ROOT
ATOM      1  N   UNL     1       0.205  11.450  20.849  0.00  0.00    +0.000 N 
ENDROOT
BRANCH   1   2
ATOM      2  C   UNL     1      -0.691  11.212  19.704  0.00  0.00    +0.000 A 
ATOM      3  S   UNL     1      -0.328  10.320  18.275  0.00  0.00    +0.000 S 
ATOM      4  C   UNL     1      -1.888  10.598  17.611  0.00  0.00    +0.000 A 
ATOM      5  C   UNL     1      -2.667  11.368  18.449  0.00  0.00    +0.000 A 
ATOM      6  C   UNL     1      -1.957  11.744  19.634  0.00  0.00    +0.000 A 
ATOM      7  C   UNL     1      -4.060  11.802  18.096  0.00  0.00    +0.000 C 
ATOM      8  C   UNL     1      -4.640  11.034  16.906  0.00  0.00    +0.000 C 
ATOM      9  C   UNL     1      -3.604  10.841  15.793  0.00  0.00    +0.000 C 
ATOM     10  C   UNL     1      -2.360  10.063  16.280  0.00  0.00    +0.000 C 
BRANCH   6  11
ATOM     11  C   UNL     1      -2.518  12.608  20.616  0.00  0.00    +0.000 C 
ATOM     12  N   UNL     1      -2.921  13.394  21.382  0.00  0.00    +0.000 NA
ENDBRANCH   6  11
ENDBRANCH   1   2
BRANCH   1  14
ATOM     13  C   UNL     1      -0.971  10.429  23.210  0.00  0.00    +0.000 C 
ATOM     14  S   UNL     1       0.174  10.078  21.883  0.00  0.00    +0.000 S 
ATOM     15  O   UNL     1       1.490   9.927  22.472  0.00  0.00    +0.000 OA
ATOM     16  O   UNL     1      -0.422   8.984  21.137  0.00  0.00    +0.000 OA
ENDBRANCH   1  14
BRANCH   1  17
ATOM     17  C   UNL     1       1.537  12.037  20.490  0.00  0.00    +0.000 C 
BRANCH  17  18
ATOM     18  C   UNL     1       1.803  13.505  20.833  0.00  0.00    +0.000 C 
ATOM     19  O   UNL     1       1.941  13.879  21.999  0.00  0.00    +0.000 OA
ATOM     20  N   UNL     1       1.858  14.413  19.757  0.00  0.00    +0.000 N 
ATOM     21  C   UNL     1       2.132  15.831  20.038  0.00  0.00    +0.000 C 
ATOM     22  C   UNL     1       0.824  16.617  20.175  0.00  0.00    +0.000 C 
ATOM     23  C   UNL     1      -0.073  16.405  18.952  0.00  0.00    +0.000 C 
ATOM     24  C   UNL     1      -0.266  14.914  18.667  0.00  0.00    +0.000 C 
ATOM     25  C   UNL     1       1.085  14.208  18.530  0.00  0.00    +0.000 C 
ENDBRANCH  17  18
ENDBRANCH   1  17
TORSDOF 5
ENDMDL
MODEL 5
REMARK VINA RESULT:      -5.9      6.830     10.703
REMARK  Name = 
REMARK  6 active torsions:
REMARK  status: ('A' for Active; 'I' for Inactive)
REMARK    1  A    between atoms: C_1  and  S_2
REMARK    2  A    between atoms: S_2  and  N_5
REMARK    3  A    between atoms: N_5  and  C_6
REMARK    4  A    between atoms: N_5  and  C_15
REMARK    5  A    between atoms: C_6  and  C_7
REMARK    6  A    between atoms: C_19  and  C_20
REMARK                            x       y       z     vdW  Elec       q    Type
REMARK                         _______ _______ _______ _____ _____    ______ ____
ROOT
ATOM      1  N   UNL     1      -1.251  12.368  21.348  0.00  0.00    +0.000 N 
ENDROOT
BRANCH   1   2
ATOM      2  C   UNL     1      -0.476  11.364  20.599  0.00  0.00    +0.000 A 
ATOM      3  S   UNL     1      -0.155  11.358  18.906  0.00  0.00    +0.000 S 
ATOM      4  C   UNL     1       0.751   9.903  19.002  0.00  0.00    +0.000 A 
ATOM      5  C   UNL     1       0.798   9.418  20.293  0.00  0.00    +0.000 A 
ATOM      6  C   UNL     1       0.060  10.248  21.197  0.00  0.00    +0.000 A 
ATOM      7  C   UNL     1       1.485   8.134  20.657  0.00  0.00    +0.000 C 
ATOM      8  C   UNL     1       2.402   7.613  19.547  0.00  0.00    +0.000 C 
ATOM      9  C   UNL     1       1.762   7.762  18.163  0.00  0.00    +0.000 C 
ATOM     10  C   UNL     1       1.425   9.233  17.828  0.00  0.00    +0.000 C 
BRANCH   6  11
ATOM     11  C   UNL     1      -0.111   9.914  22.569  0.00  0.00    +0.000 C 
ATOM     12  N   UNL     1      -0.306   9.557  23.665  0.00  0.00    +0.000 NA
ENDBRANCH   6  11
ENDBRANCH   1   2
BRANCH   1  14
ATOM     13  C   UNL     1      -0.747  14.556  23.067  0.00  0.00    +0.000 C 
ATOM     14  S   UNL     1      -0.317  13.801  21.505  0.00  0.00    +0.000 S 
ATOM     15  O   UNL     1      -0.714  14.716  20.454  0.00  0.00    +0.000 OA
ATOM     16  O   UNL     1       1.073  13.402  21.638  0.00  0.00    +0.000 OA
ENDBRANCH   1  14
BRANCH   1  17
ATOM     17  C   UNL     1      -2.683  12.499  20.921  0.00  0.00    +0.000 C 
BRANCH  17  18
ATOM     18  C   UNL     1      -3.757  12.632  22.004  0.00  0.00    +0.000 C 
ATOM     19  O   UNL     1      -3.624  12.107  23.111  0.00  0.00    +0.000 OA
ATOM     20  N   UNL     1      -4.914  13.363  21.670  0.00  0.00    +0.000 N 
ATOM     21  C   UNL     1      -5.964  13.536  22.687  0.00  0.00    +0.000 C 
ATOM     22  C   UNL     1      -7.035  12.449  22.547  0.00  0.00    +0.000 C 
ATOM     23  C   UNL     1      -7.582  12.399  21.118  0.00  0.00    +0.000 C 
ATOM     24  C   UNL     1      -6.443  12.290  20.101  0.00  0.00    +0.000 C 
ATOM     25  C   UNL     1      -5.427  13.417  20.299  0.00  0.00    +0.000 C 
ENDBRANCH  17  18
ENDBRANCH   1  17
TORSDOF 5
ENDMDL
MODEL 6
REMARK VINA RESULT:      -5.9      6.451     10.103
REMARK  Name = 
REMARK  6 active torsions:
REMARK  status: ('A' for Active; 'I' for Inactive)
REMARK    1  A    between atoms: C_1  and  S_2
REMARK    2  A    between atoms: S_2  and  N_5
REMARK    3  A    between atoms: N_5  and  C_6
REMARK    4  A    between atoms: N_5  and  C_15
REMARK    5  A    between atoms: C_6  and  C_7
REMARK    6  A    between atoms: C_19  and  C_20
REMARK                            x       y       z     vdW  Elec       q    Type
REMARK                         _______ _______ _______ _____ _____    ______ ____
ROOT
ATOM      1  N   UNL     1      -1.130  12.031  20.776  0.00  0.00    +0.000 N 
ENDROOT
BRANCH   1   2
ATOM      2  C   UNL     1      -0.277  10.992  20.172  0.00  0.00    +0.000 A 
ATOM      3  S   UNL     1       0.251  10.913  18.534  0.00  0.00    +0.000 S 
ATOM      4  C   UNL     1       1.124   9.458  18.803  0.00  0.00    +0.000 A 
ATOM      5  C   UNL     1       1.005   9.029  20.109  0.00  0.00    +0.000 A 
ATOM      6  C   UNL     1       0.168   9.900  20.878  0.00  0.00    +0.000 A 
ATOM      7  C   UNL     1       1.629   7.758  20.608  0.00  0.00    +0.000 C 
ATOM      8  C   UNL     1       2.671   7.187  19.644  0.00  0.00    +0.000 C 
ATOM      9  C   UNL     1       2.210   7.279  18.186  0.00  0.00    +0.000 C 
ATOM     10  C   UNL     1       1.932   8.736  17.751  0.00  0.00    +0.000 C 
BRANCH   6  11
ATOM     11  C   UNL     1      -0.175   9.626  22.231  0.00  0.00    +0.000 C 
ATOM     12  N   UNL     1      -0.540   9.347  23.306  0.00  0.00    +0.000 NA
ENDBRANCH   6  11
ENDBRANCH   1   2
BRANCH   1  14
ATOM     13  C   UNL     1      -0.382  14.749  20.553  0.00  0.00    +0.000 C 
ATOM     14  S   UNL     1      -0.133  13.241  21.479  0.00  0.00    +0.000 S 
ATOM     15  O   UNL     1       1.250  12.844  21.303  0.00  0.00    +0.000 OA
ATOM     16  O   UNL     1      -0.651  13.513  22.808  0.00  0.00    +0.000 OA
ENDBRANCH   1  14
BRANCH   1  17
ATOM     17  C   UNL     1      -2.282  12.470  19.922  0.00  0.00    +0.000 C 
BRANCH  17  18
ATOM     18  C   UNL     1      -3.659  12.616  20.575  0.00  0.00    +0.000 C 
ATOM     19  O   UNL     1      -3.797  12.595  21.799  0.00  0.00    +0.000 OA
ATOM     20  N   UNL     1      -4.764  12.751  19.711  0.00  0.00    +0.000 N 
ATOM     21  C   UNL     1      -6.105  12.916  20.295  0.00  0.00    +0.000 C 
ATOM     22  C   UNL     1      -6.811  11.562  20.416  0.00  0.00    +0.000 C 
ATOM     23  C   UNL     1      -6.823  10.828  19.072  0.00  0.00    +0.000 C 
ATOM     24  C   UNL     1      -5.414  10.748  18.481  0.00  0.00    +0.000 C 
ATOM     25  C   UNL     1      -4.788  12.141  18.381  0.00  0.00    +0.000 C 
ENDBRANCH  17  18
ENDBRANCH   1  17
TORSDOF 5
ENDMDL
MODEL 7
REMARK VINA RESULT:      -5.8      6.057      9.654
REMARK  Name = 
REMARK  6 active torsions:
REMARK  status: ('A' for Active; 'I' for Inactive)
REMARK    1  A    between atoms: C_1  and  S_2
REMARK    2  A    between atoms: S_2  and  N_5
REMARK    3  A    between atoms: N_5  and  C_6
REMARK    4  A    between atoms: N_5  and  C_15
REMARK    5  A    between atoms: C_6  and  C_7
REMARK    6  A    between atoms: C_19  and  C_20
REMARK                            x       y       z     vdW  Elec       q    Type
REMARK                         _______ _______ _______ _____ _____    ______ ____
ROOT
ATOM      1  N   UNL     1      -0.467  11.778  20.243  0.00  0.00    +0.000 N 
ENDROOT
BRANCH   1   2
ATOM      2  C   UNL     1       0.328  10.618  19.805  0.00  0.00    +0.000 A 
ATOM      3  S   UNL     1       1.161  10.443  18.306  0.00  0.00    +0.000 S 
ATOM      4  C   UNL     1       1.736   8.878  18.718  0.00  0.00    +0.000 A 
ATOM      5  C   UNL     1       1.292   8.485  19.964  0.00  0.00    +0.000 A 
ATOM      6  C   UNL     1       0.455   9.480  20.565  0.00  0.00    +0.000 A 
ATOM      7  C   UNL     1       1.607   7.142  20.555  0.00  0.00    +0.000 C 
ATOM      8  C   UNL     1       2.728   6.411  19.811  0.00  0.00    +0.000 C 
ATOM      9  C   UNL     1       2.591   6.555  18.292  0.00  0.00    +0.000 C 
ATOM     10  C   UNL     1       2.626   8.032  17.838  0.00  0.00    +0.000 C 
BRANCH   6  11
ATOM     11  C   UNL     1      -0.193   9.275  21.814  0.00  0.00    +0.000 C 
ATOM     12  N   UNL     1      -0.644   9.153  22.886  0.00  0.00    +0.000 NA
ENDBRANCH   6  11
ENDBRANCH   1   2
BRANCH   1  14
ATOM     13  C   UNL     1      -0.133  14.051  21.892  0.00  0.00    +0.000 C 
ATOM     14  S   UNL     1       0.588  13.096  20.565  0.00  0.00    +0.000 S 
ATOM     15  O   UNL     1       0.625  13.942  19.389  0.00  0.00    +0.000 OA
ATOM     16  O   UNL     1       1.817  12.546  21.109  0.00  0.00    +0.000 OA
ENDBRANCH   1  14
BRANCH   1  17
ATOM     17  C   UNL     1      -1.697  12.039  19.426  0.00  0.00    +0.000 C 
BRANCH  17  18
ATOM     18  C   UNL     1      -3.008  12.341  20.158  0.00  0.00    +0.000 C 
ATOM     19  O   UNL     1      -3.068  12.362  21.389  0.00  0.00    +0.000 OA
ATOM     20  N   UNL     1      -4.147  12.571  19.361  0.00  0.00    +0.000 N 
ATOM     21  C   UNL     1      -5.424  12.886  20.021  0.00  0.00    +0.000 C 
ATOM     22  C   UNL     1      -6.254  11.615  20.224  0.00  0.00    +0.000 C 
ATOM     23  C   UNL     1      -6.427  10.856  18.905  0.00  0.00    +0.000 C 
ATOM     24  C   UNL     1      -5.074  10.618  18.230  0.00  0.00    +0.000 C 
ATOM     25  C   UNL     1      -4.317  11.937  18.052  0.00  0.00    +0.000 C 
ENDBRANCH  17  18
ENDBRANCH   1  17
TORSDOF 5
ENDMDL
MODEL 8
REMARK VINA RESULT:      -5.7      7.335      8.690
REMARK  Name = 
REMARK  6 active torsions:
REMARK  status: ('A' for Active; 'I' for Inactive)
REMARK    1  A    between atoms: C_1  and  S_2
REMARK    2  A    between atoms: S_2  and  N_5
REMARK    3  A    between atoms: N_5  and  C_6
REMARK    4  A    between atoms: N_5  and  C_15
REMARK    5  A    between atoms: C_6  and  C_7
REMARK    6  A    between atoms: C_19  and  C_20
REMARK                            x       y       z     vdW  Elec       q    Type
REMARK                         _______ _______ _______ _____ _____    ______ ____
ROOT
ATOM      1  N   UNL     1       0.157  11.556  20.677  0.00  0.00    +0.000 N 
ENDROOT
BRANCH   1   2
ATOM      2  C   UNL     1      -0.764  11.280  19.561  0.00  0.00    +0.000 A 
ATOM      3  S   UNL     1      -0.439  10.327  18.162  0.00  0.00    +0.000 S 
ATOM      4  C   UNL     1      -2.009  10.593  17.519  0.00  0.00    +0.000 A 
ATOM      5  C   UNL     1      -2.764  11.404  18.342  0.00  0.00    +0.000 A 
ATOM      6  C   UNL     1      -2.026  11.821  19.496  0.00  0.00    +0.000 A 
ATOM      7  C   UNL     1      -4.161  11.836  17.999  0.00  0.00    +0.000 C 
ATOM      8  C   UNL     1      -4.772  11.026  16.853  0.00  0.00    +0.000 C 
ATOM      9  C   UNL     1      -3.761  10.779  15.729  0.00  0.00    +0.000 C 
ATOM     10  C   UNL     1      -2.514  10.009  16.221  0.00  0.00    +0.000 C 
BRANCH   6  11
ATOM     11  C   UNL     1      -2.560  12.729  20.452  0.00  0.00    +0.000 C 
ATOM     12  N   UNL     1      -2.945  13.423  21.311  0.00  0.00    +0.000 NA
ENDBRANCH   6  11
ENDBRANCH   1   2
BRANCH   1  14
ATOM     13  C   UNL     1      -0.973  10.628  23.097  0.00  0.00    +0.000 C 
ATOM     14  S   UNL     1       0.143  10.223  21.762  0.00  0.00    +0.000 S 
ATOM     15  O   UNL     1       1.470  10.089  22.329  0.00  0.00    +0.000 OA
ATOM     16  O   UNL     1      -0.471   9.105  21.069  0.00  0.00    +0.000 OA
ENDBRANCH   1  14
BRANCH   1  17
ATOM     17  C   UNL     1       1.485  12.122  20.268  0.00  0.00    +0.000 C 
BRANCH  17  18
ATOM     18  C   UNL     1       1.933  13.449  20.888  0.00  0.00    +0.000 C 
ATOM     19  O   UNL     1       1.345  13.939  21.854  0.00  0.00    +0.000 OA
ATOM     20  N   UNL     1       3.032  14.094  20.288  0.00  0.00    +0.000 N 
ATOM     21  C   UNL     1       3.512  15.361  20.864  0.00  0.00    +0.000 C 
ATOM     22  C   UNL     1       2.869  16.555  20.150  0.00  0.00    +0.000 C 
ATOM     23  C   UNL     1       3.075  16.464  18.636  0.00  0.00    +0.000 C 
ATOM     24  C   UNL     1       2.624  15.101  18.104  0.00  0.00    +0.000 C 
ATOM     25  C   UNL     1       3.321  13.967  18.859  0.00  0.00    +0.000 C 
ENDBRANCH  17  18
ENDBRANCH   1  17
TORSDOF 5
ENDMDL
MODEL 9
REMARK VINA RESULT:      -5.7      3.457      5.544
REMARK  Name = 
REMARK  6 active torsions:
REMARK  status: ('A' for Active; 'I' for Inactive)
REMARK    1  A    between atoms: C_1  and  S_2
REMARK    2  A    between atoms: S_2  and  N_5
REMARK    3  A    between atoms: N_5  and  C_6
REMARK    4  A    between atoms: N_5  and  C_15
REMARK    5  A    between atoms: C_6  and  C_7
REMARK    6  A    between atoms: C_19  and  C_20
REMARK                            x       y       z     vdW  Elec       q    Type
REMARK                         _______ _______ _______ _____ _____    ______ ____
ROOT
ATOM      1  N   UNL     1       5.522   5.989  16.488  0.00  0.00    +0.000 N 
ENDROOT
BRANCH   1   2
ATOM      2  C   UNL     1       4.572   5.104  17.184  0.00  0.00    +0.000 A 
ATOM      3  S   UNL     1       4.582   3.380  17.192  0.00  0.00    +0.000 S 
ATOM      4  C   UNL     1       3.194   3.299  18.201  0.00  0.00    +0.000 A 
ATOM      5  C   UNL     1       2.719   4.556  18.515  0.00  0.00    +0.000 A 
ATOM      6  C   UNL     1       3.499   5.585  17.896  0.00  0.00    +0.000 A 
ATOM      7  C   UNL     1       1.488   4.778  19.345  0.00  0.00    +0.000 C 
ATOM      8  C   UNL     1       1.029   3.516  20.080  0.00  0.00    +0.000 C 
ATOM      9  C   UNL     1       1.126   2.272  19.191  0.00  0.00    +0.000 C 
ATOM     10  C   UNL     1       2.569   2.016  18.697  0.00  0.00    +0.000 C 
BRANCH   6  11
ATOM     11  C   UNL     1       3.160   6.963  18.000  0.00  0.00    +0.000 C 
ATOM     12  N   UNL     1       2.803   8.076  18.019  0.00  0.00    +0.000 NA
ENDBRANCH   6  11
ENDBRANCH   1   2
BRANCH   1  14
ATOM     13  C   UNL     1       6.852   5.753  18.972  0.00  0.00    +0.000 C 
ATOM     14  S   UNL     1       7.076   5.821  17.201  0.00  0.00    +0.000 S 
ATOM     15  O   UNL     1       7.840   7.016  16.904  0.00  0.00    +0.000 OA
ATOM     16  O   UNL     1       7.587   4.515  16.825  0.00  0.00    +0.000 OA
ENDBRANCH   1  14
BRANCH   1  17
ATOM     17  C   UNL     1       5.421   5.963  14.992  0.00  0.00    +0.000 C 
BRANCH  17  18
ATOM     18  C   UNL     1       6.448   5.142  14.207  0.00  0.00    +0.000 C 
ATOM     19  O   UNL     1       7.559   5.597  13.929  0.00  0.00    +0.000 OA
ATOM     20  N   UNL     1       6.056   3.853  13.797  0.00  0.00    +0.000 N 
ATOM     21  C   UNL     1       7.019   3.019  13.059  0.00  0.00    +0.000 C 
ATOM     22  C   UNL     1       6.822   3.177  11.548  0.00  0.00    +0.000 C 
ATOM     23  C   UNL     1       5.366   2.912  11.154  0.00  0.00    +0.000 C 
ATOM     24  C   UNL     1       4.409   3.753  12.001  0.00  0.00    +0.000 C 
ATOM     25  C   UNL     1       4.662   3.526  13.493  0.00  0.00    +0.000 C 
ENDBRANCH  17  18
ENDBRANCH   1  17
TORSDOF 5
ENDMDL
