MODEL 1
REMARK VINA RESULT:      -9.7      0.000      0.000
REMARK  Name = 
REMARK  6 active torsions:
REMARK  status: ('A' for Active; 'I' for Inactive)
REMARK    1  A    between atoms: C_2  and  C_12
REMARK    2  A    between atoms: N_3  and  C_4
REMARK    3  A    between atoms: C_4  and  C_5
REMARK    4  A    between atoms: N_15  and  S_16
REMARK    5  A    between atoms: S_16  and  C_19
REMARK    6  A    between atoms: C_22  and  N_23
REMARK                            x       y       z     vdW  Elec       q    Type
REMARK                         _______ _______ _______ _____ _____    ______ ____
ROOT
ATOM      1  C   UNL     1       7.883   5.698  18.185  0.00  0.00    +0.000 C 
ATOM      2  C   UNL     1       7.484   4.595  17.205  0.00  0.00    +0.000 C 
ATOM      3  C   UNL     1       5.977   4.396  17.093  0.00  0.00    +0.000 C 
ATOM      4  N   UNL     1       5.339   4.158  18.423  0.00  0.00    +0.000 NA
ATOM      5  C   UNL     1       5.692   5.252  19.402  0.00  0.00    +0.000 C 
ATOM      6  C   UNL     1       7.208   5.435  19.530  0.00  0.00    +0.000 C 
ENDROOT
BRANCH   1   8
ATOM      7  O   UNL     1       6.592   7.257  16.866  0.00  0.00    +0.000 OA
ATOM      8  C   UNL     1       7.506   7.081  17.664  0.00  0.00    +0.000 C 
ATOM      9  N   UNL     1       8.231   8.135  18.172  0.00  0.00    +0.000 N 
ATOM     10  H   UNL     1       9.093   7.980  18.675  0.00  0.00    +0.000 HD
BRANCH   9  11
ATOM     11  C   UNL     1       7.895   9.475  17.741  0.00  0.00    +0.000 C 
BRANCH  11  12
ATOM     12  C   UNL     1       8.759  10.520  18.397  0.00  0.00    +0.000 A 
ATOM     13  C   UNL     1       9.386  10.256  19.627  0.00  0.00    +0.000 A 
ATOM     14  C   UNL     1      10.167  11.233  20.243  0.00  0.00    +0.000 A 
ATOM     15  C   UNL     1      10.324  12.470  19.633  0.00  0.00    +0.000 A 
ATOM     16  F   UNL     1      11.070  13.410  20.229  0.00  0.00    +0.000 F 
ATOM     17  C   UNL     1       9.715  12.752  18.416  0.00  0.00    +0.000 A 
ATOM     18  C   UNL     1       8.930  11.778  17.797  0.00  0.00    +0.000 A 
ENDBRANCH  11  12
ENDBRANCH   9  11
ENDBRANCH   1   8
BRANCH   4  19
ATOM     19  S   UNL     1       3.607   3.982  18.236  0.00  0.00    +0.000 S 
ATOM     20  O   UNL     1       3.284   3.948  16.837  0.00  0.00    +0.000 OA
ATOM     21  O   UNL     1       3.204   2.891  19.125  0.00  0.00    +0.000 OA
BRANCH  19  22
ATOM     22  C   UNL     1       2.916   5.483  18.924  0.00  0.00    +0.000 A 
ATOM     23  C   UNL     1       2.290   5.440  20.165  0.00  0.00    +0.000 A 
ATOM     24  C   UNL     1       1.676   6.587  20.665  0.00  0.00    +0.000 A 
ATOM     25  C   UNL     1       1.704   7.794  19.959  0.00  0.00    +0.000 A 
ATOM     26  C   UNL     1       2.331   7.826  18.708  0.00  0.00    +0.000 A 
ATOM     27  C   UNL     1       2.932   6.675  18.188  0.00  0.00    +0.000 A 
BRANCH  25  28
ATOM     28  N   UNL     1       1.068   8.939  20.479  0.00  0.00    +0.000 N 
ATOM     29  C   UNL     1       1.130   9.275  21.878  0.00  0.00    +0.000 C 
ATOM     30  C   UNL     1       0.132  10.399  22.023  0.00  0.00    +0.000 C 
ATOM     31  C   UNL     1       0.178  11.100  20.678  0.00  0.00    +0.000 C 
ATOM     32  C   UNL     1       0.566  10.004  19.718  0.00  0.00    +0.000 C 
ATOM     33  O   UNL     1       0.472  10.115  18.509  0.00  0.00    +0.000 OA
ENDBRANCH  25  28
ENDBRANCH  19  22
ENDBRANCH   4  19
TORSDOF 6
ENDMDL
MODEL 2
REMARK VINA RESULT:      -9.7      0.785      1.292
REMARK  Name = 
REMARK  6 active torsions:
REMARK  status: ('A' for Active; 'I' for Inactive)
REMARK    1  A    between atoms: C_2  and  C_12
REMARK    2  A    between atoms: N_3  and  C_4
REMARK    3  A    between atoms: C_4  and  C_5
REMARK    4  A    between atoms: N_15  and  S_16
REMARK    5  A    between atoms: S_16  and  C_19
REMARK    6  A    between atoms: C_22  and  N_23
REMARK                            x       y       z     vdW  Elec       q    Type
REMARK                         _______ _______ _______ _____ _____    ______ ____
ROOT
ATOM      1  C   UNL     1       7.880   5.706  18.244  0.00  0.00    +0.000 C 
ATOM      2  C   UNL     1       7.481   4.585  17.283  0.00  0.00    +0.000 C 
ATOM      3  C   UNL     1       5.973   4.414  17.142  0.00  0.00    +0.000 C 
ATOM      4  N   UNL     1       5.300   4.224  18.462  0.00  0.00    +0.000 NA
ATOM      5  C   UNL     1       5.652   5.336  19.420  0.00  0.00    +0.000 C 
ATOM      6  C   UNL     1       7.169   5.492  19.579  0.00  0.00    +0.000 C 
ENDROOT
BRANCH   1   8
ATOM      7  O   UNL     1       6.691   7.248  16.813  0.00  0.00    +0.000 OA
ATOM      8  C   UNL     1       7.543   7.082  17.678  0.00  0.00    +0.000 C 
ATOM      9  N   UNL     1       8.228   8.143  18.225  0.00  0.00    +0.000 N 
ATOM     10  H   UNL     1       9.051   7.995  18.793  0.00  0.00    +0.000 HD
BRANCH   9  11
ATOM     11  C   UNL     1       7.927   9.477  17.754  0.00  0.00    +0.000 C 
BRANCH  11  12
ATOM     12  C   UNL     1       8.789  10.524  18.408  0.00  0.00    +0.000 A 
ATOM     13  C   UNL     1       8.965  11.780  17.803  0.00  0.00    +0.000 A 
ATOM     14  C   UNL     1       9.781  12.741  18.399  0.00  0.00    +0.000 A 
ATOM     15  C   UNL     1      10.419  12.449  19.597  0.00  0.00    +0.000 A 
ATOM     16  F   UNL     1      11.208  13.371  20.166  0.00  0.00    +0.000 F 
ATOM     17  C   UNL     1      10.258  11.214  20.214  0.00  0.00    +0.000 A 
ATOM     18  C   UNL     1       9.444  10.250  19.619  0.00  0.00    +0.000 A 
ENDBRANCH  11  12
ENDBRANCH   9  11
ENDBRANCH   1   8
BRANCH   4  19
ATOM     19  S   UNL     1       3.569   4.078  18.239  0.00  0.00    +0.000 S 
ATOM     20  O   UNL     1       3.283   3.942  16.838  0.00  0.00    +0.000 OA
ATOM     21  O   UNL     1       3.112   3.071  19.199  0.00  0.00    +0.000 OA
BRANCH  19  22
ATOM     22  C   UNL     1       2.901   5.645  18.788  0.00  0.00    +0.000 A 
ATOM     23  C   UNL     1       2.348   5.744  20.060  0.00  0.00    +0.000 A 
ATOM     24  C   UNL     1       1.750   6.938  20.459  0.00  0.00    +0.000 A 
ATOM     25  C   UNL     1       1.724   8.055  19.617  0.00  0.00    +0.000 A 
ATOM     26  C   UNL     1       2.278   7.944  18.336  0.00  0.00    +0.000 A 
ATOM     27  C   UNL     1       2.861   6.744  17.918  0.00  0.00    +0.000 A 
BRANCH  25  28
ATOM     28  N   UNL     1       1.105   9.250  20.037  0.00  0.00    +0.000 N 
ATOM     29  C   UNL     1       1.302  10.495  19.342  0.00  0.00    +0.000 C 
ATOM     30  C   UNL     1       0.676  11.521  20.257  0.00  0.00    +0.000 C 
ATOM     31  C   UNL     1      -0.446  10.761  20.940  0.00  0.00    +0.000 C 
ATOM     32  C   UNL     1       0.046   9.335  20.952  0.00  0.00    +0.000 C 
ATOM     33  O   UNL     1      -0.464   8.461  21.629  0.00  0.00    +0.000 OA
ENDBRANCH  25  28
ENDBRANCH  19  22
ENDBRANCH   4  19
TORSDOF 6
ENDMDL
MODEL 3
REMARK VINA RESULT:      -9.6      0.224      1.228
REMARK  Name = 
REMARK  6 active torsions:
REMARK  status: ('A' for Active; 'I' for Inactive)
REMARK    1  A    between atoms: C_2  and  C_12
REMARK    2  A    between atoms: N_3  and  C_4
REMARK    3  A    between atoms: C_4  and  C_5
REMARK    4  A    between atoms: N_15  and  S_16
REMARK    5  A    between atoms: S_16  and  C_19
REMARK    6  A    between atoms: C_22  and  N_23
REMARK                            x       y       z     vdW  Elec       q    Type
REMARK                         _______ _______ _______ _____ _____    ______ ____
ROOT
ATOM      1  C   UNL     1       7.890   5.732  18.280  0.00  0.00    +0.000 C 
ATOM      2  C   UNL     1       7.601   4.622  17.269  0.00  0.00    +0.000 C 
ATOM      3  C   UNL     1       6.114   4.378  17.042  0.00  0.00    +0.000 C 
ATOM      4  N   UNL     1       5.383   4.115  18.319  0.00  0.00    +0.000 NA
ATOM      5  C   UNL     1       5.626   5.215  19.324  0.00  0.00    +0.000 C 
ATOM      6  C   UNL     1       7.122   5.443  19.568  0.00  0.00    +0.000 C 
ENDROOT
BRANCH   1   8
ATOM      7  O   UNL     1       6.578   7.271  16.957  0.00  0.00    +0.000 OA
ATOM      8  C   UNL     1       7.511   7.105  17.733  0.00  0.00    +0.000 C 
ATOM      9  N   UNL     1       8.261   8.164  18.194  0.00  0.00    +0.000 N 
ATOM     10  H   UNL     1       9.135   8.014  18.677  0.00  0.00    +0.000 HD
BRANCH   9  11
ATOM     11  C   UNL     1       7.926   9.496  17.738  0.00  0.00    +0.000 C 
BRANCH  11  12
ATOM     12  C   UNL     1       8.766  10.556  18.402  0.00  0.00    +0.000 A 
ATOM     13  C   UNL     1       8.949  11.807  17.788  0.00  0.00    +0.000 A 
ATOM     14  C   UNL     1       9.744  12.779  18.394  0.00  0.00    +0.000 A 
ATOM     15  C   UNL     1      10.355  12.504  19.609  0.00  0.00    +0.000 A 
ATOM     16  F   UNL     1      11.125  13.436  20.187  0.00  0.00    +0.000 F 
ATOM     17  C   UNL     1      10.188  11.274  20.235  0.00  0.00    +0.000 A 
ATOM     18  C   UNL     1       9.394  10.298  19.631  0.00  0.00    +0.000 A 
ENDBRANCH  11  12
ENDBRANCH   9  11
ENDBRANCH   1   8
BRANCH   4  19
ATOM     19  S   UNL     1       3.677   3.888  17.998  0.00  0.00    +0.000 S 
ATOM     20  O   UNL     1       3.450   3.946  16.581  0.00  0.00    +0.000 OA
ATOM     21  O   UNL     1       3.262   2.719  18.776  0.00  0.00    +0.000 OA
BRANCH  19  22
ATOM     22  C   UNL     1       2.876   5.306  18.742  0.00  0.00    +0.000 A 
ATOM     23  C   UNL     1       2.953   6.542  18.111  0.00  0.00    +0.000 A 
ATOM     24  C   UNL     1       2.405   7.665  18.729  0.00  0.00    +0.000 A 
ATOM     25  C   UNL     1       1.748   7.569  19.961  0.00  0.00    +0.000 A 
ATOM     26  C   UNL     1       1.682   6.321  20.591  0.00  0.00    +0.000 A 
ATOM     27  C   UNL     1       2.247   5.192  19.989  0.00  0.00    +0.000 A 
BRANCH  25  28
ATOM     28  N   UNL     1       1.210   8.719  20.572  0.00  0.00    +0.000 N 
ATOM     29  C   UNL     1       1.300   8.939  21.992  0.00  0.00    +0.000 C 
ATOM     30  C   UNL     1       0.401  10.129  22.230  0.00  0.00    +0.000 C 
ATOM     31  C   UNL     1       0.506  10.926  20.943  0.00  0.00    +0.000 C 
ATOM     32  C   UNL     1       0.801   9.879  19.899  0.00  0.00    +0.000 C 
ATOM     33  O   UNL     1       0.717  10.091  18.702  0.00  0.00    +0.000 OA
ENDBRANCH  25  28
ENDBRANCH  19  22
ENDBRANCH   4  19
TORSDOF 6
ENDMDL
MODEL 4
REMARK VINA RESULT:      -8.8      0.959      1.514
REMARK  Name = 
REMARK  6 active torsions:
REMARK  status: ('A' for Active; 'I' for Inactive)
REMARK    1  A    between atoms: C_2  and  C_12
REMARK    2  A    between atoms: N_3  and  C_4
REMARK    3  A    between atoms: C_4  and  C_5
REMARK    4  A    between atoms: N_15  and  S_16
REMARK    5  A    between atoms: S_16  and  C_19
REMARK    6  A    between atoms: C_22  and  N_23
REMARK                            x       y       z     vdW  Elec       q    Type
REMARK                         _______ _______ _______ _____ _____    ______ ____
ROOT
ATOM      1  C   UNL     1       7.638   5.477  17.676  0.00  0.00    +0.000 C 
ATOM      2  C   UNL     1       7.031   4.432  16.739  0.00  0.00    +0.000 C 
ATOM      3  C   UNL     1       5.538   4.215  16.957  0.00  0.00    +0.000 C 
ATOM      4  N   UNL     1       5.217   3.883  18.377  0.00  0.00    +0.000 NA
ATOM      5  C   UNL     1       5.778   4.918  19.322  0.00  0.00    +0.000 C 
ATOM      6  C   UNL     1       7.284   5.119  19.117  0.00  0.00    +0.000 C 
ENDROOT
BRANCH   1   8
ATOM      7  O   UNL     1       6.140   7.092  16.682  0.00  0.00    +0.000 OA
ATOM      8  C   UNL     1       7.150   6.884  17.344  0.00  0.00    +0.000 C 
ATOM      9  N   UNL     1       7.893   7.919  17.866  0.00  0.00    +0.000 N 
ATOM     10  H   UNL     1       8.816   7.758  18.246  0.00  0.00    +0.000 HD
BRANCH   9  11
ATOM     11  C   UNL     1       7.459   9.276  17.615  0.00  0.00    +0.000 C 
BRANCH  11  12
ATOM     12  C   UNL     1       8.456  10.295  18.102  0.00  0.00    +0.000 A 
ATOM     13  C   UNL     1       9.399   9.955  19.086  0.00  0.00    +0.000 A 
ATOM     14  C   UNL     1      10.308  10.905  19.551  0.00  0.00    +0.000 A 
ATOM     15  C   UNL     1      10.275  12.193  19.033  0.00  0.00    +0.000 A 
ATOM     16  F   UNL     1      11.144  13.108  19.484  0.00  0.00    +0.000 F 
ATOM     17  C   UNL     1       9.352  12.551  18.057  0.00  0.00    +0.000 A 
ATOM     18  C   UNL     1       8.441  11.603  17.592  0.00  0.00    +0.000 A 
ENDBRANCH  11  12
ENDBRANCH   9  11
ENDBRANCH   1   8
BRANCH   4  19
ATOM     19  S   UNL     1       3.487   3.690  18.572  0.00  0.00    +0.000 S 
ATOM     20  O   UNL     1       2.939   3.107  17.380  0.00  0.00    +0.000 OA
ATOM     21  O   UNL     1       3.286   3.057  19.877  0.00  0.00    +0.000 OA
BRANCH  19  22
ATOM     22  C   UNL     1       2.852   5.358  18.712  0.00  0.00    +0.000 A 
ATOM     23  C   UNL     1       2.891   6.198  17.604  0.00  0.00    +0.000 A 
ATOM     24  C   UNL     1       2.477   7.523  17.732  0.00  0.00    +0.000 A 
ATOM     25  C   UNL     1       1.989   8.019  18.946  0.00  0.00    +0.000 A 
ATOM     26  C   UNL     1       1.960   7.167  20.056  0.00  0.00    +0.000 A 
ATOM     27  C   UNL     1       2.393   5.842  19.944  0.00  0.00    +0.000 A 
BRANCH  25  28
ATOM     28  N   UNL     1       1.585   9.365  19.054  0.00  0.00    +0.000 N 
ATOM     29  C   UNL     1       1.994  10.362  18.100  0.00  0.00    +0.000 C 
ATOM     30  C   UNL     1       1.553  11.663  18.727  0.00  0.00    +0.000 C 
ATOM     31  C   UNL     1       0.316  11.282  19.519  0.00  0.00    +0.000 C 
ATOM     32  C   UNL     1       0.555   9.837  19.880  0.00  0.00    +0.000 C 
ATOM     33  O   UNL     1      -0.099   9.244  20.719  0.00  0.00    +0.000 OA
ENDBRANCH  25  28
ENDBRANCH  19  22
ENDBRANCH   4  19
TORSDOF 6
ENDMDL
MODEL 5
REMARK VINA RESULT:      -8.7      5.348     10.295
REMARK  Name = 
REMARK  6 active torsions:
REMARK  status: ('A' for Active; 'I' for Inactive)
REMARK    1  A    between atoms: C_2  and  C_12
REMARK    2  A    between atoms: N_3  and  C_4
REMARK    3  A    between atoms: C_4  and  C_5
REMARK    4  A    between atoms: N_15  and  S_16
REMARK    5  A    between atoms: S_16  and  C_19
REMARK    6  A    between atoms: C_22  and  N_23
REMARK                            x       y       z     vdW  Elec       q    Type
REMARK                         _______ _______ _______ _____ _____    ______ ____
ROOT
ATOM      1  C   UNL     1      -2.219  11.950  17.799  0.00  0.00    +0.000 C 
ATOM      2  C   UNL     1      -1.611  10.588  17.466  0.00  0.00    +0.000 C 
ATOM      3  C   UNL     1      -1.084   9.843  18.687  0.00  0.00    +0.000 C 
ATOM      4  N   UNL     1      -0.113  10.662  19.473  0.00  0.00    +0.000 NA
ATOM      5  C   UNL     1      -0.702  12.002  19.843  0.00  0.00    +0.000 C 
ATOM      6  C   UNL     1      -1.211  12.760  18.611  0.00  0.00    +0.000 C 
ENDROOT
BRANCH   1   8
ATOM      7  O   UNL     1      -4.233  10.810  18.495  0.00  0.00    +0.000 OA
ATOM      8  C   UNL     1      -3.529  11.811  18.567  0.00  0.00    +0.000 C 
ATOM      9  N   UNL     1      -3.864  12.867  19.384  0.00  0.00    +0.000 N 
ATOM     10  H   UNL     1      -3.394  13.758  19.304  0.00  0.00    +0.000 HD
BRANCH   9  11
ATOM     11  C   UNL     1      -5.078  12.778  20.166  0.00  0.00    +0.000 C 
BRANCH  11  12
ATOM     12  C   UNL     1      -4.805  12.752  21.647  0.00  0.00    +0.000 A 
ATOM     13  C   UNL     1      -3.498  12.566  22.127  0.00  0.00    +0.000 A 
ATOM     14  C   UNL     1      -3.250  12.520  23.498  0.00  0.00    +0.000 A 
ATOM     15  C   UNL     1      -4.306  12.661  24.389  0.00  0.00    +0.000 A 
ATOM     16  F   UNL     1      -4.068  12.611  25.707  0.00  0.00    +0.000 F 
ATOM     17  C   UNL     1      -5.607  12.849  23.937  0.00  0.00    +0.000 A 
ATOM     18  C   UNL     1      -5.858  12.892  22.565  0.00  0.00    +0.000 A 
ENDBRANCH  11  12
ENDBRANCH   9  11
ENDBRANCH   1   8
BRANCH   4  19
ATOM     19  S   UNL     1       0.421   9.772  20.883  0.00  0.00    +0.000 S 
ATOM     20  O   UNL     1       1.335  10.583  21.637  0.00  0.00    +0.000 OA
ATOM     21  O   UNL     1      -0.785   9.223  21.507  0.00  0.00    +0.000 OA
BRANCH  19  22
ATOM     22  C   UNL     1       1.334   8.379  20.228  0.00  0.00    +0.000 A 
ATOM     23  C   UNL     1       1.960   8.493  18.991  0.00  0.00    +0.000 A 
ATOM     24  C   UNL     1       2.599   7.385  18.438  0.00  0.00    +0.000 A 
ATOM     25  C   UNL     1       2.654   6.163  19.118  0.00  0.00    +0.000 A 
ATOM     26  C   UNL     1       2.016   6.056  20.360  0.00  0.00    +0.000 A 
ATOM     27  C   UNL     1       1.354   7.157  20.913  0.00  0.00    +0.000 A 
BRANCH  25  28
ATOM     28  N   UNL     1       3.297   5.052  18.536  0.00  0.00    +0.000 N 
ATOM     29  C   UNL     1       4.630   4.660  18.913  0.00  0.00    +0.000 C 
ATOM     30  C   UNL     1       5.000   3.613  17.891  0.00  0.00    +0.000 C 
ATOM     31  C   UNL     1       3.675   2.961  17.543  0.00  0.00    +0.000 C 
ATOM     32  C   UNL     1       2.667   4.059  17.774  0.00  0.00    +0.000 C 
ATOM     33  O   UNL     1       1.518   4.001  17.375  0.00  0.00    +0.000 OA
ENDBRANCH  25  28
ENDBRANCH  19  22
ENDBRANCH   4  19
TORSDOF 6
ENDMDL
MODEL 6
REMARK VINA RESULT:      -8.3      1.752      2.283
REMARK  Name = 
REMARK  6 active torsions:
REMARK  status: ('A' for Active; 'I' for Inactive)
REMARK    1  A    between atoms: C_2  and  C_12
REMARK    2  A    between atoms: N_3  and  C_4
REMARK    3  A    between atoms: C_4  and  C_5
REMARK    4  A    between atoms: N_15  and  S_16
REMARK    5  A    between atoms: S_16  and  C_19
REMARK    6  A    between atoms: C_22  and  N_23
REMARK                            x       y       z     vdW  Elec       q    Type
REMARK                         _______ _______ _______ _____ _____    ______ ____
ROOT
ATOM      1  C   UNL     1       6.599   5.876  16.448  0.00  0.00    +0.000 C 
ATOM      2  C   UNL     1       5.438   6.840  16.203  0.00  0.00    +0.000 C 
ATOM      3  C   UNL     1       4.383   6.813  17.302  0.00  0.00    +0.000 C 
ATOM      4  N   UNL     1       3.863   5.434  17.552  0.00  0.00    +0.000 NA
ATOM      5  C   UNL     1       4.989   4.468  17.829  0.00  0.00    +0.000 C 
ATOM      6  C   UNL     1       6.038   4.480  16.711  0.00  0.00    +0.000 C 
ENDROOT
BRANCH   1   8
ATOM      7  O   UNL     1       7.931   5.540  18.436  0.00  0.00    +0.000 OA
ATOM      8  C   UNL     1       7.470   6.326  17.617  0.00  0.00    +0.000 C 
ATOM      9  N   UNL     1       7.745   7.674  17.679  0.00  0.00    +0.000 N 
ATOM     10  H   UNL     1       7.222   8.339  17.127  0.00  0.00    +0.000 HD
BRANCH   9  11
ATOM     11  C   UNL     1       8.595   8.156  18.746  0.00  0.00    +0.000 C 
BRANCH  11  12
ATOM     12  C   UNL     1       8.801   9.647  18.684  0.00  0.00    +0.000 A 
ATOM     13  C   UNL     1       9.548  10.304  19.676  0.00  0.00    +0.000 A 
ATOM     14  C   UNL     1       9.719  11.687  19.630  0.00  0.00    +0.000 A 
ATOM     15  C   UNL     1       9.146  12.413  18.595  0.00  0.00    +0.000 A 
ATOM     16  F   UNL     1       9.305  13.743  18.555  0.00  0.00    +0.000 F 
ATOM     17  C   UNL     1       8.404  11.784  17.602  0.00  0.00    +0.000 A 
ATOM     18  C   UNL     1       8.229  10.401  17.647  0.00  0.00    +0.000 A 
ENDBRANCH  11  12
ENDBRANCH   9  11
ENDBRANCH   1   8
BRANCH   4  19
ATOM     19  S   UNL     1       2.690   5.461  18.852  0.00  0.00    +0.000 S 
ATOM     20  O   UNL     1       1.563   4.648  18.489  0.00  0.00    +0.000 OA
ATOM     21  O   UNL     1       3.435   5.203  20.086  0.00  0.00    +0.000 OA
BRANCH  19  22
ATOM     22  C   UNL     1       2.137   7.161  18.937  0.00  0.00    +0.000 A 
ATOM     23  C   UNL     1       1.773   7.700  20.166  0.00  0.00    +0.000 A 
ATOM     24  C   UNL     1       1.261   8.995  20.224  0.00  0.00    +0.000 A 
ATOM     25  C   UNL     1       1.137   9.781  19.073  0.00  0.00    +0.000 A 
ATOM     26  C   UNL     1       1.501   9.227  17.840  0.00  0.00    +0.000 A 
ATOM     27  C   UNL     1       1.996   7.921  17.768  0.00  0.00    +0.000 A 
BRANCH  25  28
ATOM     28  N   UNL     1       0.608  11.085  19.154  0.00  0.00    +0.000 N 
ATOM     29  C   UNL     1       1.450  12.252  19.119  0.00  0.00    +0.000 C 
ATOM     30  C   UNL     1       0.515  13.382  19.477  0.00  0.00    +0.000 C 
ATOM     31  C   UNL     1      -0.828  12.927  18.935  0.00  0.00    +0.000 C 
ATOM     32  C   UNL     1      -0.743  11.422  18.991  0.00  0.00    +0.000 C 
ATOM     33  O   UNL     1      -1.713  10.696  18.866  0.00  0.00    +0.000 OA
ENDBRANCH  25  28
ENDBRANCH  19  22
ENDBRANCH   4  19
TORSDOF 6
ENDMDL
MODEL 7
REMARK VINA RESULT:      -8.3      5.987      9.504
REMARK  Name = 
REMARK  6 active torsions:
REMARK  status: ('A' for Active; 'I' for Inactive)
REMARK    1  A    between atoms: C_2  and  C_12
REMARK    2  A    between atoms: N_3  and  C_4
REMARK    3  A    between atoms: C_4  and  C_5
REMARK    4  A    between atoms: N_15  and  S_16
REMARK    5  A    between atoms: S_16  and  C_19
REMARK    6  A    between atoms: C_22  and  N_23
REMARK                            x       y       z     vdW  Elec       q    Type
REMARK                         _______ _______ _______ _____ _____    ______ ____
ROOT
ATOM      1  C   UNL     1       0.750   9.822  18.016  0.00  0.00    +0.000 C 
ATOM      2  C   UNL     1       1.672  11.040  17.954  0.00  0.00    +0.000 C 
ATOM      3  C   UNL     1       1.555  11.953  19.169  0.00  0.00    +0.000 C 
ATOM      4  N   UNL     1       0.146  12.386  19.416  0.00  0.00    +0.000 NA
ATOM      5  C   UNL     1      -0.781  11.199  19.513  0.00  0.00    +0.000 C 
ATOM      6  C   UNL     1      -0.678  10.293  18.281  0.00  0.00    +0.000 C 
ENDROOT
BRANCH   1   8
ATOM      7  O   UNL     1       0.642   8.764  20.186  0.00  0.00    +0.000 OA
ATOM      8  C   UNL     1       1.190   8.834  19.092  0.00  0.00    +0.000 C 
ATOM      9  N   UNL     1       2.223   7.991  18.749  0.00  0.00    +0.000 N 
ATOM     10  H   UNL     1       2.793   8.168  17.935  0.00  0.00    +0.000 HD
BRANCH   9  11
ATOM     11  C   UNL     1       2.661   7.008  19.716  0.00  0.00    +0.000 C 
BRANCH  11  12
ATOM     12  C   UNL     1       2.082   5.643  19.449  0.00  0.00    +0.000 A 
ATOM     13  C   UNL     1       1.650   4.833  20.512  0.00  0.00    +0.000 A 
ATOM     14  C   UNL     1       1.134   3.561  20.264  0.00  0.00    +0.000 A 
ATOM     15  C   UNL     1       1.049   3.100  18.957  0.00  0.00    +0.000 A 
ATOM     16  F   UNL     1       0.559   1.876  18.720  0.00  0.00    +0.000 F 
ATOM     17  C   UNL     1       1.468   3.886  17.890  0.00  0.00    +0.000 A 
ATOM     18  C   UNL     1       1.987   5.158  18.135  0.00  0.00    +0.000 A 
ENDBRANCH  11  12
ENDBRANCH   9  11
ENDBRANCH   1   8
BRANCH   4  19
ATOM     19  S   UNL     1       0.069  13.394  20.846  0.00  0.00    +0.000 S 
ATOM     20  O   UNL     1       0.913  12.835  21.865  0.00  0.00    +0.000 OA
ATOM     21  O   UNL     1       0.258  14.773  20.390  0.00  0.00    +0.000 OA
BRANCH  19  22
ATOM     22  C   UNL     1      -1.627  13.270  21.405  0.00  0.00    +0.000 A 
ATOM     23  C   UNL     1      -2.615  14.000  20.755  0.00  0.00    +0.000 A 
ATOM     24  C   UNL     1      -3.922  13.973  21.240  0.00  0.00    +0.000 A 
ATOM     25  C   UNL     1      -4.269  13.197  22.352  0.00  0.00    +0.000 A 
ATOM     26  C   UNL     1      -3.265  12.470  23.003  0.00  0.00    +0.000 A 
ATOM     27  C   UNL     1      -1.947  12.508  22.536  0.00  0.00    +0.000 A 
BRANCH  25  28
ATOM     28  N   UNL     1      -5.594  13.192  22.831  0.00  0.00    +0.000 N 
ATOM     29  C   UNL     1      -6.082  14.205  23.730  0.00  0.00    +0.000 C 
ATOM     30  C   UNL     1      -7.430  13.681  24.165  0.00  0.00    +0.000 C 
ATOM     31  C   UNL     1      -7.916  12.890  22.965  0.00  0.00    +0.000 C 
ATOM     32  C   UNL     1      -6.642  12.424  22.305  0.00  0.00    +0.000 C 
ATOM     33  O   UNL     1      -6.615  11.560  21.448  0.00  0.00    +0.000 OA
ENDBRANCH  25  28
ENDBRANCH  19  22
ENDBRANCH   4  19
TORSDOF 6
ENDMDL
MODEL 8
REMARK VINA RESULT:      -8.2      5.211      9.995
REMARK  Name = 
REMARK  6 active torsions:
REMARK  status: ('A' for Active; 'I' for Inactive)
REMARK    1  A    between atoms: C_2  and  C_12
REMARK    2  A    between atoms: N_3  and  C_4
REMARK    3  A    between atoms: C_4  and  C_5
REMARK    4  A    between atoms: N_15  and  S_16
REMARK    5  A    between atoms: S_16  and  C_19
REMARK    6  A    between atoms: C_22  and  N_23
REMARK                            x       y       z     vdW  Elec       q    Type
REMARK                         _______ _______ _______ _____ _____    ______ ____
ROOT
ATOM      1  C   UNL     1       0.627  14.640  19.078  0.00  0.00    +0.000 C 
ATOM      2  C   UNL     1      -0.076  13.536  18.288  0.00  0.00    +0.000 C 
ATOM      3  C   UNL     1      -0.364  12.287  19.112  0.00  0.00    +0.000 C 
ATOM      4  N   UNL     1       0.865  11.747  19.768  0.00  0.00    +0.000 NA
ATOM      5  C   UNL     1       1.561  12.810  20.582  0.00  0.00    +0.000 C 
ATOM      6  C   UNL     1       1.871  14.057  19.746  0.00  0.00    +0.000 C 
ENDROOT
BRANCH   1   8
ATOM      7  O   UNL     1       0.125  15.950  21.046  0.00  0.00    +0.000 OA
ATOM      8  C   UNL     1      -0.294  15.260  20.124  0.00  0.00    +0.000 C 
ATOM      9  N   UNL     1      -1.641  15.031  19.952  0.00  0.00    +0.000 N 
ATOM     10  H   UNL     1      -1.972  14.320  19.316  0.00  0.00    +0.000 HD
BRANCH   9  11
ATOM     11  C   UNL     1      -2.567  15.624  20.893  0.00  0.00    +0.000 C 
BRANCH  11  12
ATOM     12  C   UNL     1      -3.023  14.644  21.942  0.00  0.00    +0.000 A 
ATOM     13  C   UNL     1      -3.990  13.672  21.636  0.00  0.00    +0.000 A 
ATOM     14  C   UNL     1      -4.427  12.779  22.615  0.00  0.00    +0.000 A 
ATOM     15  C   UNL     1      -3.897  12.857  23.896  0.00  0.00    +0.000 A 
ATOM     16  F   UNL     1      -4.321  12.003  24.838  0.00  0.00    +0.000 F 
ATOM     17  C   UNL     1      -2.938  13.809  24.221  0.00  0.00    +0.000 A 
ATOM     18  C   UNL     1      -2.501  14.705  23.244  0.00  0.00    +0.000 A 
ENDBRANCH  11  12
ENDBRANCH   9  11
ENDBRANCH   1   8
BRANCH   4  19
ATOM     19  S   UNL     1       0.463  10.343  20.733  0.00  0.00    +0.000 S 
ATOM     20  O   UNL     1       0.996  10.509  22.056  0.00  0.00    +0.000 OA
ATOM     21  O   UNL     1      -0.965  10.094  20.527  0.00  0.00    +0.000 OA
BRANCH  19  22
ATOM     22  C   UNL     1       1.334   8.986  19.955  0.00  0.00    +0.000 A 
ATOM     23  C   UNL     1       1.658   9.068  18.606  0.00  0.00    +0.000 A 
ATOM     24  C   UNL     1       2.259   7.979  17.976  0.00  0.00    +0.000 A 
ATOM     25  C   UNL     1       2.575   6.813  18.682  0.00  0.00    +0.000 A 
ATOM     26  C   UNL     1       2.240   6.739  20.039  0.00  0.00    +0.000 A 
ATOM     27  C   UNL     1       1.617   7.818  20.675  0.00  0.00    +0.000 A 
BRANCH  25  28
ATOM     28  N   UNL     1       3.174   5.721  18.023  0.00  0.00    +0.000 N 
ATOM     29  C   UNL     1       2.438   4.525  17.708  0.00  0.00    +0.000 C 
ATOM     30  C   UNL     1       3.502   3.557  17.249  0.00  0.00    +0.000 C 
ATOM     31  C   UNL     1       4.555   4.449  16.616  0.00  0.00    +0.000 C 
ATOM     32  C   UNL     1       4.408   5.754  17.358  0.00  0.00    +0.000 C 
ATOM     33  O   UNL     1       5.236   6.646  17.306  0.00  0.00    +0.000 OA
ENDBRANCH  25  28
ENDBRANCH  19  22
ENDBRANCH   4  19
TORSDOF 6
ENDMDL
MODEL 9
REMARK VINA RESULT:      -8.2      1.698      2.227
REMARK  Name = 
REMARK  6 active torsions:
REMARK  status: ('A' for Active; 'I' for Inactive)
REMARK    1  A    between atoms: C_2  and  C_12
REMARK    2  A    between atoms: N_3  and  C_4
REMARK    3  A    between atoms: C_4  and  C_5
REMARK    4  A    between atoms: N_15  and  S_16
REMARK    5  A    between atoms: S_16  and  C_19
REMARK    6  A    between atoms: C_22  and  N_23
REMARK                            x       y       z     vdW  Elec       q    Type
REMARK                         _______ _______ _______ _____ _____    ______ ____
ROOT
ATOM      1  C   UNL     1       6.479   5.969  16.350  0.00  0.00    +0.000 C 
ATOM      2  C   UNL     1       5.313   6.945  16.192  0.00  0.00    +0.000 C 
ATOM      3  C   UNL     1       4.293   6.861  17.322  0.00  0.00    +0.000 C 
ATOM      4  N   UNL     1       3.780   5.472  17.519  0.00  0.00    +0.000 NA
ATOM      5  C   UNL     1       4.913   4.493  17.710  0.00  0.00    +0.000 C 
ATOM      6  C   UNL     1       5.926   4.562  16.561  0.00  0.00    +0.000 C 
ENDROOT
BRANCH   1   8
ATOM      7  O   UNL     1       7.878   5.533  18.272  0.00  0.00    +0.000 OA
ATOM      8  C   UNL     1       7.389   6.360  17.511  0.00  0.00    +0.000 C 
ATOM      9  N   UNL     1       7.664   7.703  17.635  0.00  0.00    +0.000 N 
ATOM     10  H   UNL     1       7.123   8.395  17.137  0.00  0.00    +0.000 HD
BRANCH   9  11
ATOM     11  C   UNL     1       8.549   8.131  18.697  0.00  0.00    +0.000 C 
BRANCH  11  12
ATOM     12  C   UNL     1       8.794   9.617  18.674  0.00  0.00    +0.000 A 
ATOM     13  C   UNL     1       9.530  10.233  19.700  0.00  0.00    +0.000 A 
ATOM     14  C   UNL     1       9.737  11.612  19.689  0.00  0.00    +0.000 A 
ATOM     15  C   UNL     1       9.211  12.375  18.655  0.00  0.00    +0.000 A 
ATOM     16  F   UNL     1       9.406  13.700  18.648  0.00  0.00    +0.000 F 
ATOM     17  C   UNL     1       8.482  11.786  17.629  0.00  0.00    +0.000 A 
ATOM     18  C   UNL     1       8.271  10.407  17.638  0.00  0.00    +0.000 A 
ENDBRANCH  11  12
ENDBRANCH   9  11
ENDBRANCH   1   8
BRANCH   4  19
ATOM     19  S   UNL     1       2.650   5.432  18.856  0.00  0.00    +0.000 S 
ATOM     20  O   UNL     1       1.520   4.622  18.497  0.00  0.00    +0.000 OA
ATOM     21  O   UNL     1       3.437   5.134  20.054  0.00  0.00    +0.000 OA
BRANCH  19  22
ATOM     22  C   UNL     1       2.083   7.122  19.028  0.00  0.00    +0.000 A 
ATOM     23  C   UNL     1       1.779   7.615  20.292  0.00  0.00    +0.000 A 
ATOM     24  C   UNL     1       1.256   8.900  20.421  0.00  0.00    +0.000 A 
ATOM     25  C   UNL     1       1.061   9.722  19.305  0.00  0.00    +0.000 A 
ATOM     26  C   UNL     1       1.364   9.214  18.036  0.00  0.00    +0.000 A 
ATOM     27  C   UNL     1       1.870   7.918  17.894  0.00  0.00    +0.000 A 
BRANCH  25  28
ATOM     28  N   UNL     1       0.522  11.015  19.458  0.00  0.00    +0.000 N 
ATOM     29  C   UNL     1      -0.692  11.251  20.195  0.00  0.00    +0.000 C 
ATOM     30  C   UNL     1      -1.020  12.694  19.895  0.00  0.00    +0.000 C 
ATOM     31  C   UNL     1       0.338  13.341  19.697  0.00  0.00    +0.000 C 
ATOM     32  C   UNL     1       1.199  12.212  19.188  0.00  0.00    +0.000 C 
ATOM     33  O   UNL     1       2.294  12.386  18.684  0.00  0.00    +0.000 OA
ENDBRANCH  25  28
ENDBRANCH  19  22
ENDBRANCH   4  19
TORSDOF 6
ENDMDL
