MODEL 1
REMARK VINA RESULT:      -7.2      0.000      0.000
REMARK  Name = 
REMARK  4 active torsions:
REMARK  status: ('A' for Active; 'I' for Inactive)
REMARK    1  A    between atoms: C_1  and  O_2
REMARK    2  A    between atoms: O_2  and  C_3
REMARK    3  A    between atoms: C_8  and  C_9
REMARK    4  A    between atoms: N_11  and  C_12
REMARK                            x       y       z     vdW  Elec       q    Type
REMARK                         _______ _______ _______ _____ _____    ______ ____
ROOT
ATOM      1  C   UNL     1       3.479   6.053  19.026  0.00  0.00    +0.000 C 
ATOM      2  O   UNL     1       3.333   5.383  20.044  0.00  0.00    +0.000 OA
ATOM      3  N   UNL     1       2.824   7.236  18.744  0.00  0.00    +0.000 N 
ATOM      4  H   UNL     1       2.948   7.634  17.816  0.00  0.00    +0.000 HD
ENDROOT
BRANCH   3   5
ATOM      5  C   UNL     1       1.908   7.932  19.577  0.00  0.00    +0.000 A 
ATOM      6  C   UNL     1       1.493   7.434  20.817  0.00  0.00    +0.000 A 
ATOM      7  C   UNL     1       0.558   8.123  21.592  0.00  0.00    +0.000 A 
ATOM      8  C   UNL     1       0.023   9.325  21.137  0.00  0.00    +0.000 A 
ATOM      9  C   UNL     1       0.441   9.853  19.914  0.00  0.00    +0.000 A 
ATOM     10 CL   UNL     1      -0.272  11.348  19.412  0.00  0.00    +0.000 Cl
ATOM     11  C   UNL     1       1.391   9.171  19.137  0.00  0.00    +0.000 A 
ATOM     12 CL   UNL     1       1.927   9.819  17.614  0.00  0.00    +0.000 Cl
ENDBRANCH   3   5
BRANCH   1  18
ATOM     13  C   UNL     1       6.436   5.864  16.700  0.00  0.00    +0.000 A 
ATOM     14  C   UNL     1       6.167   4.730  15.941  0.00  0.00    +0.000 A 
ATOM     15  C   UNL     1       5.008   3.985  16.185  0.00  0.00    +0.000 A 
ATOM     16  C   UNL     1       4.105   4.365  17.188  0.00  0.00    +0.000 A 
ATOM     17 BR   UNL     1       2.542   3.299  17.353  0.00  0.00    +0.000 Br
ATOM     18  C   UNL     1       4.368   5.502  17.962  0.00  0.00    +0.000 A 
ATOM     19  C   UNL     1       5.539   6.241  17.704  0.00  0.00    +0.000 A 
BRANCH  13  21
ATOM     20  C   UNL     1       7.664   7.733  17.513  0.00  0.00    +0.000 C 
ATOM     21  O   UNL     1       7.524   6.680  16.567  0.00  0.00    +0.000 OA
ENDBRANCH  13  21
ENDBRANCH   1  18
TORSDOF 3
ENDMDL
MODEL 2
REMARK VINA RESULT:      -7.1      1.101      1.243
REMARK  Name = 
REMARK  4 active torsions:
REMARK  status: ('A' for Active; 'I' for Inactive)
REMARK    1  A    between atoms: C_1  and  O_2
REMARK    2  A    between atoms: O_2  and  C_3
REMARK    3  A    between atoms: C_8  and  C_9
REMARK    4  A    between atoms: N_11  and  C_12
REMARK                            x       y       z     vdW  Elec       q    Type
REMARK                         _______ _______ _______ _____ _____    ______ ____
ROOT
ATOM      1  C   UNL     1       2.477   6.453  19.523  0.00  0.00    +0.000 C 
ATOM      2  O   UNL     1       2.105   5.747  20.455  0.00  0.00    +0.000 OA
ATOM      3  N   UNL     1       2.143   7.781  19.339  0.00  0.00    +0.000 N 
ATOM      4  H   UNL     1       2.422   8.221  18.466  0.00  0.00    +0.000 HD
ENDROOT
BRANCH   3   5
ATOM      5  C   UNL     1       1.363   8.599  20.200  0.00  0.00    +0.000 A 
ATOM      6  C   UNL     1       1.401   8.474  21.593  0.00  0.00    +0.000 A 
ATOM      7  C   UNL     1       0.589   9.265  22.409  0.00  0.00    +0.000 A 
ATOM      8  C   UNL     1      -0.276  10.196  21.841  0.00  0.00    +0.000 A 
ATOM      9  C   UNL     1      -0.313  10.355  20.454  0.00  0.00    +0.000 A 
ATOM     10 CL   UNL     1      -1.417  11.527  19.822  0.00  0.00    +0.000 Cl
ATOM     11  C   UNL     1       0.512   9.572  19.631  0.00  0.00    +0.000 A 
ATOM     12 CL   UNL     1       0.481   9.762  17.901  0.00  0.00    +0.000 Cl
ENDBRANCH   3   5
BRANCH   1  18
ATOM     13  C   UNL     1       5.177   6.087  16.922  0.00  0.00    +0.000 A 
ATOM     14  C   UNL     1       4.902   4.847  16.356  0.00  0.00    +0.000 A 
ATOM     15  C   UNL     1       3.824   4.088  16.826  0.00  0.00    +0.000 A 
ATOM     16  C   UNL     1       3.010   4.559  17.866  0.00  0.00    +0.000 A 
ATOM     17 BR   UNL     1       1.544   3.452  18.347  0.00  0.00    +0.000 Br
ATOM     18  C   UNL     1       3.281   5.804  18.448  0.00  0.00    +0.000 A 
ATOM     19  C   UNL     1       4.369   6.556  17.963  0.00  0.00    +0.000 A 
BRANCH  13  21
ATOM     20  C   UNL     1       7.269   7.077  17.475  0.00  0.00    +0.000 C 
ATOM     21  O   UNL     1       6.191   6.929  16.560  0.00  0.00    +0.000 OA
ENDBRANCH  13  21
ENDBRANCH   1  18
TORSDOF 3
ENDMDL
MODEL 3
REMARK VINA RESULT:      -6.9      3.693      4.951
REMARK  Name = 
REMARK  4 active torsions:
REMARK  status: ('A' for Active; 'I' for Inactive)
REMARK    1  A    between atoms: C_1  and  O_2
REMARK    2  A    between atoms: O_2  and  C_3
REMARK    3  A    between atoms: C_8  and  C_9
REMARK    4  A    between atoms: N_11  and  C_12
REMARK                            x       y       z     vdW  Elec       q    Type
REMARK                         _______ _______ _______ _____ _____    ______ ____
ROOT
ATOM      1  C   UNL     1       5.091   4.069  16.832  0.00  0.00    +0.000 C 
ATOM      2  O   UNL     1       5.742   3.757  17.824  0.00  0.00    +0.000 OA
ATOM      3  N   UNL     1       3.712   4.069  16.745  0.00  0.00    +0.000 N 
ATOM      4  H   UNL     1       3.297   4.238  15.833  0.00  0.00    +0.000 HD
ENDROOT
BRANCH   3   5
ATOM      5  C   UNL     1       2.785   3.764  17.778  0.00  0.00    +0.000 A 
ATOM      6  C   UNL     1       2.116   2.537  17.849  0.00  0.00    +0.000 A 
ATOM      7  C   UNL     1       1.179   2.285  18.853  0.00  0.00    +0.000 A 
ATOM      8  C   UNL     1       0.896   3.261  19.805  0.00  0.00    +0.000 A 
ATOM      9  C   UNL     1       1.569   4.484  19.768  0.00  0.00    +0.000 A 
ATOM     10 CL   UNL     1       1.160   5.649  20.980  0.00  0.00    +0.000 Cl
ATOM     11  C   UNL     1       2.522   4.736  18.768  0.00  0.00    +0.000 A 
ATOM     12 CL   UNL     1       3.374   6.253  18.713  0.00  0.00    +0.000 Cl
ENDBRANCH   3   5
BRANCH   1  18
ATOM     13  C   UNL     1       6.214   3.750  13.251  0.00  0.00    +0.000 A 
ATOM     14  C   UNL     1       7.195   4.730  13.141  0.00  0.00    +0.000 A 
ATOM     15  C   UNL     1       7.506   5.534  14.243  0.00  0.00    +0.000 A 
ATOM     16  C   UNL     1       6.840   5.370  15.465  0.00  0.00    +0.000 A 
ATOM     17 BR   UNL     1       7.419   6.485  16.889  0.00  0.00    +0.000 Br
ATOM     18  C   UNL     1       5.846   4.391  15.587  0.00  0.00    +0.000 A 
ATOM     19  C   UNL     1       5.546   3.588  14.469  0.00  0.00    +0.000 A 
BRANCH  13  21
ATOM     20  C   UNL     1       4.574   3.178  11.624  0.00  0.00    +0.000 C 
ATOM     21  O   UNL     1       5.815   2.897  12.260  0.00  0.00    +0.000 OA
ENDBRANCH  13  21
ENDBRANCH   1  18
TORSDOF 3
ENDMDL
MODEL 4
REMARK VINA RESULT:      -6.9      4.725      5.441
REMARK  Name = 
REMARK  4 active torsions:
REMARK  status: ('A' for Active; 'I' for Inactive)
REMARK    1  A    between atoms: C_1  and  O_2
REMARK    2  A    between atoms: O_2  and  C_3
REMARK    3  A    between atoms: C_8  and  C_9
REMARK    4  A    between atoms: N_11  and  C_12
REMARK                            x       y       z     vdW  Elec       q    Type
REMARK                         _______ _______ _______ _____ _____    ______ ____
ROOT
ATOM      1  C   UNL     1       4.359   4.846  16.683  0.00  0.00    +0.000 C 
ATOM      2  O   UNL     1       4.043   5.930  17.163  0.00  0.00    +0.000 OA
ATOM      3  N   UNL     1       3.838   3.621  17.053  0.00  0.00    +0.000 N 
ATOM      4  H   UNL     1       4.266   2.788  16.659  0.00  0.00    +0.000 HD
ENDROOT
BRANCH   3   5
ATOM      5  C   UNL     1       2.816   3.375  18.008  0.00  0.00    +0.000 A 
ATOM      6  C   UNL     1       1.455   3.442  17.686  0.00  0.00    +0.000 A 
ATOM      7  C   UNL     1       0.474   3.236  18.659  0.00  0.00    +0.000 A 
ATOM      8  C   UNL     1       0.842   2.959  19.973  0.00  0.00    +0.000 A 
ATOM      9  C   UNL     1       2.193   2.862  20.312  0.00  0.00    +0.000 A 
ATOM     10 CL   UNL     1       2.571   2.520  21.965  0.00  0.00    +0.000 Cl
ATOM     11  C   UNL     1       3.182   3.055  19.334  0.00  0.00    +0.000 A 
ATOM     12 CL   UNL     1       4.870   2.932  19.739  0.00  0.00    +0.000 Cl
ENDBRANCH   3   5
BRANCH   1  18
ATOM     13  C   UNL     1       6.198   3.916  13.530  0.00  0.00    +0.000 A 
ATOM     14  C   UNL     1       7.417   4.570  13.673  0.00  0.00    +0.000 A 
ATOM     15  C   UNL     1       7.663   5.350  14.808  0.00  0.00    +0.000 A 
ATOM     16  C   UNL     1       6.694   5.485  15.813  0.00  0.00    +0.000 A 
ATOM     17 BR   UNL     1       7.197   6.514  17.327  0.00  0.00    +0.000 Br
ATOM     18  C   UNL     1       5.461   4.835  15.677  0.00  0.00    +0.000 A 
ATOM     19  C   UNL     1       5.230   4.053  14.529  0.00  0.00    +0.000 A 
BRANCH  13  21
ATOM     20  C   UNL     1       4.615   3.453  11.814  0.00  0.00    +0.000 C 
ATOM     21  O   UNL     1       5.829   3.124  12.478  0.00  0.00    +0.000 OA
ENDBRANCH  13  21
ENDBRANCH   1  18
TORSDOF 3
ENDMDL
MODEL 5
REMARK VINA RESULT:      -6.9      1.778      2.184
REMARK  Name = 
REMARK  4 active torsions:
REMARK  status: ('A' for Active; 'I' for Inactive)
REMARK    1  A    between atoms: C_1  and  O_2
REMARK    2  A    between atoms: O_2  and  C_3
REMARK    3  A    between atoms: C_8  and  C_9
REMARK    4  A    between atoms: N_11  and  C_12
REMARK                            x       y       z     vdW  Elec       q    Type
REMARK                         _______ _______ _______ _____ _____    ______ ____
ROOT
ATOM      1  C   UNL     1       1.999   6.219  20.158  0.00  0.00    +0.000 C 
ATOM      2  O   UNL     1       1.068   5.623  20.688  0.00  0.00    +0.000 OA
ATOM      3  N   UNL     1       2.154   7.591  20.118  0.00  0.00    +0.000 N 
ATOM      4  H   UNL     1       2.910   7.965  19.549  0.00  0.00    +0.000 HD
ENDROOT
BRANCH   3   5
ATOM      5  C   UNL     1       1.314   8.570  20.714  0.00  0.00    +0.000 A 
ATOM      6  C   UNL     1       1.105   8.638  22.096  0.00  0.00    +0.000 A 
ATOM      7  C   UNL     1       0.239   9.586  22.647  0.00  0.00    +0.000 A 
ATOM      8  C   UNL     1      -0.432  10.482  21.820  0.00  0.00    +0.000 A 
ATOM      9  C   UNL     1      -0.220  10.448  20.440  0.00  0.00    +0.000 A 
ATOM     10 CL   UNL     1      -1.094  11.589  19.477  0.00  0.00    +0.000 Cl
ATOM     11  C   UNL     1       0.660   9.506  19.884  0.00  0.00    +0.000 A 
ATOM     12 CL   UNL     1       0.940   9.455  18.167  0.00  0.00    +0.000 Cl
ENDBRANCH   3   5
BRANCH   1  18
ATOM     13  C   UNL     1       4.521   5.368  17.492  0.00  0.00    +0.000 A 
ATOM     14  C   UNL     1       4.862   4.053  17.790  0.00  0.00    +0.000 A 
ATOM     15  C   UNL     1       4.279   3.413  18.890  0.00  0.00    +0.000 A 
ATOM     16  C   UNL     1       3.351   4.078  19.702  0.00  0.00    +0.000 A 
ATOM     17 BR   UNL     1       2.591   3.058  21.112  0.00  0.00    +0.000 Br
ATOM     18  C   UNL     1       3.004   5.405  19.415  0.00  0.00    +0.000 A 
ATOM     19  C   UNL     1       3.598   6.035  18.305  0.00  0.00    +0.000 A 
BRANCH  13  21
ATOM     20  C   UNL     1       5.565   5.398  15.354  0.00  0.00    +0.000 C 
ATOM     21  O   UNL     1       5.009   6.109  16.453  0.00  0.00    +0.000 OA
ENDBRANCH  13  21
ENDBRANCH   1  18
TORSDOF 3
ENDMDL
MODEL 6
REMARK VINA RESULT:      -6.8      1.587      1.710
REMARK  Name = 
REMARK  4 active torsions:
REMARK  status: ('A' for Active; 'I' for Inactive)
REMARK    1  A    between atoms: C_1  and  O_2
REMARK    2  A    between atoms: O_2  and  C_3
REMARK    3  A    between atoms: C_8  and  C_9
REMARK    4  A    between atoms: N_11  and  C_12
REMARK                            x       y       z     vdW  Elec       q    Type
REMARK                         _______ _______ _______ _____ _____    ______ ____
ROOT
ATOM      1  C   UNL     1       2.389   6.119  19.989  0.00  0.00    +0.000 C 
ATOM      2  O   UNL     1       1.723   5.537  20.838  0.00  0.00    +0.000 OA
ATOM      3  N   UNL     1       2.307   7.465  19.687  0.00  0.00    +0.000 N 
ATOM      4  H   UNL     1       2.831   7.802  18.884  0.00  0.00    +0.000 HD
ENDROOT
BRANCH   3   5
ATOM      5  C   UNL     1       1.490   8.440  20.320  0.00  0.00    +0.000 A 
ATOM      6  C   UNL     1       1.309   8.481  21.707  0.00  0.00    +0.000 A 
ATOM      7  C   UNL     1       0.465   9.427  22.295  0.00  0.00    +0.000 A 
ATOM      8  C   UNL     1      -0.212  10.348  21.500  0.00  0.00    +0.000 A 
ATOM      9  C   UNL     1      -0.027  10.341  20.116  0.00  0.00    +0.000 A 
ATOM     10 CL   UNL     1      -0.906  11.512  19.194  0.00  0.00    +0.000 Cl
ATOM     11  C   UNL     1       0.831   9.401  19.523  0.00  0.00    +0.000 A 
ATOM     12 CL   UNL     1       1.077   9.384  17.800  0.00  0.00    +0.000 Cl
ENDBRANCH   3   5
BRANCH   1  18
ATOM     13  C   UNL     1       5.643   4.756  18.668  0.00  0.00    +0.000 A 
ATOM     14  C   UNL     1       5.236   3.917  17.636  0.00  0.00    +0.000 A 
ATOM     15  C   UNL     1       3.874   3.765  17.355  0.00  0.00    +0.000 A 
ATOM     16  C   UNL     1       2.904   4.449  18.101  0.00  0.00    +0.000 A 
ATOM     17 BR   UNL     1       1.102   4.200  17.557  0.00  0.00    +0.000 Br
ATOM     18  C   UNL     1       3.301   5.293  19.146  0.00  0.00    +0.000 A 
ATOM     19  C   UNL     1       4.676   5.436  19.415  0.00  0.00    +0.000 A 
BRANCH  13  21
ATOM     20  C   UNL     1       7.943   4.818  18.060  0.00  0.00    +0.000 C 
ATOM     21  O   UNL     1       6.934   4.998  19.046  0.00  0.00    +0.000 OA
ENDBRANCH  13  21
ENDBRANCH   1  18
TORSDOF 3
ENDMDL
MODEL 7
REMARK VINA RESULT:      -6.7      1.591      1.975
REMARK  Name = 
REMARK  4 active torsions:
REMARK  status: ('A' for Active; 'I' for Inactive)
REMARK    1  A    between atoms: C_1  and  O_2
REMARK    2  A    between atoms: O_2  and  C_3
REMARK    3  A    between atoms: C_8  and  C_9
REMARK    4  A    between atoms: N_11  and  C_12
REMARK                            x       y       z     vdW  Elec       q    Type
REMARK                         _______ _______ _______ _____ _____    ______ ____
ROOT
ATOM      1  C   UNL     1       2.903   6.284  17.871  0.00  0.00    +0.000 C 
ATOM      2  O   UNL     1       1.835   5.689  17.774  0.00  0.00    +0.000 OA
ATOM      3  N   UNL     1       3.060   7.587  18.300  0.00  0.00    +0.000 N 
ATOM      4  H   UNL     1       3.986   8.001  18.226  0.00  0.00    +0.000 HD
ENDROOT
BRANCH   3   5
ATOM      5  C   UNL     1       2.045   8.470  18.757  0.00  0.00    +0.000 A 
ATOM      6  C   UNL     1       1.606   9.564  18.003  0.00  0.00    +0.000 A 
ATOM      7  C   UNL     1       0.636  10.438  18.500  0.00  0.00    +0.000 A 
ATOM      8  C   UNL     1       0.090  10.229  19.764  0.00  0.00    +0.000 A 
ATOM      9  C   UNL     1       0.495   9.130  20.523  0.00  0.00    +0.000 A 
ATOM     10 CL   UNL     1      -0.224   8.939  22.085  0.00  0.00    +0.000 Cl
ATOM     11  C   UNL     1       1.459   8.241  20.021  0.00  0.00    +0.000 A 
ATOM     12 CL   UNL     1       1.970   6.863  20.954  0.00  0.00    +0.000 Cl
ENDBRANCH   3   5
BRANCH   1  18
ATOM     13  C   UNL     1       6.454   5.864  16.684  0.00  0.00    +0.000 A 
ATOM     14  C   UNL     1       6.540   4.501  16.425  0.00  0.00    +0.000 A 
ATOM     15  C   UNL     1       5.431   3.676  16.648  0.00  0.00    +0.000 A 
ATOM     16  C   UNL     1       4.226   4.205  17.132  0.00  0.00    +0.000 A 
ATOM     17 BR   UNL     1       2.789   2.977  17.316  0.00  0.00    +0.000 Br
ATOM     18  C   UNL     1       4.129   5.576  17.401  0.00  0.00    +0.000 A 
ATOM     19  C   UNL     1       5.254   6.392  17.171  0.00  0.00    +0.000 A 
BRANCH  13  21
ATOM     20  C   UNL     1       7.658   7.724  17.553  0.00  0.00    +0.000 C 
ATOM     21  O   UNL     1       7.453   6.780  16.509  0.00  0.00    +0.000 OA
ENDBRANCH  13  21
ENDBRANCH   1  18
TORSDOF 3
ENDMDL
MODEL 8
REMARK VINA RESULT:      -6.5      3.721      4.763
REMARK  Name = 
REMARK  4 active torsions:
REMARK  status: ('A' for Active; 'I' for Inactive)
REMARK    1  A    between atoms: C_1  and  O_2
REMARK    2  A    between atoms: O_2  and  C_3
REMARK    3  A    between atoms: C_8  and  C_9
REMARK    4  A    between atoms: N_11  and  C_12
REMARK                            x       y       z     vdW  Elec       q    Type
REMARK                         _______ _______ _______ _____ _____    ______ ____
ROOT
ATOM      1  C   UNL     1       5.149   4.617  17.389  0.00  0.00    +0.000 C 
ATOM      2  O   UNL     1       5.658   3.931  18.269  0.00  0.00    +0.000 OA
ATOM      3  N   UNL     1       3.879   5.158  17.426  0.00  0.00    +0.000 N 
ATOM      4  H   UNL     1       3.533   5.611  16.584  0.00  0.00    +0.000 HD
ENDROOT
BRANCH   3   5
ATOM      5  C   UNL     1       2.940   5.077  18.490  0.00  0.00    +0.000 A 
ATOM      6  C   UNL     1       2.774   6.106  19.424  0.00  0.00    +0.000 A 
ATOM      7  C   UNL     1       1.873   5.977  20.484  0.00  0.00    +0.000 A 
ATOM      8  C   UNL     1       1.122   4.813  20.624  0.00  0.00    +0.000 A 
ATOM      9  C   UNL     1       1.254   3.783  19.690  0.00  0.00    +0.000 A 
ATOM     10 CL   UNL     1       0.293   2.366  19.934  0.00  0.00    +0.000 Cl
ATOM     11  C   UNL     1       2.148   3.914  18.616  0.00  0.00    +0.000 A 
ATOM     12 CL   UNL     1       2.319   2.643  17.439  0.00  0.00    +0.000 Cl
ENDBRANCH   3   5
BRANCH   1  18
ATOM     13  C   UNL     1       6.313   3.963  13.866  0.00  0.00    +0.000 A 
ATOM     14  C   UNL     1       7.320   4.906  13.688  0.00  0.00    +0.000 A 
ATOM     15  C   UNL     1       7.635   5.796  14.721  0.00  0.00    +0.000 A 
ATOM     16  C   UNL     1       6.948   5.753  15.942  0.00  0.00    +0.000 A 
ATOM     17 BR   UNL     1       7.535   6.973  17.274  0.00  0.00    +0.000 Br
ATOM     18  C   UNL     1       5.929   4.812  16.132  0.00  0.00    +0.000 A 
ATOM     19  C   UNL     1       5.624   3.923  15.083  0.00  0.00    +0.000 A 
BRANCH  13  21
ATOM     20  C   UNL     1       5.002   3.477  11.940  0.00  0.00    +0.000 C 
ATOM     21  O   UNL     1       5.906   3.037  12.946  0.00  0.00    +0.000 OA
ENDBRANCH  13  21
ENDBRANCH   1  18
TORSDOF 3
ENDMDL
MODEL 9
REMARK VINA RESULT:      -6.4      3.144      4.289
REMARK  Name = 
REMARK  4 active torsions:
REMARK  status: ('A' for Active; 'I' for Inactive)
REMARK    1  A    between atoms: C_1  and  O_2
REMARK    2  A    between atoms: O_2  and  C_3
REMARK    3  A    between atoms: C_8  and  C_9
REMARK    4  A    between atoms: N_11  and  C_12
REMARK                            x       y       z     vdW  Elec       q    Type
REMARK                         _______ _______ _______ _____ _____    ______ ____
ROOT
ATOM      1  C   UNL     1       5.125   4.441  17.546  0.00  0.00    +0.000 C 
ATOM      2  O   UNL     1       5.749   3.983  18.498  0.00  0.00    +0.000 OA
ATOM      3  N   UNL     1       3.763   4.670  17.514  0.00  0.00    +0.000 N 
ATOM      4  H   UNL     1       3.350   4.944  16.626  0.00  0.00    +0.000 HD
ENDROOT
BRANCH   3   5
ATOM      5  C   UNL     1       2.834   4.477  18.572  0.00  0.00    +0.000 A 
ATOM      6  C   UNL     1       2.311   3.219  18.893  0.00  0.00    +0.000 A 
ATOM      7  C   UNL     1       1.367   3.071  19.911  0.00  0.00    +0.000 A 
ATOM      8  C   UNL     1       0.930   4.183  20.625  0.00  0.00    +0.000 A 
ATOM      9  C   UNL     1       1.455   5.444  20.339  0.00  0.00    +0.000 A 
ATOM     10 CL   UNL     1       0.859   6.779  21.265  0.00  0.00    +0.000 Cl
ATOM     11  C   UNL     1       2.415   5.596  19.325  0.00  0.00    +0.000 A 
ATOM     12 CL   UNL     1       3.085   7.161  18.960  0.00  0.00    +0.000 Cl
ENDBRANCH   3   5
BRANCH   1  18
ATOM     13  C   UNL     1       6.214   3.937  13.975  0.00  0.00    +0.000 A 
ATOM     14  C   UNL     1       7.222   4.883  13.817  0.00  0.00    +0.000 A 
ATOM     15  C   UNL     1       7.562   5.725  14.882  0.00  0.00    +0.000 A 
ATOM     16  C   UNL     1       6.900   5.631  16.114  0.00  0.00    +0.000 A 
ATOM     17 BR   UNL     1       7.519   6.789  17.486  0.00  0.00    +0.000 Br
ATOM     18  C   UNL     1       5.880   4.687  16.283  0.00  0.00    +0.000 A 
ATOM     19  C   UNL     1       5.550   3.846  15.202  0.00  0.00    +0.000 A 
BRANCH  13  21
ATOM     20  C   UNL     1       6.510   3.013  11.802  0.00  0.00    +0.000 C 
ATOM     21  O   UNL     1       5.784   3.054  13.024  0.00  0.00    +0.000 OA
ENDBRANCH  13  21
ENDBRANCH   1  18
TORSDOF 3
ENDMDL
