MODEL 1
REMARK VINA RESULT:      -9.3      0.000      0.000
REMARK  Name = 
REMARK  6 active torsions:
REMARK  status: ('A' for Active; 'I' for Inactive)
REMARK    1  A    between atoms: C_7  and  C_8
REMARK    2  A    between atoms: C_8  and  N_9
REMARK    3  A    between atoms: N_9  and  C_10
REMARK    4  A    between atoms: C_17  and  C_18
REMARK    5  A    between atoms: C_18  and  C_19
REMARK    6  A    between atoms: C_18  and  C_25
REMARK                            x       y       z     vdW  Elec       q    Type
REMARK                         _______ _______ _______ _____ _____    ______ ____
ROOT
ATOM      1  C   UNL     1       3.896   3.298  17.112  0.00  0.00    +0.000 C 
ATOM      2  C   UNL     1       3.745   2.195  18.211  0.00  0.00    +0.000 C 
ATOM      3  C   UNL     1       4.126   2.738  19.590  0.00  0.00    +0.000 C 
ATOM      4  C   UNL     1       3.153   3.848  19.978  0.00  0.00    +0.000 C 
ATOM      5  N   UNL     1       2.300   4.263  18.848  0.00  0.00    +0.000 NA
ATOM      6  C   UNL     1       1.425   3.109  18.518  0.00  0.00    +0.000 C 
ATOM      7  C   UNL     1       2.246   1.832  18.268  0.00  0.00    +0.000 C 
ATOM      8  C   UNL     1       3.128   4.606  17.631  0.00  0.00    +0.000 C 
ENDROOT
BRANCH   1   9
ATOM      9  N   UNL     1       5.246   3.358  16.490  0.00  0.00    +0.000 NA
ATOM     10  H   UNL     1       5.647   4.278  16.675  0.00  0.00    +0.000 HD
BRANCH   9  11
ATOM     11  C   UNL     1       5.099   3.268  15.002  0.00  0.00    +0.000 C 
BRANCH  11  18
ATOM     12 CL   UNL     1       5.230   2.572  11.972  0.00  0.00    +0.000 Cl
ATOM     13  C   UNL     1       6.223   3.746  12.770  0.00  0.00    +0.000 A 
ATOM     14  C   UNL     1       7.203   4.376  11.988  0.00  0.00    +0.000 A 
ATOM     15  C   UNL     1       8.069   5.297  12.561  0.00  0.00    +0.000 A 
ATOM     16  C   UNL     1       7.953   5.595  13.916  0.00  0.00    +0.000 A 
ATOM     17  C   UNL     1       6.975   4.970  14.703  0.00  0.00    +0.000 A 
ATOM     18  C   UNL     1       6.084   4.044  14.144  0.00  0.00    +0.000 A 
ENDBRANCH  11  18
ENDBRANCH   9  11
ENDBRANCH   1   9
BRANCH   8  19
ATOM     19  C   UNL     1       3.795   6.059  17.568  0.00  0.00    +0.000 C 
BRANCH  19  20
ATOM     20  C   UNL     1       5.257   6.250  17.987  0.00  0.00    +0.000 A 
ATOM     21  C   UNL     1       6.123   7.095  17.268  0.00  0.00    +0.000 A 
ATOM     22  C   UNL     1       7.465   7.252  17.626  0.00  0.00    +0.000 A 
ATOM     23  C   UNL     1       7.985   6.521  18.684  0.00  0.00    +0.000 A 
ATOM     24  C   UNL     1       7.163   5.635  19.380  0.00  0.00    +0.000 A 
ATOM     25  C   UNL     1       5.811   5.508  19.043  0.00  0.00    +0.000 A 
ENDBRANCH  19  20
BRANCH  19  26
ATOM     26  C   UNL     1       2.895   7.116  18.279  0.00  0.00    +0.000 A 
ATOM     27  C   UNL     1       2.436   8.249  17.589  0.00  0.00    +0.000 A 
ATOM     28  C   UNL     1       1.634   9.204  18.218  0.00  0.00    +0.000 A 
ATOM     29  C   UNL     1       1.287   9.057  19.560  0.00  0.00    +0.000 A 
ATOM     30  C   UNL     1       1.752   7.959  20.273  0.00  0.00    +0.000 A 
ATOM     31  C   UNL     1       2.549   7.006  19.637  0.00  0.00    +0.000 A 
ENDBRANCH  19  26
ENDBRANCH   8  19
TORSDOF 6
ENDMDL
MODEL 2
REMARK VINA RESULT:      -9.0      2.506      6.062
REMARK  Name = 
REMARK  6 active torsions:
REMARK  status: ('A' for Active; 'I' for Inactive)
REMARK    1  A    between atoms: C_7  and  C_8
REMARK    2  A    between atoms: C_8  and  N_9
REMARK    3  A    between atoms: N_9  and  C_10
REMARK    4  A    between atoms: C_17  and  C_18
REMARK    5  A    between atoms: C_18  and  C_19
REMARK    6  A    between atoms: C_18  and  C_25
REMARK                            x       y       z     vdW  Elec       q    Type
REMARK                         _______ _______ _______ _____ _____    ______ ____
ROOT
ATOM      1  C   UNL     1       3.956   4.452  19.238  0.00  0.00    +0.000 C 
ATOM      2  C   UNL     1       2.561   3.764  19.410  0.00  0.00    +0.000 C 
ATOM      3  C   UNL     1       1.679   3.996  18.180  0.00  0.00    +0.000 C 
ATOM      4  C   UNL     1       2.326   3.331  16.967  0.00  0.00    +0.000 C 
ATOM      5  N   UNL     1       3.706   2.886  17.244  0.00  0.00    +0.000 NA
ATOM      6  C   UNL     1       3.618   1.800  18.253  0.00  0.00    +0.000 C 
ATOM      7  C   UNL     1       2.826   2.247  19.494  0.00  0.00    +0.000 C 
ATOM      8  C   UNL     1       4.541   4.010  17.813  0.00  0.00    +0.000 C 
ENDROOT
BRANCH   1   9
ATOM      9  N   UNL     1       4.004   5.859  19.721  0.00  0.00    +0.000 NA
ATOM     10  H   UNL     1       4.505   5.879  20.609  0.00  0.00    +0.000 HD
BRANCH   9  11
ATOM     11  C   UNL     1       2.610   6.314  20.027  0.00  0.00    +0.000 C 
BRANCH  11  18
ATOM     12 CL   UNL     1       1.007   8.227  21.886  0.00  0.00    +0.000 Cl
ATOM     13  C   UNL     1       1.385   8.535  20.223  0.00  0.00    +0.000 A 
ATOM     14  C   UNL     1       0.863   9.714  19.669  0.00  0.00    +0.000 A 
ATOM     15  C   UNL     1       1.082  10.014  18.331  0.00  0.00    +0.000 A 
ATOM     16  C   UNL     1       1.829   9.139  17.547  0.00  0.00    +0.000 A 
ATOM     17  C   UNL     1       2.355   7.960  18.096  0.00  0.00    +0.000 A 
ATOM     18  C   UNL     1       2.154   7.641  19.445  0.00  0.00    +0.000 A 
ENDBRANCH  11  18
ENDBRANCH   9  11
ENDBRANCH   1   9
BRANCH   8  19
ATOM     19  C   UNL     1       5.163   5.069  16.789  0.00  0.00    +0.000 C 
BRANCH  19  20
ATOM     20  C   UNL     1       5.635   4.612  15.404  0.00  0.00    +0.000 A 
ATOM     21  C   UNL     1       6.960   4.813  14.974  0.00  0.00    +0.000 A 
ATOM     22  C   UNL     1       7.389   4.425  13.702  0.00  0.00    +0.000 A 
ATOM     23  C   UNL     1       6.483   3.874  12.807  0.00  0.00    +0.000 A 
ATOM     24  C   UNL     1       5.150   3.714  13.187  0.00  0.00    +0.000 A 
ATOM     25  C   UNL     1       4.732   4.068  14.475  0.00  0.00    +0.000 A 
ENDBRANCH  19  20
BRANCH  19  26
ATOM     26  C   UNL     1       6.276   5.920  17.474  0.00  0.00    +0.000 A 
ATOM     27  C   UNL     1       6.485   7.259  17.108  0.00  0.00    +0.000 A 
ATOM     28  C   UNL     1       7.483   8.028  17.714  0.00  0.00    +0.000 A 
ATOM     29  C   UNL     1       8.308   7.469  18.687  0.00  0.00    +0.000 A 
ATOM     30  C   UNL     1       8.141   6.137  19.047  0.00  0.00    +0.000 A 
ATOM     31  C   UNL     1       7.139   5.376  18.443  0.00  0.00    +0.000 A 
ENDBRANCH  19  26
ENDBRANCH   8  19
TORSDOF 6
ENDMDL
MODEL 3
REMARK VINA RESULT:      -8.9      2.507      6.136
REMARK  Name = 
REMARK  6 active torsions:
REMARK  status: ('A' for Active; 'I' for Inactive)
REMARK    1  A    between atoms: C_7  and  C_8
REMARK    2  A    between atoms: C_8  and  N_9
REMARK    3  A    between atoms: N_9  and  C_10
REMARK    4  A    between atoms: C_17  and  C_18
REMARK    5  A    between atoms: C_18  and  C_19
REMARK    6  A    between atoms: C_18  and  C_25
REMARK                            x       y       z     vdW  Elec       q    Type
REMARK                         _______ _______ _______ _____ _____    ______ ____
ROOT
ATOM      1  C   UNL     1       3.966   4.488  19.226  0.00  0.00    +0.000 C 
ATOM      2  C   UNL     1       2.585   3.769  19.382  0.00  0.00    +0.000 C 
ATOM      3  C   UNL     1       1.707   3.992  18.148  0.00  0.00    +0.000 C 
ATOM      4  C   UNL     1       2.375   3.352  16.935  0.00  0.00    +0.000 C 
ATOM      5  N   UNL     1       3.762   2.933  17.217  0.00  0.00    +0.000 NA
ATOM      6  C   UNL     1       3.690   1.837  18.217  0.00  0.00    +0.000 C 
ATOM      7  C   UNL     1       2.881   2.257  19.456  0.00  0.00    +0.000 C 
ATOM      8  C   UNL     1       4.570   4.069  17.801  0.00  0.00    +0.000 C 
ENDROOT
BRANCH   1   9
ATOM      9  N   UNL     1       3.982   5.891  19.720  0.00  0.00    +0.000 NA
ATOM     10  H   UNL     1       4.443   5.908  20.630  0.00  0.00    +0.000 HD
BRANCH   9  11
ATOM     11  C   UNL     1       2.572   6.333  19.967  0.00  0.00    +0.000 C 
BRANCH  11  18
ATOM     12 CL   UNL     1       0.965   8.214  21.855  0.00  0.00    +0.000 Cl
ATOM     13  C   UNL     1       1.378   8.567  20.209  0.00  0.00    +0.000 A 
ATOM     14  C   UNL     1       0.884   9.770  19.683  0.00  0.00    +0.000 A 
ATOM     15  C   UNL     1       1.132  10.107  18.359  0.00  0.00    +0.000 A 
ATOM     16  C   UNL     1       1.880   9.245  17.561  0.00  0.00    +0.000 A 
ATOM     17  C   UNL     1       2.377   8.042  18.083  0.00  0.00    +0.000 A 
ATOM     18  C   UNL     1       2.147   7.684  19.418  0.00  0.00    +0.000 A 
ENDBRANCH  11  18
ENDBRANCH   9  11
ENDBRANCH   1   9
BRANCH   8  19
ATOM     19  C   UNL     1       5.177   5.150  16.790  0.00  0.00    +0.000 C 
BRANCH  19  20
ATOM     20  C   UNL     1       5.610   4.724  15.382  0.00  0.00    +0.000 A 
ATOM     21  C   UNL     1       4.702   4.143  14.477  0.00  0.00    +0.000 A 
ATOM     22  C   UNL     1       5.096   3.725  13.203  0.00  0.00    +0.000 A 
ATOM     23  C   UNL     1       6.427   3.830  12.825  0.00  0.00    +0.000 A 
ATOM     24  C   UNL     1       7.359   4.352  13.722  0.00  0.00    +0.000 A 
ATOM     25  C   UNL     1       6.955   4.804  14.983  0.00  0.00    +0.000 A 
ENDBRANCH  19  20
BRANCH  19  26
ATOM     26  C   UNL     1       6.313   5.973  17.469  0.00  0.00    +0.000 A 
ATOM     27  C   UNL     1       7.111   5.403  18.474  0.00  0.00    +0.000 A 
ATOM     28  C   UNL     1       8.129   6.134  19.093  0.00  0.00    +0.000 A 
ATOM     29  C   UNL     1       8.361   7.460  18.732  0.00  0.00    +0.000 A 
ATOM     30  C   UNL     1       7.567   8.056  17.761  0.00  0.00    +0.000 A 
ATOM     31  C   UNL     1       6.555   7.319  17.142  0.00  0.00    +0.000 A 
ENDBRANCH  19  26
ENDBRANCH   8  19
TORSDOF 6
ENDMDL
MODEL 4
REMARK VINA RESULT:      -8.7      2.100      6.255
REMARK  Name = 
REMARK  6 active torsions:
REMARK  status: ('A' for Active; 'I' for Inactive)
REMARK    1  A    between atoms: C_7  and  C_8
REMARK    2  A    between atoms: C_8  and  N_9
REMARK    3  A    between atoms: N_9  and  C_10
REMARK    4  A    between atoms: C_17  and  C_18
REMARK    5  A    between atoms: C_18  and  C_19
REMARK    6  A    between atoms: C_18  and  C_25
REMARK                            x       y       z     vdW  Elec       q    Type
REMARK                         _______ _______ _______ _____ _____    ______ ____
ROOT
ATOM      1  C   UNL     1       3.898   4.678  19.306  0.00  0.00    +0.000 C 
ATOM      2  C   UNL     1       2.538   3.920  19.461  0.00  0.00    +0.000 C 
ATOM      3  C   UNL     1       1.708   4.013  18.178  0.00  0.00    +0.000 C 
ATOM      4  C   UNL     1       2.452   3.308  17.047  0.00  0.00    +0.000 C 
ATOM      5  N   UNL     1       3.839   2.968  17.419  0.00  0.00    +0.000 NA
ATOM      6  C   UNL     1       3.763   1.949  18.498  0.00  0.00    +0.000 C 
ATOM      7  C   UNL     1       2.885   2.431  19.665  0.00  0.00    +0.000 C 
ATOM      8  C   UNL     1       4.579   4.176  17.945  0.00  0.00    +0.000 C 
ENDROOT
BRANCH   1   9
ATOM      9  N   UNL     1       3.841   6.115  19.690  0.00  0.00    +0.000 NA
ATOM     10  H   UNL     1       3.594   6.176  20.678  0.00  0.00    +0.000 HD
BRANCH   9  11
ATOM     11  C   UNL     1       2.719   6.770  18.946  0.00  0.00    +0.000 C 
BRANCH  11  18
ATOM     12 CL   UNL     1       2.054   9.459  17.528  0.00  0.00    +0.000 Cl
ATOM     13  C   UNL     1       1.555   9.025  19.129  0.00  0.00    +0.000 A 
ATOM     14  C   UNL     1       0.854  10.001  19.854  0.00  0.00    +0.000 A 
ATOM     15  C   UNL     1       0.457   9.750  21.160  0.00  0.00    +0.000 A 
ATOM     16  C   UNL     1       0.753   8.521  21.742  0.00  0.00    +0.000 A 
ATOM     17  C   UNL     1       1.453   7.541  21.022  0.00  0.00    +0.000 A 
ATOM     18  C   UNL     1       1.857   7.769  19.699  0.00  0.00    +0.000 A 
ENDBRANCH  11  18
ENDBRANCH   9  11
ENDBRANCH   1   9
BRANCH   8  19
ATOM     19  C   UNL     1       5.191   5.199  16.878  0.00  0.00    +0.000 C 
BRANCH  19  20
ATOM     20  C   UNL     1       5.645   4.694  15.504  0.00  0.00    +0.000 A 
ATOM     21  C   UNL     1       6.978   4.830  15.073  0.00  0.00    +0.000 A 
ATOM     22  C   UNL     1       7.392   4.399  13.811  0.00  0.00    +0.000 A 
ATOM     23  C   UNL     1       6.465   3.869  12.925  0.00  0.00    +0.000 A 
ATOM     24  C   UNL     1       5.127   3.772  13.305  0.00  0.00    +0.000 A 
ATOM     25  C   UNL     1       4.722   4.170  14.584  0.00  0.00    +0.000 A 
ENDBRANCH  19  20
BRANCH  19  26
ATOM     26  C   UNL     1       6.313   6.070  17.521  0.00  0.00    +0.000 A 
ATOM     27  C   UNL     1       6.510   7.400  17.119  0.00  0.00    +0.000 A 
ATOM     28  C   UNL     1       7.516   8.187  17.687  0.00  0.00    +0.000 A 
ATOM     29  C   UNL     1       8.362   7.655  18.657  0.00  0.00    +0.000 A 
ATOM     30  C   UNL     1       8.207   6.332  19.051  0.00  0.00    +0.000 A 
ATOM     31  C   UNL     1       7.197   5.552  18.485  0.00  0.00    +0.000 A 
ENDBRANCH  19  26
ENDBRANCH   8  19
TORSDOF 6
ENDMDL
MODEL 5
REMARK VINA RESULT:      -8.7      1.922      6.185
REMARK  Name = 
REMARK  6 active torsions:
REMARK  status: ('A' for Active; 'I' for Inactive)
REMARK    1  A    between atoms: C_7  and  C_8
REMARK    2  A    between atoms: C_8  and  N_9
REMARK    3  A    between atoms: N_9  and  C_10
REMARK    4  A    between atoms: C_17  and  C_18
REMARK    5  A    between atoms: C_18  and  C_19
REMARK    6  A    between atoms: C_18  and  C_25
REMARK                            x       y       z     vdW  Elec       q    Type
REMARK                         _______ _______ _______ _____ _____    ______ ____
ROOT
ATOM      1  C   UNL     1       3.797   4.716  19.258  0.00  0.00    +0.000 C 
ATOM      2  C   UNL     1       2.458   3.916  19.374  0.00  0.00    +0.000 C 
ATOM      3  C   UNL     1       1.687   3.938  18.052  0.00  0.00    +0.000 C 
ATOM      4  C   UNL     1       2.508   3.223  16.981  0.00  0.00    +0.000 C 
ATOM      5  N   UNL     1       3.886   2.944  17.429  0.00  0.00    +0.000 NA
ATOM      6  C   UNL     1       3.793   1.959  18.537  0.00  0.00    +0.000 C 
ATOM      7  C   UNL     1       2.844   2.447  19.645  0.00  0.00    +0.000 C 
ATOM      8  C   UNL     1       4.559   4.194  17.948  0.00  0.00    +0.000 C 
ENDROOT
BRANCH   1   9
ATOM      9  N   UNL     1       3.674   6.161  19.589  0.00  0.00    +0.000 NA
ATOM     10  H   UNL     1       4.380   6.394  20.288  0.00  0.00    +0.000 HD
BRANCH   9  11
ATOM     11  C   UNL     1       2.350   6.395  20.249  0.00  0.00    +0.000 C 
BRANCH  11  18
ATOM     12 CL   UNL     1       2.719   7.836  17.516  0.00  0.00    +0.000 Cl
ATOM     13  C   UNL     1       1.872   8.486  18.881  0.00  0.00    +0.000 A 
ATOM     14  C   UNL     1       1.378   9.793  18.748  0.00  0.00    +0.000 A 
ATOM     15  C   UNL     1       0.726  10.404  19.810  0.00  0.00    +0.000 A 
ATOM     16  C   UNL     1       0.561   9.708  21.005  0.00  0.00    +0.000 A 
ATOM     17  C   UNL     1       1.052   8.402  21.143  0.00  0.00    +0.000 A 
ATOM     18  C   UNL     1       1.706   7.761  20.082  0.00  0.00    +0.000 A 
ENDBRANCH  11  18
ENDBRANCH   9  11
ENDBRANCH   1   9
BRANCH   8  19
ATOM     19  C   UNL     1       5.187   5.202  16.877  0.00  0.00    +0.000 C 
BRANCH  19  20
ATOM     20  C   UNL     1       5.624   4.686  15.501  0.00  0.00    +0.000 A 
ATOM     21  C   UNL     1       6.966   4.759  15.080  0.00  0.00    +0.000 A 
ATOM     22  C   UNL     1       7.367   4.317  13.817  0.00  0.00    +0.000 A 
ATOM     23  C   UNL     1       6.420   3.840  12.921  0.00  0.00    +0.000 A 
ATOM     24  C   UNL     1       5.076   3.808  13.291  0.00  0.00    +0.000 A 
ATOM     25  C   UNL     1       4.683   4.215  14.571  0.00  0.00    +0.000 A 
ENDBRANCH  19  20
BRANCH  19  26
ATOM     26  C   UNL     1       6.330   6.051  17.513  0.00  0.00    +0.000 A 
ATOM     27  C   UNL     1       7.132   5.524  18.537  0.00  0.00    +0.000 A 
ATOM     28  C   UNL     1       8.155   6.279  19.117  0.00  0.00    +0.000 A 
ATOM     29  C   UNL     1       8.388   7.587  18.698  0.00  0.00    +0.000 A 
ATOM     30  C   UNL     1       7.590   8.142  17.706  0.00  0.00    +0.000 A 
ATOM     31  C   UNL     1       6.572   7.382  17.126  0.00  0.00    +0.000 A 
ENDBRANCH  19  26
ENDBRANCH   8  19
TORSDOF 6
ENDMDL
MODEL 6
REMARK VINA RESULT:      -8.7      1.035      1.417
REMARK  Name = 
REMARK  6 active torsions:
REMARK  status: ('A' for Active; 'I' for Inactive)
REMARK    1  A    between atoms: C_7  and  C_8
REMARK    2  A    between atoms: C_8  and  N_9
REMARK    3  A    between atoms: N_9  and  C_10
REMARK    4  A    between atoms: C_17  and  C_18
REMARK    5  A    between atoms: C_18  and  C_19
REMARK    6  A    between atoms: C_18  and  C_25
REMARK                            x       y       z     vdW  Elec       q    Type
REMARK                         _______ _______ _______ _____ _____    ______ ____
ROOT
ATOM      1  C   UNL     1       3.694   3.345  17.117  0.00  0.00    +0.000 C 
ATOM      2  C   UNL     1       3.586   2.213  18.192  0.00  0.00    +0.000 C 
ATOM      3  C   UNL     1       4.068   2.707  19.559  0.00  0.00    +0.000 C 
ATOM      4  C   UNL     1       3.150   3.827  20.040  0.00  0.00    +0.000 C 
ATOM      5  N   UNL     1       2.236   4.294  18.979  0.00  0.00    +0.000 NA
ATOM      6  C   UNL     1       1.314   3.170  18.674  0.00  0.00    +0.000 C 
ATOM      7  C   UNL     1       2.087   1.883  18.336  0.00  0.00    +0.000 C 
ATOM      8  C   UNL     1       2.993   4.653  17.721  0.00  0.00    +0.000 C 
ENDROOT
BRANCH   1   9
ATOM      9  N   UNL     1       5.003   3.392  16.411  0.00  0.00    +0.000 NA
ATOM     10  H   UNL     1       5.700   3.776  17.050  0.00  0.00    +0.000 HD
BRANCH   9  11
ATOM     11  C   UNL     1       4.906   4.366  15.277  0.00  0.00    +0.000 C 
BRANCH  11  18
ATOM     12 CL   UNL     1       7.830   5.334  14.829  0.00  0.00    +0.000 Cl
ATOM     13  C   UNL     1       6.887   4.440  13.683  0.00  0.00    +0.000 A 
ATOM     14  C   UNL     1       7.481   4.200  12.434  0.00  0.00    +0.000 A 
ATOM     15  C   UNL     1       6.777   3.529  11.443  0.00  0.00    +0.000 A 
ATOM     16  C   UNL     1       5.481   3.091  11.701  0.00  0.00    +0.000 A 
ATOM     17  C   UNL     1       4.883   3.327  12.948  0.00  0.00    +0.000 A 
ATOM     18  C   UNL     1       5.577   3.995  13.966  0.00  0.00    +0.000 A 
ENDBRANCH  11  18
ENDBRANCH   9  11
ENDBRANCH   1   9
BRANCH   8  19
ATOM     19  C   UNL     1       3.689   6.092  17.656  0.00  0.00    +0.000 C 
BRANCH  19  20
ATOM     20  C   UNL     1       5.157   6.253  18.067  0.00  0.00    +0.000 A 
ATOM     21  C   UNL     1       6.033   7.092  17.354  0.00  0.00    +0.000 A 
ATOM     22  C   UNL     1       7.379   7.222  17.705  0.00  0.00    +0.000 A 
ATOM     23  C   UNL     1       7.895   6.467  18.749  0.00  0.00    +0.000 A 
ATOM     24  C   UNL     1       7.062   5.586  19.439  0.00  0.00    +0.000 A 
ATOM     25  C   UNL     1       5.706   5.488  19.109  0.00  0.00    +0.000 A 
ENDBRANCH  19  20
BRANCH  19  26
ATOM     26  C   UNL     1       2.816   7.167  18.372  0.00  0.00    +0.000 A 
ATOM     27  C   UNL     1       2.385   8.315  17.688  0.00  0.00    +0.000 A 
ATOM     28  C   UNL     1       1.605   9.286  18.322  0.00  0.00    +0.000 A 
ATOM     29  C   UNL     1       1.254   9.141  19.663  0.00  0.00    +0.000 A 
ATOM     30  C   UNL     1       1.693   8.028  20.370  0.00  0.00    +0.000 A 
ATOM     31  C   UNL     1       2.466   7.059  19.730  0.00  0.00    +0.000 A 
ENDBRANCH  19  26
ENDBRANCH   8  19
TORSDOF 6
ENDMDL
MODEL 7
REMARK VINA RESULT:      -8.0      2.786      6.735
REMARK  Name = 
REMARK  6 active torsions:
REMARK  status: ('A' for Active; 'I' for Inactive)
REMARK    1  A    between atoms: C_7  and  C_8
REMARK    2  A    between atoms: C_8  and  N_9
REMARK    3  A    between atoms: N_9  and  C_10
REMARK    4  A    between atoms: C_17  and  C_18
REMARK    5  A    between atoms: C_18  and  C_19
REMARK    6  A    between atoms: C_18  and  C_25
REMARK                            x       y       z     vdW  Elec       q    Type
REMARK                         _______ _______ _______ _____ _____    ______ ____
ROOT
ATOM      1  C   UNL     1       3.169   5.776  18.939  0.00  0.00    +0.000 C 
ATOM      2  C   UNL     1       2.010   4.726  18.982  0.00  0.00    +0.000 C 
ATOM      3  C   UNL     1       1.737   4.152  17.590  0.00  0.00    +0.000 C 
ATOM      4  C   UNL     1       2.970   3.391  17.109  0.00  0.00    +0.000 C 
ATOM      5  N   UNL     1       4.143   3.628  17.974  0.00  0.00    +0.000 NA
ATOM      6  C   UNL     1       3.836   3.029  19.298  0.00  0.00    +0.000 C 
ATOM      7  C   UNL     1       2.506   3.559  19.860  0.00  0.00    +0.000 C 
ATOM      8  C   UNL     1       4.399   5.106  18.159  0.00  0.00    +0.000 C 
ENDROOT
BRANCH   1   9
ATOM      9  N   UNL     1       2.719   7.169  18.676  0.00  0.00    +0.000 NA
ATOM     10  H   UNL     1       3.543   7.753  18.531  0.00  0.00    +0.000 HD
BRANCH   9  11
ATOM     11  C   UNL     1       2.051   7.703  19.906  0.00  0.00    +0.000 C 
BRANCH  11  18
ATOM     12 CL   UNL     1       0.997   9.038  22.511  0.00  0.00    +0.000 Cl
ATOM     13  C   UNL     1       0.637   9.569  20.902  0.00  0.00    +0.000 A 
ATOM     14  C   UNL     1      -0.255  10.645  20.781  0.00  0.00    +0.000 A 
ATOM     15  C   UNL     1      -0.631  11.104  19.525  0.00  0.00    +0.000 A 
ATOM     16  C   UNL     1      -0.110  10.490  18.389  0.00  0.00    +0.000 A 
ATOM     17  C   UNL     1       0.782   9.415  18.503  0.00  0.00    +0.000 A 
ATOM     18  C   UNL     1       1.182   8.940  19.760  0.00  0.00    +0.000 A 
ENDBRANCH  11  18
ENDBRANCH   9  11
ENDBRANCH   1   9
BRANCH   8  19
ATOM     19  C   UNL     1       5.186   5.877  17.000  0.00  0.00    +0.000 C 
BRANCH  19  20
ATOM     20  C   UNL     1       5.621   5.126  15.736  0.00  0.00    +0.000 A 
ATOM     21  C   UNL     1       6.977   5.014  15.376  0.00  0.00    +0.000 A 
ATOM     22  C   UNL     1       7.379   4.356  14.211  0.00  0.00    +0.000 A 
ATOM     23  C   UNL     1       6.424   3.841  13.347  0.00  0.00    +0.000 A 
ATOM     24  C   UNL     1       5.070   3.985  13.651  0.00  0.00    +0.000 A 
ATOM     25  C   UNL     1       4.672   4.611  14.837  0.00  0.00    +0.000 A 
ENDBRANCH  19  20
BRANCH  19  26
ATOM     26  C   UNL     1       6.390   6.679  17.582  0.00  0.00    +0.000 A 
ATOM     27  C   UNL     1       6.673   7.978  17.132  0.00  0.00    +0.000 A 
ATOM     28  C   UNL     1       7.753   8.703  17.645  0.00  0.00    +0.000 A 
ATOM     29  C   UNL     1       8.587   8.136  18.606  0.00  0.00    +0.000 A 
ATOM     30  C   UNL     1       8.346   6.841  19.047  0.00  0.00    +0.000 A 
ATOM     31  C   UNL     1       7.263   6.124  18.536  0.00  0.00    +0.000 A 
ENDBRANCH  19  26
ENDBRANCH   8  19
TORSDOF 6
ENDMDL
MODEL 8
REMARK VINA RESULT:      -7.9      1.581      4.478
REMARK  Name = 
REMARK  6 active torsions:
REMARK  status: ('A' for Active; 'I' for Inactive)
REMARK    1  A    between atoms: C_7  and  C_8
REMARK    2  A    between atoms: C_8  and  N_9
REMARK    3  A    between atoms: N_9  and  C_10
REMARK    4  A    between atoms: C_17  and  C_18
REMARK    5  A    between atoms: C_18  and  C_19
REMARK    6  A    between atoms: C_18  and  C_25
REMARK                            x       y       z     vdW  Elec       q    Type
REMARK                         _______ _______ _______ _____ _____    ______ ____
ROOT
ATOM      1  C   UNL     1       5.958   4.205  17.408  0.00  0.00    +0.000 C 
ATOM      2  C   UNL     1       7.278   5.001  17.144  0.00  0.00    +0.000 C 
ATOM      3  C   UNL     1       6.977   6.450  16.751  0.00  0.00    +0.000 C 
ATOM      4  C   UNL     1       6.291   7.154  17.920  0.00  0.00    +0.000 C 
ATOM      5  N   UNL     1       5.884   6.209  18.978  0.00  0.00    +0.000 NA
ATOM      6  C   UNL     1       7.128   5.651  19.566  0.00  0.00    +0.000 C 
ATOM      7  C   UNL     1       8.040   5.048  18.484  0.00  0.00    +0.000 C 
ATOM      8  C   UNL     1       5.062   5.073  18.414  0.00  0.00    +0.000 C 
ENDROOT
BRANCH   1   9
ATOM      9  N   UNL     1       5.393   3.545  16.200  0.00  0.00    +0.000 NA
ATOM     10  H   UNL     1       6.002   2.769  15.940  0.00  0.00    +0.000 HD
BRANCH   9  11
ATOM     11  C   UNL     1       5.446   4.507  15.053  0.00  0.00    +0.000 C 
BRANCH  11  18
ATOM     12 CL   UNL     1       8.125   5.360  13.719  0.00  0.00    +0.000 Cl
ATOM     13  C   UNL     1       6.933   4.332  12.996  0.00  0.00    +0.000 A 
ATOM     14  C   UNL     1       7.181   3.915  11.679  0.00  0.00    +0.000 A 
ATOM     15  C   UNL     1       6.254   3.125  11.011  0.00  0.00    +0.000 A 
ATOM     16  C   UNL     1       5.082   2.747  11.660  0.00  0.00    +0.000 A 
ATOM     17  C   UNL     1       4.830   3.160  12.977  0.00  0.00    +0.000 A 
ATOM     18  C   UNL     1       5.754   3.950  13.674  0.00  0.00    +0.000 A 
ENDBRANCH  11  18
ENDBRANCH   9  11
ENDBRANCH   1   9
BRANCH   8  19
ATOM     19  C   UNL     1       3.507   5.337  18.148  0.00  0.00    +0.000 C 
BRANCH  19  20
ATOM     20  C   UNL     1       2.893   6.702  18.479  0.00  0.00    +0.000 A 
ATOM     21  C   UNL     1       2.316   6.964  19.736  0.00  0.00    +0.000 A 
ATOM     22  C   UNL     1       1.728   8.195  20.035  0.00  0.00    +0.000 A 
ATOM     23  C   UNL     1       1.656   9.179  19.060  0.00  0.00    +0.000 A 
ATOM     24  C   UNL     1       2.171   8.928  17.788  0.00  0.00    +0.000 A 
ATOM     25  C   UNL     1       2.793   7.707  17.503  0.00  0.00    +0.000 A 
ENDBRANCH  19  20
BRANCH  19  26
ATOM     26  C   UNL     1       2.636   4.199  18.763  0.00  0.00    +0.000 A 
ATOM     27  C   UNL     1       3.010   3.577  19.964  0.00  0.00    +0.000 A 
ATOM     28  C   UNL     1       2.238   2.553  20.520  0.00  0.00    +0.000 A 
ATOM     29  C   UNL     1       1.082   2.116  19.877  0.00  0.00    +0.000 A 
ATOM     30  C   UNL     1       0.705   2.696  18.672  0.00  0.00    +0.000 A 
ATOM     31  C   UNL     1       1.477   3.721  18.124  0.00  0.00    +0.000 A 
ENDBRANCH  19  26
ENDBRANCH   8  19
TORSDOF 6
ENDMDL
MODEL 9
REMARK VINA RESULT:      -7.8      2.361      6.566
REMARK  Name = 
REMARK  6 active torsions:
REMARK  status: ('A' for Active; 'I' for Inactive)
REMARK    1  A    between atoms: C_7  and  C_8
REMARK    2  A    between atoms: C_8  and  N_9
REMARK    3  A    between atoms: N_9  and  C_10
REMARK    4  A    between atoms: C_17  and  C_18
REMARK    5  A    between atoms: C_18  and  C_19
REMARK    6  A    between atoms: C_18  and  C_25
REMARK                            x       y       z     vdW  Elec       q    Type
REMARK                         _______ _______ _______ _____ _____    ______ ____
ROOT
ATOM      1  C   UNL     1       2.956   5.413  18.612  0.00  0.00    +0.000 C 
ATOM      2  C   UNL     1       2.129   4.087  18.676  0.00  0.00    +0.000 C 
ATOM      3  C   UNL     1       2.306   3.266  17.396  0.00  0.00    +0.000 C 
ATOM      4  C   UNL     1       3.767   2.841  17.270  0.00  0.00    +0.000 C 
ATOM      5  N   UNL     1       4.634   3.531  18.245  0.00  0.00    +0.000 NA
ATOM      6  C   UNL     1       4.231   3.062  19.595  0.00  0.00    +0.000 C 
ATOM      7  C   UNL     1       2.723   3.253  19.830  0.00  0.00    +0.000 C 
ATOM      8  C   UNL     1       4.451   5.030  18.178  0.00  0.00    +0.000 C 
ENDROOT
BRANCH   1   9
ATOM      9  N   UNL     1       2.220   6.562  18.017  0.00  0.00    +0.000 NA
ATOM     10  H   UNL     1       2.545   6.692  17.058  0.00  0.00    +0.000 HD
BRANCH   9  11
ATOM     11  C   UNL     1       2.599   7.812  18.750  0.00  0.00    +0.000 C 
BRANCH  11  18
ATOM     12 CL   UNL     1       1.566  10.678  18.119  0.00  0.00    +0.000 Cl
ATOM     13  C   UNL     1       1.099   9.729  19.491  0.00  0.00    +0.000 A 
ATOM     14  C   UNL     1       0.239  10.342  20.414  0.00  0.00    +0.000 A 
ATOM     15  C   UNL     1      -0.148   9.666  21.564  0.00  0.00    +0.000 A 
ATOM     16  C   UNL     1       0.319   8.374  21.788  0.00  0.00    +0.000 A 
ATOM     17  C   UNL     1       1.178   7.756  20.868  0.00  0.00    +0.000 A 
ATOM     18  C   UNL     1       1.576   8.415  19.697  0.00  0.00    +0.000 A 
ENDBRANCH  11  18
ENDBRANCH   9  11
ENDBRANCH   1   9
BRANCH   8  19
ATOM     19  C   UNL     1       5.228   5.826  17.029  0.00  0.00    +0.000 C 
BRANCH  19  20
ATOM     20  C   UNL     1       5.648   5.103  15.744  0.00  0.00    +0.000 A 
ATOM     21  C   UNL     1       6.988   5.088  15.312  0.00  0.00    +0.000 A 
ATOM     22  C   UNL     1       7.373   4.456  14.128  0.00  0.00    +0.000 A 
ATOM     23  C   UNL     1       6.413   3.869  13.316  0.00  0.00    +0.000 A 
ATOM     24  C   UNL     1       5.071   3.917  13.691  0.00  0.00    +0.000 A 
ATOM     25  C   UNL     1       4.693   4.517  14.897  0.00  0.00    +0.000 A 
ENDBRANCH  19  20
BRANCH  19  26
ATOM     26  C   UNL     1       6.440   6.612  17.617  0.00  0.00    +0.000 A 
ATOM     27  C   UNL     1       7.264   6.035  18.596  0.00  0.00    +0.000 A 
ATOM     28  C   UNL     1       8.350   6.732  19.132  0.00  0.00    +0.000 A 
ATOM     29  C   UNL     1       8.626   8.032  18.714  0.00  0.00    +0.000 A 
ATOM     30  C   UNL     1       7.810   8.636  17.766  0.00  0.00    +0.000 A 
ATOM     31  C   UNL     1       6.730   7.933  17.230  0.00  0.00    +0.000 A 
ENDBRANCH  19  26
ENDBRANCH   8  19
TORSDOF 6
ENDMDL
