MODEL 1
REMARK VINA RESULT:      -8.0      0.000      0.000
REMARK  Name = 
REMARK  12 active torsions:
REMARK  status: ('A' for Active; 'I' for Inactive)
REMARK    1  A    between atoms: C_1  and  O_2
REMARK    2  A    between atoms: O_2  and  C_3
REMARK    3  A    between atoms: C_5  and  N_6
REMARK    4  A    between atoms: N_6  and  C_7
REMARK    5  A    between atoms: C_7  and  C_8
REMARK    6  A    between atoms: C_7  and  C_9
REMARK    7  A    between atoms: C_9  and  C_10
REMARK    8  A    between atoms: C_10  and  C_11
REMARK    9  A    between atoms: C_11  and  N_12
REMARK   10  A    between atoms: N_15  and  N_16
REMARK   11  A    between atoms: C_17  and  C_19
REMARK   12  A    between atoms: C_20  and  C_21
REMARK                            x       y       z     vdW  Elec       q    Type
REMARK                         _______ _______ _______ _____ _____    ______ ____
ROOT
ATOM      1  C   UNL     1       1.285   8.585  21.557  0.00  0.00    +0.000 C 
ENDROOT
BRANCH   1   2
ATOM      2  N   UNL     1       1.731   7.376  20.893  0.00  0.00    +0.000 N 
ATOM      3  C   UNL     1       2.236   7.388  19.621  0.00  0.00    +0.000 C 
ATOM      4  O   UNL     1       2.421   8.405  18.957  0.00  0.00    +0.000 OA
ATOM      5  N   UNL     1       2.504   6.130  19.131  0.00  0.00    +0.000 N 
ATOM      6  H   UNL     1       1.512   6.487  21.320  0.00  0.00    +0.000 HD
ATOM      7  H   UNL     1       2.580   5.310  19.725  0.00  0.00    +0.000 HD
BRANCH   5   8
ATOM      8  N   UNL     1       3.111   6.047  17.871  0.00  0.00    +0.000 N 
ATOM      9  C   UNL     1       4.444   5.721  17.780  0.00  0.00    +0.000 C 
ATOM     10  O   UNL     1       5.168   5.521  18.749  0.00  0.00    +0.000 OA
ATOM     11  H   UNL     1       2.503   6.230  17.075  0.00  0.00    +0.000 HD
BRANCH   9  12
ATOM     12  C   UNL     1       4.920   5.650  16.374  0.00  0.00    +0.000 C 
ATOM     13  C   UNL     1       5.577   4.570  15.921  0.00  0.00    +0.000 C 
BRANCH  13  14
ATOM     14  C   UNL     1       6.076   4.440  14.542  0.00  0.00    +0.000 A 
ATOM     15  C   UNL     1       7.208   5.135  14.088  0.00  0.00    +0.000 A 
ATOM     16  C   UNL     1       7.664   4.981  12.776  0.00  0.00    +0.000 A 
ATOM     17  C   UNL     1       7.004   4.119  11.904  0.00  0.00    +0.000 A 
ATOM     18  C   UNL     1       5.896   3.404  12.347  0.00  0.00    +0.000 A 
ATOM     19  C   UNL     1       5.437   3.557  13.660  0.00  0.00    +0.000 A 
ENDBRANCH  13  14
ENDBRANCH   9  12
ENDBRANCH   5   8
ENDBRANCH   1   2
BRANCH   1  20
ATOM     20  C   UNL     1      -0.213   8.823  21.398  0.00  0.00    +0.000 C 
BRANCH  20  21
ATOM     21  C   UNL     1      -0.540   9.839  20.296  0.00  0.00    +0.000 C 
BRANCH  21  22
ATOM     22  C   UNL     1      -0.227  11.281  20.727  0.00  0.00    +0.000 C 
ATOM     23  C   UNL     1      -0.561  11.478  22.205  0.00  0.00    +0.000 C 
BRANCH  22  24
ATOM     24  N   UNL     1      -0.978  12.218  19.897  0.00  0.00    +0.000 N 
ATOM     25  H   UNL     1      -0.489  12.675  19.126  0.00  0.00    +0.000 HD
BRANCH  24  28
ATOM     26  C   UNL     1      -4.647  12.666  20.383  0.00  0.00    +0.000 A 
ATOM     27  C   UNL     1      -3.278  12.647  20.625  0.00  0.00    +0.000 A 
ATOM     28  C   UNL     1      -2.364  12.163  19.673  0.00  0.00    +0.000 A 
ATOM     29  C   UNL     1      -2.844  11.719  18.415  0.00  0.00    +0.000 A 
ATOM     30  N   UNL     1      -1.986  11.295  17.451  0.00  0.00    +0.000 NA
ATOM     31  C   UNL     1      -2.493  10.905  16.260  0.00  0.00    +0.000 A 
ATOM     32  C   UNL     1      -3.837  10.886  15.957  0.00  0.00    +0.000 A 
ATOM     33  C   UNL     1      -4.724  11.300  16.941  0.00  0.00    +0.000 A 
ATOM     34  C   UNL     1      -4.240  11.731  18.184  0.00  0.00    +0.000 A 
ATOM     35  C   UNL     1      -5.127  12.182  19.174  0.00  0.00    +0.000 A 
BRANCH  26  37
ATOM     36  C   UNL     1      -5.108  13.407  22.577  0.00  0.00    +0.000 C 
ATOM     37  O   UNL     1      -5.591  13.106  21.269  0.00  0.00    +0.000 OA
ENDBRANCH  26  37
ENDBRANCH  24  28
ENDBRANCH  22  24
ENDBRANCH  21  22
ENDBRANCH  20  21
ENDBRANCH   1  20
TORSDOF 10
ENDMDL
MODEL 2
REMARK VINA RESULT:      -7.9      1.125      1.475
REMARK  Name = 
REMARK  12 active torsions:
REMARK  status: ('A' for Active; 'I' for Inactive)
REMARK    1  A    between atoms: C_1  and  O_2
REMARK    2  A    between atoms: O_2  and  C_3
REMARK    3  A    between atoms: C_5  and  N_6
REMARK    4  A    between atoms: N_6  and  C_7
REMARK    5  A    between atoms: C_7  and  C_8
REMARK    6  A    between atoms: C_7  and  C_9
REMARK    7  A    between atoms: C_9  and  C_10
REMARK    8  A    between atoms: C_10  and  C_11
REMARK    9  A    between atoms: C_11  and  N_12
REMARK   10  A    between atoms: N_15  and  N_16
REMARK   11  A    between atoms: C_17  and  C_19
REMARK   12  A    between atoms: C_20  and  C_21
REMARK                            x       y       z     vdW  Elec       q    Type
REMARK                         _______ _______ _______ _____ _____    ______ ____
ROOT
ATOM      1  C   UNL     1       1.081   7.016  20.836  0.00  0.00    +0.000 C 
ENDROOT
BRANCH   1   2
ATOM      2  N   UNL     1       2.366   6.369  20.662  0.00  0.00    +0.000 N 
ATOM      3  C   UNL     1       2.882   6.097  19.424  0.00  0.00    +0.000 C 
ATOM      4  O   UNL     1       2.354   6.425  18.364  0.00  0.00    +0.000 OA
ATOM      5  N   UNL     1       4.061   5.388  19.470  0.00  0.00    +0.000 N 
ATOM      6  H   UNL     1       2.814   5.967  21.473  0.00  0.00    +0.000 HD
ATOM      7  H   UNL     1       4.626   5.308  20.310  0.00  0.00    +0.000 HD
BRANCH   5   8
ATOM      8  N   UNL     1       4.712   5.143  18.254  0.00  0.00    +0.000 N 
ATOM      9  C   UNL     1       6.046   4.808  18.255  0.00  0.00    +0.000 C 
ATOM     10  O   UNL     1       6.734   4.734  19.267  0.00  0.00    +0.000 OA
ATOM     11  H   UNL     1       4.134   5.222  17.420  0.00  0.00    +0.000 HD
BRANCH   9  12
ATOM     12  C   UNL     1       6.572   4.556  16.887  0.00  0.00    +0.000 C 
ATOM     13  C   UNL     1       5.797   4.737  15.805  0.00  0.00    +0.000 C 
BRANCH  13  14
ATOM     14  C   UNL     1       6.257   4.501  14.427  0.00  0.00    +0.000 A 
ATOM     15  C   UNL     1       5.602   3.609  13.563  0.00  0.00    +0.000 A 
ATOM     16  C   UNL     1       6.056   3.416  12.255  0.00  0.00    +0.000 A 
ATOM     17  C   UNL     1       7.162   4.123  11.788  0.00  0.00    +0.000 A 
ATOM     18  C   UNL     1       7.805   5.030  12.625  0.00  0.00    +0.000 A 
ATOM     19  C   UNL     1       7.353   5.224  13.934  0.00  0.00    +0.000 A 
ENDBRANCH  13  14
ENDBRANCH   9  12
ENDBRANCH   5   8
ENDBRANCH   1   2
BRANCH   1  20
ATOM     20  C   UNL     1       1.212   8.489  21.213  0.00  0.00    +0.000 C 
BRANCH  20  21
ATOM     21  C   UNL     1      -0.141   9.206  21.290  0.00  0.00    +0.000 C 
BRANCH  21  22
ATOM     22  C   UNL     1       0.012  10.700  21.618  0.00  0.00    +0.000 C 
ATOM     23  C   UNL     1      -0.829  11.065  22.840  0.00  0.00    +0.000 C 
BRANCH  22  24
ATOM     24  N   UNL     1      -0.377  11.502  20.462  0.00  0.00    +0.000 N 
ATOM     25  H   UNL     1       0.288  11.588  19.692  0.00  0.00    +0.000 HD
BRANCH  24  28
ATOM     26  C   UNL     1      -3.850  12.841  20.261  0.00  0.00    +0.000 A 
ATOM     27  C   UNL     1      -2.565  12.574  20.719  0.00  0.00    +0.000 A 
ATOM     28  C   UNL     1      -1.699  11.705  20.033  0.00  0.00    +0.000 A 
ATOM     29  C   UNL     1      -2.130  11.116  18.818  0.00  0.00    +0.000 A 
ATOM     30  N   UNL     1      -1.301  10.313  18.099  0.00  0.00    +0.000 NA
ATOM     31  C   UNL     1      -1.753   9.795  16.934  0.00  0.00    +0.000 A 
ATOM     32  C   UNL     1      -3.017  10.007  16.428  0.00  0.00    +0.000 A 
ATOM     33  C   UNL     1      -3.878  10.810  17.164  0.00  0.00    +0.000 A 
ATOM     34  C   UNL     1      -3.445  11.384  18.367  0.00  0.00    +0.000 A 
ATOM     35  C   UNL     1      -4.297  12.223  19.101  0.00  0.00    +0.000 A 
BRANCH  26  37
ATOM     36  C   UNL     1      -4.646  13.704  22.309  0.00  0.00    +0.000 C 
ATOM     37  O   UNL     1      -4.749  13.660  20.888  0.00  0.00    +0.000 OA
ENDBRANCH  26  37
ENDBRANCH  24  28
ENDBRANCH  22  24
ENDBRANCH  21  22
ENDBRANCH  20  21
ENDBRANCH   1  20
TORSDOF 10
ENDMDL
MODEL 3
REMARK VINA RESULT:      -7.7      6.422      9.812
REMARK  Name = 
REMARK  12 active torsions:
REMARK  status: ('A' for Active; 'I' for Inactive)
REMARK    1  A    between atoms: C_1  and  O_2
REMARK    2  A    between atoms: O_2  and  C_3
REMARK    3  A    between atoms: C_5  and  N_6
REMARK    4  A    between atoms: N_6  and  C_7
REMARK    5  A    between atoms: C_7  and  C_8
REMARK    6  A    between atoms: C_7  and  C_9
REMARK    7  A    between atoms: C_9  and  C_10
REMARK    8  A    between atoms: C_10  and  C_11
REMARK    9  A    between atoms: C_11  and  N_12
REMARK   10  A    between atoms: N_15  and  N_16
REMARK   11  A    between atoms: C_17  and  C_19
REMARK   12  A    between atoms: C_20  and  C_21
REMARK                            x       y       z     vdW  Elec       q    Type
REMARK                         _______ _______ _______ _____ _____    ______ ____
ROOT
ATOM      1  C   UNL     1       7.609   5.361  18.248  0.00  0.00    +0.000 C 
ENDROOT
BRANCH   1   2
ATOM      2  N   UNL     1       8.121   6.533  18.931  0.00  0.00    +0.000 N 
ATOM      3  C   UNL     1       8.229   7.748  18.310  0.00  0.00    +0.000 C 
ATOM      4  O   UNL     1       7.850   7.979  17.164  0.00  0.00    +0.000 OA
ATOM      5  N   UNL     1       8.832   8.707  19.093  0.00  0.00    +0.000 N 
ATOM      6  H   UNL     1       8.556   6.409  19.834  0.00  0.00    +0.000 HD
ATOM      7  H   UNL     1       8.939   8.613  20.098  0.00  0.00    +0.000 HD
BRANCH   5   8
ATOM      8  N   UNL     1       8.903  10.007  18.577  0.00  0.00    +0.000 N 
ATOM      9  C   UNL     1       9.263  11.046  19.403  0.00  0.00    +0.000 C 
ATOM     10  O   UNL     1       9.505  10.919  20.598  0.00  0.00    +0.000 OA
ATOM     11  H   UNL     1       8.685  10.102  17.587  0.00  0.00    +0.000 HD
BRANCH   9  12
ATOM     12  C   UNL     1       9.315  12.350  18.691  0.00  0.00    +0.000 C 
ATOM     13  C   UNL     1      10.226  13.281  19.019  0.00  0.00    +0.000 C 
BRANCH  13  14
ATOM     14  C   UNL     1      10.326  14.591  18.356  0.00  0.00    +0.000 A 
ATOM     15  C   UNL     1       9.332  15.573  18.484  0.00  0.00    +0.000 A 
ATOM     16  C   UNL     1       9.463  16.812  17.850  0.00  0.00    +0.000 A 
ATOM     17  C   UNL     1      10.597  17.092  17.092  0.00  0.00    +0.000 A 
ATOM     18  C   UNL     1      11.604  16.137  16.977  0.00  0.00    +0.000 A 
ATOM     19  C   UNL     1      11.474  14.897  17.610  0.00  0.00    +0.000 A 
ENDBRANCH  13  14
ENDBRANCH   9  12
ENDBRANCH   5   8
ENDBRANCH   1   2
BRANCH   1  20
ATOM     20  C   UNL     1       6.128   5.484  17.904  0.00  0.00    +0.000 C 
BRANCH  20  21
ATOM     21  C   UNL     1       5.402   4.132  17.914  0.00  0.00    +0.000 C 
BRANCH  21  22
ATOM     22  C   UNL     1       4.617   3.887  16.616  0.00  0.00    +0.000 C 
ATOM     23  C   UNL     1       5.208   4.710  15.473  0.00  0.00    +0.000 C 
BRANCH  22  24
ATOM     24  N   UNL     1       3.210   4.218  16.820  0.00  0.00    +0.000 N 
ATOM     25  H   UNL     1       2.549   3.986  16.077  0.00  0.00    +0.000 HD
BRANCH  24  28
ATOM     26  C   UNL     1       1.711   3.224  20.085  0.00  0.00    +0.000 A 
ATOM     27  C   UNL     1       2.268   3.149  18.813  0.00  0.00    +0.000 A 
ATOM     28  C   UNL     1       2.577   4.303  18.072  0.00  0.00    +0.000 A 
ATOM     29  C   UNL     1       2.353   5.578  18.648  0.00  0.00    +0.000 A 
ATOM     30  N   UNL     1       2.689   6.714  17.983  0.00  0.00    +0.000 NA
ATOM     31  C   UNL     1       2.477   7.904  18.588  0.00  0.00    +0.000 A 
ATOM     32  C   UNL     1       1.917   8.051  19.838  0.00  0.00    +0.000 A 
ATOM     33  C   UNL     1       1.554   6.898  20.520  0.00  0.00    +0.000 A 
ATOM     34  C   UNL     1       1.773   5.642  19.938  0.00  0.00    +0.000 A 
ATOM     35  C   UNL     1       1.439   4.470  20.633  0.00  0.00    +0.000 A 
BRANCH  26  37
ATOM     36  C   UNL     1       1.370   2.371  22.261  0.00  0.00    +0.000 C 
ATOM     37  O   UNL     1       1.370   2.144  20.853  0.00  0.00    +0.000 OA
ENDBRANCH  26  37
ENDBRANCH  24  28
ENDBRANCH  22  24
ENDBRANCH  21  22
ENDBRANCH  20  21
ENDBRANCH   1  20
TORSDOF 10
ENDMDL
MODEL 4
REMARK VINA RESULT:      -7.7      3.325     11.915
REMARK  Name = 
REMARK  12 active torsions:
REMARK  status: ('A' for Active; 'I' for Inactive)
REMARK    1  A    between atoms: C_1  and  O_2
REMARK    2  A    between atoms: O_2  and  C_3
REMARK    3  A    between atoms: C_5  and  N_6
REMARK    4  A    between atoms: N_6  and  C_7
REMARK    5  A    between atoms: C_7  and  C_8
REMARK    6  A    between atoms: C_7  and  C_9
REMARK    7  A    between atoms: C_9  and  C_10
REMARK    8  A    between atoms: C_10  and  C_11
REMARK    9  A    between atoms: C_11  and  N_12
REMARK   10  A    between atoms: N_15  and  N_16
REMARK   11  A    between atoms: C_17  and  C_19
REMARK   12  A    between atoms: C_20  and  C_21
REMARK                            x       y       z     vdW  Elec       q    Type
REMARK                         _______ _______ _______ _____ _____    ______ ____
ROOT
ATOM      1  C   UNL     1       2.743   6.678  19.178  0.00  0.00    +0.000 C 
ENDROOT
BRANCH   1   2
ATOM      2  N   UNL     1       2.215   8.000  18.903  0.00  0.00    +0.000 N 
ATOM      3  C   UNL     1       1.474   8.693  19.822  0.00  0.00    +0.000 C 
ATOM      4  O   UNL     1       1.246   8.305  20.965  0.00  0.00    +0.000 OA
ATOM      5  N   UNL     1       0.977   9.881  19.335  0.00  0.00    +0.000 N 
ATOM      6  H   UNL     1       2.258   8.346  17.955  0.00  0.00    +0.000 HD
ATOM      7  H   UNL     1       1.333  10.327  18.495  0.00  0.00    +0.000 HD
BRANCH   5   8
ATOM      8  N   UNL     1       0.284  10.704  20.232  0.00  0.00    +0.000 N 
ATOM      9  C   UNL     1       0.813  11.924  20.581  0.00  0.00    +0.000 C 
ATOM     10  O   UNL     1       1.891  12.345  20.175  0.00  0.00    +0.000 OA
ATOM     11  H   UNL     1      -0.602  10.337  20.573  0.00  0.00    +0.000 HD
BRANCH   9  12
ATOM     12  C   UNL     1      -0.060  12.679  21.518  0.00  0.00    +0.000 C 
ATOM     13  C   UNL     1      -1.181  12.128  22.013  0.00  0.00    +0.000 C 
BRANCH  13  14
ATOM     14  C   UNL     1      -2.089  12.823  22.940  0.00  0.00    +0.000 A 
ATOM     15  C   UNL     1      -1.990  14.201  23.191  0.00  0.00    +0.000 A 
ATOM     16  C   UNL     1      -2.875  14.834  24.068  0.00  0.00    +0.000 A 
ATOM     17  C   UNL     1      -3.880  14.102  24.695  0.00  0.00    +0.000 A 
ATOM     18  C   UNL     1      -4.007  12.740  24.435  0.00  0.00    +0.000 A 
ATOM     19  C   UNL     1      -3.122  12.105  23.559  0.00  0.00    +0.000 A 
ENDBRANCH  13  14
ENDBRANCH   9  12
ENDBRANCH   5   8
ENDBRANCH   1   2
BRANCH   1  20
ATOM     20  C   UNL     1       2.233   5.628  18.196  0.00  0.00    +0.000 C 
BRANCH  20  21
ATOM     21  C   UNL     1       1.816   4.323  18.886  0.00  0.00    +0.000 C 
BRANCH  21  22
ATOM     22  C   UNL     1       2.408   3.086  18.192  0.00  0.00    +0.000 C 
ATOM     23  C   UNL     1       1.821   1.808  18.790  0.00  0.00    +0.000 C 
BRANCH  22  24
ATOM     24  N   UNL     1       3.862   3.097  18.319  0.00  0.00    +0.000 N 
ATOM     25  H   UNL     1       4.306   2.330  18.826  0.00  0.00    +0.000 HD
BRANCH  24  28
ATOM     26  C   UNL     1       5.372   4.223  15.102  0.00  0.00    +0.000 A 
ATOM     27  C   UNL     1       4.549   3.575  16.016  0.00  0.00    +0.000 A 
ATOM     28  C   UNL     1       4.745   3.694  17.402  0.00  0.00    +0.000 A 
ATOM     29  C   UNL     1       5.782   4.529  17.887  0.00  0.00    +0.000 A 
ATOM     30  N   UNL     1       5.967   4.711  19.220  0.00  0.00    +0.000 NA
ATOM     31  C   UNL     1       6.956   5.538  19.629  0.00  0.00    +0.000 A 
ATOM     32  C   UNL     1       7.815   6.200  18.780  0.00  0.00    +0.000 A 
ATOM     33  C   UNL     1       7.647   6.007  17.415  0.00  0.00    +0.000 A 
ATOM     34  C   UNL     1       6.622   5.174  16.947  0.00  0.00    +0.000 A 
ATOM     35  C   UNL     1       6.424   4.999  15.569  0.00  0.00    +0.000 A 
BRANCH  26  37
ATOM     36  C   UNL     1       6.468   3.927  13.031  0.00  0.00    +0.000 C 
ATOM     37  O   UNL     1       5.250   4.136  13.742  0.00  0.00    +0.000 OA
ENDBRANCH  26  37
ENDBRANCH  24  28
ENDBRANCH  22  24
ENDBRANCH  21  22
ENDBRANCH  20  21
ENDBRANCH   1  20
TORSDOF 10
ENDMDL
MODEL 5
REMARK VINA RESULT:      -7.6      2.116      3.700
REMARK  Name = 
REMARK  12 active torsions:
REMARK  status: ('A' for Active; 'I' for Inactive)
REMARK    1  A    between atoms: C_1  and  O_2
REMARK    2  A    between atoms: O_2  and  C_3
REMARK    3  A    between atoms: C_5  and  N_6
REMARK    4  A    between atoms: N_6  and  C_7
REMARK    5  A    between atoms: C_7  and  C_8
REMARK    6  A    between atoms: C_7  and  C_9
REMARK    7  A    between atoms: C_9  and  C_10
REMARK    8  A    between atoms: C_10  and  C_11
REMARK    9  A    between atoms: C_11  and  N_12
REMARK   10  A    between atoms: N_15  and  N_16
REMARK   11  A    between atoms: C_17  and  C_19
REMARK   12  A    between atoms: C_20  and  C_21
REMARK                            x       y       z     vdW  Elec       q    Type
REMARK                         _______ _______ _______ _____ _____    ______ ____
ROOT
ATOM      1  C   UNL     1      -0.707  10.276  21.367  0.00  0.00    +0.000 C 
ENDROOT
BRANCH   1   2
ATOM      2  N   UNL     1       0.072   9.091  21.672  0.00  0.00    +0.000 N 
ATOM      3  C   UNL     1       0.956   8.552  20.777  0.00  0.00    +0.000 C 
ATOM      4  O   UNL     1       1.222   9.042  19.682  0.00  0.00    +0.000 OA
ATOM      5  N   UNL     1       1.518   7.373  21.211  0.00  0.00    +0.000 N 
ATOM      6  H   UNL     1      -0.165   8.562  22.499  0.00  0.00    +0.000 HD
ATOM      7  H   UNL     1       1.496   7.074  22.181  0.00  0.00    +0.000 HD
BRANCH   5   8
ATOM      8  N   UNL     1       2.505   6.795  20.402  0.00  0.00    +0.000 N 
ATOM      9  C   UNL     1       2.617   5.425  20.344  0.00  0.00    +0.000 C 
ATOM     10  O   UNL     1       1.916   4.652  20.987  0.00  0.00    +0.000 OA
ATOM     11  H   UNL     1       3.090   7.447  19.885  0.00  0.00    +0.000 HD
BRANCH   9  12
ATOM     12  C   UNL     1       3.694   4.980  19.421  0.00  0.00    +0.000 C 
ATOM     13  C   UNL     1       4.094   5.756  18.400  0.00  0.00    +0.000 C 
BRANCH  13  14
ATOM     14  C   UNL     1       5.150   5.371  17.450  0.00  0.00    +0.000 A 
ATOM     15  C   UNL     1       6.422   4.955  17.875  0.00  0.00    +0.000 A 
ATOM     16  C   UNL     1       7.401   4.585  16.948  0.00  0.00    +0.000 A 
ATOM     17  C   UNL     1       7.116   4.610  15.585  0.00  0.00    +0.000 A 
ATOM     18  C   UNL     1       5.851   4.994  15.150  0.00  0.00    +0.000 A 
ATOM     19  C   UNL     1       4.871   5.366  16.076  0.00  0.00    +0.000 A 
ENDBRANCH  13  14
ENDBRANCH   9  12
ENDBRANCH   5   8
ENDBRANCH   1   2
BRANCH   1  20
ATOM     20  C   UNL     1      -0.069  11.551  21.910  0.00  0.00    +0.000 C 
BRANCH  20  21
ATOM     21  C   UNL     1      -0.961  12.786  21.727  0.00  0.00    +0.000 C 
BRANCH  21  22
ATOM     22  C   UNL     1      -1.292  13.047  20.249  0.00  0.00    +0.000 C 
ATOM     23  C   UNL     1      -0.489  14.236  19.725  0.00  0.00    +0.000 C 
BRANCH  22  24
ATOM     24  N   UNL     1      -2.725  13.282  20.099  0.00  0.00    +0.000 N 
ATOM     25  H   UNL     1      -3.062  14.245  20.154  0.00  0.00    +0.000 HD
BRANCH  24  28
ATOM     26  C   UNL     1      -3.994  10.844  17.581  0.00  0.00    +0.000 A 
ATOM     27  C   UNL     1      -3.152  11.712  18.267  0.00  0.00    +0.000 A 
ATOM     28  C   UNL     1      -3.602  12.466  19.364  0.00  0.00    +0.000 A 
ATOM     29  C   UNL     1      -4.937  12.309  19.812  0.00  0.00    +0.000 A 
ATOM     30  N   UNL     1      -5.392  12.980  20.902  0.00  0.00    +0.000 NA
ATOM     31  C   UNL     1      -6.668  12.777  21.302  0.00  0.00    +0.000 A 
ATOM     32  C   UNL     1      -7.558  11.942  20.662  0.00  0.00    +0.000 A 
ATOM     33  C   UNL     1      -7.110  11.265  19.536  0.00  0.00    +0.000 A 
ATOM     34  C   UNL     1      -5.789  11.432  19.098  0.00  0.00    +0.000 A 
ATOM     35  C   UNL     1      -5.318  10.727  17.980  0.00  0.00    +0.000 A 
BRANCH  26  37
ATOM     36  C   UNL     1      -2.755  10.743  15.573  0.00  0.00    +0.000 C 
ATOM     37  O   UNL     1      -3.627  10.095  16.496  0.00  0.00    +0.000 OA
ENDBRANCH  26  37
ENDBRANCH  24  28
ENDBRANCH  22  24
ENDBRANCH  21  22
ENDBRANCH  20  21
ENDBRANCH   1  20
TORSDOF 10
ENDMDL
MODEL 6
REMARK VINA RESULT:      -7.6      6.952     10.826
REMARK  Name = 
REMARK  12 active torsions:
REMARK  status: ('A' for Active; 'I' for Inactive)
REMARK    1  A    between atoms: C_1  and  O_2
REMARK    2  A    between atoms: O_2  and  C_3
REMARK    3  A    between atoms: C_5  and  N_6
REMARK    4  A    between atoms: N_6  and  C_7
REMARK    5  A    between atoms: C_7  and  C_8
REMARK    6  A    between atoms: C_7  and  C_9
REMARK    7  A    between atoms: C_9  and  C_10
REMARK    8  A    between atoms: C_10  and  C_11
REMARK    9  A    between atoms: C_11  and  N_12
REMARK   10  A    between atoms: N_15  and  N_16
REMARK   11  A    between atoms: C_17  and  C_19
REMARK   12  A    between atoms: C_20  and  C_21
REMARK                            x       y       z     vdW  Elec       q    Type
REMARK                         _______ _______ _______ _____ _____    ______ ____
ROOT
ATOM      1  C   UNL     1       7.667   8.028  17.277  0.00  0.00    +0.000 C 
ENDROOT
BRANCH   1   2
ATOM      2  N   UNL     1       8.451   8.457  18.418  0.00  0.00    +0.000 N 
ATOM      3  C   UNL     1       8.738   9.776  18.650  0.00  0.00    +0.000 C 
ATOM      4  O   UNL     1       8.315  10.708  17.970  0.00  0.00    +0.000 OA
ATOM      5  N   UNL     1       9.579   9.969  19.722  0.00  0.00    +0.000 N 
ATOM      6  H   UNL     1       8.930   7.754  18.962  0.00  0.00    +0.000 HD
ATOM      7  H   UNL     1       9.752   9.257  20.425  0.00  0.00    +0.000 HD
BRANCH   5   8
ATOM      8  N   UNL     1       9.856  11.291  20.092  0.00  0.00    +0.000 N 
ATOM      9  C   UNL     1      11.057  11.858  19.735  0.00  0.00    +0.000 C 
ATOM     10  O   UNL     1      11.939  11.266  19.124  0.00  0.00    +0.000 OA
ATOM     11  H   UNL     1       9.121  11.767  20.612  0.00  0.00    +0.000 HD
BRANCH   9  12
ATOM     12  C   UNL     1      11.176  13.271  20.182  0.00  0.00    +0.000 C 
ATOM     13  C   UNL     1      10.350  13.773  21.115  0.00  0.00    +0.000 C 
BRANCH  13  14
ATOM     14  C   UNL     1      10.414  15.162  21.596  0.00  0.00    +0.000 A 
ATOM     15  C   UNL     1      11.108  16.164  20.900  0.00  0.00    +0.000 A 
ATOM     16  C   UNL     1      11.140  17.477  21.377  0.00  0.00    +0.000 A 
ATOM     17  C   UNL     1      10.467  17.810  22.550  0.00  0.00    +0.000 A 
ATOM     18  C   UNL     1       9.753  16.834  23.237  0.00  0.00    +0.000 A 
ATOM     19  C   UNL     1       9.720  15.519  22.761  0.00  0.00    +0.000 A 
ENDBRANCH  13  14
ENDBRANCH   9  12
ENDBRANCH   5   8
ENDBRANCH   1   2
BRANCH   1  20
ATOM     20  C   UNL     1       6.798   6.813  17.587  0.00  0.00    +0.000 C 
BRANCH  20  21
ATOM     21  C   UNL     1       7.104   5.616  16.677  0.00  0.00    +0.000 C 
BRANCH  21  22
ATOM     22  C   UNL     1       5.981   4.566  16.704  0.00  0.00    +0.000 C 
ATOM     23  C   UNL     1       6.011   3.724  15.430  0.00  0.00    +0.000 C 
BRANCH  22  24
ATOM     24  N   UNL     1       4.690   5.229  16.858  0.00  0.00    +0.000 N 
ATOM     25  H   UNL     1       4.129   5.388  16.020  0.00  0.00    +0.000 HD
BRANCH  24  28
ATOM     26  C   UNL     1       3.153   4.017  20.031  0.00  0.00    +0.000 A 
ATOM     27  C   UNL     1       3.879   4.047  18.845  0.00  0.00    +0.000 A 
ATOM     28  C   UNL     1       3.893   5.181  18.015  0.00  0.00    +0.000 A 
ATOM     29  C   UNL     1       3.185   6.341  18.414  0.00  0.00    +0.000 A 
ATOM     30  N   UNL     1       3.220   7.474  17.665  0.00  0.00    +0.000 NA
ATOM     31  C   UNL     1       2.546   8.561  18.103  0.00  0.00    +0.000 A 
ATOM     32  C   UNL     1       1.798   8.597  19.260  0.00  0.00    +0.000 A 
ATOM     33  C   UNL     1       1.740   7.439  20.024  0.00  0.00    +0.000 A 
ATOM     34  C   UNL     1       2.439   6.295  19.617  0.00  0.00    +0.000 A 
ATOM     35  C   UNL     1       2.413   5.131  20.400  0.00  0.00    +0.000 A 
BRANCH  26  37
ATOM     36  C   UNL     1       1.802   2.712  21.461  0.00  0.00    +0.000 C 
ATOM     37  O   UNL     1       3.081   2.942  20.875  0.00  0.00    +0.000 OA
ENDBRANCH  26  37
ENDBRANCH  24  28
ENDBRANCH  22  24
ENDBRANCH  21  22
ENDBRANCH  20  21
ENDBRANCH   1  20
TORSDOF 10
ENDMDL
MODEL 7
REMARK VINA RESULT:      -7.6      1.605      2.981
REMARK  Name = 
REMARK  12 active torsions:
REMARK  status: ('A' for Active; 'I' for Inactive)
REMARK    1  A    between atoms: C_1  and  O_2
REMARK    2  A    between atoms: O_2  and  C_3
REMARK    3  A    between atoms: C_5  and  N_6
REMARK    4  A    between atoms: N_6  and  C_7
REMARK    5  A    between atoms: C_7  and  C_8
REMARK    6  A    between atoms: C_7  and  C_9
REMARK    7  A    between atoms: C_9  and  C_10
REMARK    8  A    between atoms: C_10  and  C_11
REMARK    9  A    between atoms: C_11  and  N_12
REMARK   10  A    between atoms: N_15  and  N_16
REMARK   11  A    between atoms: C_17  and  C_19
REMARK   12  A    between atoms: C_20  and  C_21
REMARK                            x       y       z     vdW  Elec       q    Type
REMARK                         _______ _______ _______ _____ _____    ______ ____
ROOT
ATOM      1  C   UNL     1       0.976   8.212  20.949  0.00  0.00    +0.000 C 
ENDROOT
BRANCH   1   2
ATOM      2  N   UNL     1       2.047   7.239  20.859  0.00  0.00    +0.000 N 
ATOM      3  C   UNL     1       2.518   6.785  19.657  0.00  0.00    +0.000 C 
ATOM      4  O   UNL     1       2.137   7.194  18.562  0.00  0.00    +0.000 OA
ATOM      5  N   UNL     1       3.462   5.791  19.783  0.00  0.00    +0.000 N 
ATOM      6  H   UNL     1       2.340   6.769  21.704  0.00  0.00    +0.000 HD
ATOM      7  H   UNL     1       3.953   5.602  20.651  0.00  0.00    +0.000 HD
BRANCH   5   8
ATOM      8  N   UNL     1       4.069   5.327  18.609  0.00  0.00    +0.000 N 
ATOM      9  C   UNL     1       5.435   5.174  18.567  0.00  0.00    +0.000 C 
ATOM     10  O   UNL     1       6.184   5.447  19.498  0.00  0.00    +0.000 OA
ATOM     11  H   UNL     1       3.438   5.118  17.838  0.00  0.00    +0.000 HD
BRANCH   9  12
ATOM     12  C   UNL     1       5.911   4.650  17.260  0.00  0.00    +0.000 C 
ATOM     13  C   UNL     1       5.651   5.305  16.117  0.00  0.00    +0.000 C 
BRANCH  13  14
ATOM     14  C   UNL     1       6.090   4.836  14.792  0.00  0.00    +0.000 A 
ATOM     15  C   UNL     1       5.331   3.937  14.027  0.00  0.00    +0.000 A 
ATOM     16  C   UNL     1       5.770   3.520  12.767  0.00  0.00    +0.000 A 
ATOM     17  C   UNL     1       6.966   4.008  12.248  0.00  0.00    +0.000 A 
ATOM     18  C   UNL     1       7.717   4.920  12.984  0.00  0.00    +0.000 A 
ATOM     19  C   UNL     1       7.280   5.338  14.245  0.00  0.00    +0.000 A 
ENDBRANCH  13  14
ENDBRANCH   9  12
ENDBRANCH   5   8
ENDBRANCH   1   2
BRANCH   1  20
ATOM     20  C   UNL     1       1.332   9.539  20.286  0.00  0.00    +0.000 C 
BRANCH  20  21
ATOM     21  C   UNL     1       0.234  10.044  19.341  0.00  0.00    +0.000 C 
BRANCH  21  22
ATOM     22  C   UNL     1       0.286  11.570  19.157  0.00  0.00    +0.000 C 
ATOM     23  C   UNL     1       1.462  12.159  19.934  0.00  0.00    +0.000 C 
BRANCH  22  24
ATOM     24  N   UNL     1      -0.974  12.163  19.595  0.00  0.00    +0.000 N 
ATOM     25  H   UNL     1      -0.935  13.019  20.150  0.00  0.00    +0.000 HD
BRANCH  24  28
ATOM     26  C   UNL     1      -3.466  11.411  16.926  0.00  0.00    +0.000 A 
ATOM     27  C   UNL     1      -2.256  11.611  17.580  0.00  0.00    +0.000 A 
ATOM     28  C   UNL     1      -2.200  12.037  18.919  0.00  0.00    +0.000 A 
ATOM     29  C   UNL     1      -3.407  12.228  19.636  0.00  0.00    +0.000 A 
ATOM     30  N   UNL     1      -3.391  12.586  20.947  0.00  0.00    +0.000 NA
ATOM     31  C   UNL     1      -4.571  12.732  21.591  0.00  0.00    +0.000 A 
ATOM     32  C   UNL     1      -5.805  12.562  21.002  0.00  0.00    +0.000 A 
ATOM     33  C   UNL     1      -5.833  12.214  19.658  0.00  0.00    +0.000 A 
ATOM     34  C   UNL     1      -4.633  12.033  18.956  0.00  0.00    +0.000 A 
ATOM     35  C   UNL     1      -4.651  11.650  17.607  0.00  0.00    +0.000 A 
BRANCH  26  37
ATOM     36  C   UNL     1      -2.843   9.858  15.259  0.00  0.00    +0.000 C 
ATOM     37  O   UNL     1      -3.592  11.016  15.622  0.00  0.00    +0.000 OA
ENDBRANCH  26  37
ENDBRANCH  24  28
ENDBRANCH  22  24
ENDBRANCH  21  22
ENDBRANCH  20  21
ENDBRANCH   1  20
TORSDOF 10
ENDMDL
MODEL 8
REMARK VINA RESULT:      -7.6      1.112      1.598
REMARK  Name = 
REMARK  12 active torsions:
REMARK  status: ('A' for Active; 'I' for Inactive)
REMARK    1  A    between atoms: C_1  and  O_2
REMARK    2  A    between atoms: O_2  and  C_3
REMARK    3  A    between atoms: C_5  and  N_6
REMARK    4  A    between atoms: N_6  and  C_7
REMARK    5  A    between atoms: C_7  and  C_8
REMARK    6  A    between atoms: C_7  and  C_9
REMARK    7  A    between atoms: C_9  and  C_10
REMARK    8  A    between atoms: C_10  and  C_11
REMARK    9  A    between atoms: C_11  and  N_12
REMARK   10  A    between atoms: N_15  and  N_16
REMARK   11  A    between atoms: C_17  and  C_19
REMARK   12  A    between atoms: C_20  and  C_21
REMARK                            x       y       z     vdW  Elec       q    Type
REMARK                         _______ _______ _______ _____ _____    ______ ____
ROOT
ATOM      1  C   UNL     1       1.503   8.487  21.276  0.00  0.00    +0.000 C 
ENDROOT
BRANCH   1   2
ATOM      2  N   UNL     1       1.861   7.165  20.801  0.00  0.00    +0.000 N 
ATOM      3  C   UNL     1       2.286   6.942  19.519  0.00  0.00    +0.000 C 
ATOM      4  O   UNL     1       2.467   7.826  18.684  0.00  0.00    +0.000 OA
ATOM      5  N   UNL     1       2.477   5.609  19.233  0.00  0.00    +0.000 N 
ATOM      6  H   UNL     1       1.637   6.370  21.382  0.00  0.00    +0.000 HD
ATOM      7  H   UNL     1       2.560   4.896  19.951  0.00  0.00    +0.000 HD
BRANCH   5   8
ATOM      8  N   UNL     1       3.001   5.290  17.973  0.00  0.00    +0.000 N 
ATOM      9  C   UNL     1       4.297   4.843  17.871  0.00  0.00    +0.000 C 
ATOM     10  O   UNL     1       5.059   4.727  18.825  0.00  0.00    +0.000 OA
ATOM     11  H   UNL     1       2.363   5.406  17.188  0.00  0.00    +0.000 HD
BRANCH   9  12
ATOM     12  C   UNL     1       4.683   4.526  16.471  0.00  0.00    +0.000 C 
ATOM     13  C   UNL     1       5.839   4.972  15.954  0.00  0.00    +0.000 C 
BRANCH  13  14
ATOM     14  C   UNL     1       6.275   4.695  14.576  0.00  0.00    +0.000 A 
ATOM     15  C   UNL     1       7.383   5.337  13.999  0.00  0.00    +0.000 A 
ATOM     16  C   UNL     1       7.779   5.043  12.691  0.00  0.00    +0.000 A 
ATOM     17  C   UNL     1       7.083   4.094  11.947  0.00  0.00    +0.000 A 
ATOM     18  C   UNL     1       5.999   3.430  12.515  0.00  0.00    +0.000 A 
ATOM     19  C   UNL     1       5.601   3.723  13.823  0.00  0.00    +0.000 A 
ENDBRANCH  13  14
ENDBRANCH   9  12
ENDBRANCH   5   8
ENDBRANCH   1   2
BRANCH   1  20
ATOM     20  C   UNL     1       0.084   8.886  20.880  0.00  0.00    +0.000 C 
BRANCH  20  21
ATOM     21  C   UNL     1      -0.005  10.329  20.367  0.00  0.00    +0.000 C 
BRANCH  21  22
ATOM     22  C   UNL     1      -1.171  10.522  19.383  0.00  0.00    +0.000 C 
ATOM     23  C   UNL     1      -0.726  10.187  17.960  0.00  0.00    +0.000 C 
BRANCH  22  24
ATOM     24  N   UNL     1      -1.662  11.894  19.463  0.00  0.00    +0.000 N 
ATOM     25  H   UNL     1      -1.338  12.562  18.762  0.00  0.00    +0.000 HD
BRANCH  24  28
ATOM     26  C   UNL     1      -4.190  13.313  21.807  0.00  0.00    +0.000 A 
ATOM     27  C   UNL     1      -2.982  12.864  21.286  0.00  0.00    +0.000 A 
ATOM     28  C   UNL     1      -2.899  12.275  20.012  0.00  0.00    +0.000 A 
ATOM     29  C   UNL     1      -4.068  12.172  19.218  0.00  0.00    +0.000 A 
ATOM     30  N   UNL     1      -4.016  11.658  17.962  0.00  0.00    +0.000 NA
ATOM     31  C   UNL     1      -5.156  11.604  17.237  0.00  0.00    +0.000 A 
ATOM     32  C   UNL     1      -6.388  12.019  17.696  0.00  0.00    +0.000 A 
ATOM     33  C   UNL     1      -6.456  12.529  18.985  0.00  0.00    +0.000 A 
ATOM     34  C   UNL     1      -5.295  12.620  19.764  0.00  0.00    +0.000 A 
ATOM     35  C   UNL     1      -5.348  13.164  21.056  0.00  0.00    +0.000 A 
BRANCH  26  37
ATOM     36  C   UNL     1      -5.644  14.399  23.318  0.00  0.00    +0.000 C 
ATOM     37  O   UNL     1      -4.346  13.878  23.044  0.00  0.00    +0.000 OA
ENDBRANCH  26  37
ENDBRANCH  24  28
ENDBRANCH  22  24
ENDBRANCH  21  22
ENDBRANCH  20  21
ENDBRANCH   1  20
TORSDOF 10
ENDMDL
MODEL 9
REMARK VINA RESULT:      -7.5      4.478      7.718
REMARK  Name = 
REMARK  12 active torsions:
REMARK  status: ('A' for Active; 'I' for Inactive)
REMARK    1  A    between atoms: C_1  and  O_2
REMARK    2  A    between atoms: O_2  and  C_3
REMARK    3  A    between atoms: C_5  and  N_6
REMARK    4  A    between atoms: N_6  and  C_7
REMARK    5  A    between atoms: C_7  and  C_8
REMARK    6  A    between atoms: C_7  and  C_9
REMARK    7  A    between atoms: C_9  and  C_10
REMARK    8  A    between atoms: C_10  and  C_11
REMARK    9  A    between atoms: C_11  and  N_12
REMARK   10  A    between atoms: N_15  and  N_16
REMARK   11  A    between atoms: C_17  and  C_19
REMARK   12  A    between atoms: C_20  and  C_21
REMARK                            x       y       z     vdW  Elec       q    Type
REMARK                         _______ _______ _______ _____ _____    ______ ____
ROOT
ATOM      1  C   UNL     1       4.755   2.670  19.526  0.00  0.00    +0.000 C 
ENDROOT
BRANCH   1   2
ATOM      2  N   UNL     1       5.722   3.483  18.814  0.00  0.00    +0.000 N 
ATOM      3  C   UNL     1       5.939   4.797  19.127  0.00  0.00    +0.000 C 
ATOM      4  O   UNL     1       5.400   5.387  20.062  0.00  0.00    +0.000 OA
ATOM      5  N   UNL     1       6.817   5.423  18.271  0.00  0.00    +0.000 N 
ATOM      6  H   UNL     1       6.125   3.114  17.965  0.00  0.00    +0.000 HD
ATOM      7  H   UNL     1       7.439   4.915  17.650  0.00  0.00    +0.000 HD
BRANCH   5   8
ATOM      8  N   UNL     1       7.172   6.745  18.567  0.00  0.00    +0.000 N 
ATOM      9  C   UNL     1       7.673   7.552  17.572  0.00  0.00    +0.000 C 
ATOM     10  O   UNL     1       7.863   7.180  16.420  0.00  0.00    +0.000 OA
ATOM     11  H   UNL     1       7.023   7.037  19.531  0.00  0.00    +0.000 HD
BRANCH   9  12
ATOM     12  C   UNL     1       7.972   8.928  18.049  0.00  0.00    +0.000 C 
ATOM     13  C   UNL     1       9.209   9.268  18.446  0.00  0.00    +0.000 C 
BRANCH  13  14
ATOM     14  C   UNL     1       9.567  10.610  18.932  0.00  0.00    +0.000 A 
ATOM     15  C   UNL     1      10.182  11.565  18.106  0.00  0.00    +0.000 A 
ATOM     16  C   UNL     1      10.499  12.836  18.594  0.00  0.00    +0.000 A 
ATOM     17  C   UNL     1      10.193  13.175  19.910  0.00  0.00    +0.000 A 
ATOM     18  C   UNL     1       9.559  12.248  20.732  0.00  0.00    +0.000 A 
ATOM     19  C   UNL     1       9.242  10.976  20.246  0.00  0.00    +0.000 A 
ENDBRANCH  13  14
ENDBRANCH   9  12
ENDBRANCH   5   8
ENDBRANCH   1   2
BRANCH   1  20
ATOM     20  C   UNL     1       3.344   3.246  19.460  0.00  0.00    +0.000 C 
BRANCH  20  21
ATOM     21  C   UNL     1       2.724   3.459  20.847  0.00  0.00    +0.000 C 
BRANCH  21  22
ATOM     22  C   UNL     1       1.652   4.561  20.839  0.00  0.00    +0.000 C 
ATOM     23  C   UNL     1       0.851   4.514  19.539  0.00  0.00    +0.000 C 
BRANCH  22  24
ATOM     24  N   UNL     1       2.284   5.866  21.012  0.00  0.00    +0.000 N 
ATOM     25  H   UNL     1       3.143   5.915  21.562  0.00  0.00    +0.000 HD
BRANCH  24  28
ATOM     26  C   UNL     1       2.656   7.889  17.903  0.00  0.00    +0.000 A 
ATOM     27  C   UNL     1       2.806   6.873  18.839  0.00  0.00    +0.000 A 
ATOM     28  C   UNL     1       2.189   6.932  20.101  0.00  0.00    +0.000 A 
ATOM     29  C   UNL     1       1.358   8.036  20.415  0.00  0.00    +0.000 A 
ATOM     30  N   UNL     1       0.703   8.102  21.604  0.00  0.00    +0.000 NA
ATOM     31  C   UNL     1      -0.097   9.165  21.844  0.00  0.00    +0.000 A 
ATOM     32  C   UNL     1      -0.280  10.213  20.968  0.00  0.00    +0.000 A 
ATOM     33  C   UNL     1       0.399  10.165  19.757  0.00  0.00    +0.000 A 
ATOM     34  C   UNL     1       1.223   9.072  19.459  0.00  0.00    +0.000 A 
ATOM     35  C   UNL     1       1.887   8.999  18.226  0.00  0.00    +0.000 A 
BRANCH  26  37
ATOM     36  C   UNL     1       4.317   6.987  16.489  0.00  0.00    +0.000 C 
ATOM     37  O   UNL     1       3.240   7.904  16.666  0.00  0.00    +0.000 OA
ENDBRANCH  26  37
ENDBRANCH  24  28
ENDBRANCH  22  24
ENDBRANCH  21  22
ENDBRANCH  20  21
ENDBRANCH   1  20
TORSDOF 10
ENDMDL
