MODEL 1
REMARK VINA RESULT:      -6.0      0.000      0.000
REMARK  Name = 
REMARK  2 active torsions:
REMARK  status: ('A' for Active; 'I' for Inactive)
REMARK    1  A    between atoms: C_1  and  N_2
REMARK    2  A    between atoms: C_6  and  C_7
REMARK                            x       y       z     vdW  Elec       q    Type
REMARK                         _______ _______ _______ _____ _____    ______ ____
ROOT
ATOM      1  C   UNL     1       1.290   4.523  20.484  0.00  0.00    +0.000 C 
ATOM      2  N   UNL     1       1.807   4.448  19.126  0.00  0.00    +0.000 NA
ATOM      3  C   UNL     1       1.426   3.232  18.414  0.00  0.00    +0.000 C 
ATOM      4  C   UNL     1       2.513   2.269  17.913  0.00  0.00    +0.000 C 
ATOM      5  C   UNL     1       3.902   2.810  17.891  0.00  0.00    +0.000 C 
ATOM      6  C   UNL     1       4.201   4.020  18.376  0.00  0.00    +0.000 C 
ATOM      7  C   UNL     1       3.181   4.938  18.999  0.00  0.00    +0.000 C 
ENDROOT
BRANCH   6   8
ATOM      8  C   UNL     1       5.533   4.561  18.372  0.00  0.00    +0.000 A 
ATOM      9  N   UNL     1       6.087   5.084  19.476  0.00  0.00    +0.000 NA
ATOM     10  S   UNL     1       7.618   5.569  19.018  0.00  0.00    +0.000 S 
ATOM     11  N   UNL     1       7.603   5.134  17.405  0.00  0.00    +0.000 NA
ATOM     12  C   UNL     1       6.398   4.594  17.217  0.00  0.00    +0.000 A 
ATOM     13 CL   UNL     1       6.001   4.005  15.665  0.00  0.00    +0.000 Cl
ENDBRANCH   6   8
TORSDOF 1
ENDMDL
MODEL 2
REMARK VINA RESULT:      -6.0      2.746      4.849
REMARK  Name = 
REMARK  2 active torsions:
REMARK  status: ('A' for Active; 'I' for Inactive)
REMARK    1  A    between atoms: C_1  and  N_2
REMARK    2  A    between atoms: C_6  and  C_7
REMARK                            x       y       z     vdW  Elec       q    Type
REMARK                         _______ _______ _______ _____ _____    ______ ____
ROOT
ATOM      1  C   UNL     1       7.337   5.886  18.960  0.00  0.00    +0.000 C 
ATOM      2  N   UNL     1       6.965   4.643  18.304  0.00  0.00    +0.000 NA
ATOM      3  C   UNL     1       7.387   4.562  16.908  0.00  0.00    +0.000 C 
ATOM      4  C   UNL     1       6.335   4.405  15.800  0.00  0.00    +0.000 C 
ATOM      5  C   UNL     1       4.971   4.006  16.250  0.00  0.00    +0.000 C 
ATOM      6  C   UNL     1       4.654   3.895  17.544  0.00  0.00    +0.000 C 
ATOM      7  C   UNL     1       5.625   4.173  18.662  0.00  0.00    +0.000 C 
ENDROOT
BRANCH   6   8
ATOM      8  C   UNL     1       3.344   3.519  18.003  0.00  0.00    +0.000 A 
ATOM      9  N   UNL     1       3.005   2.236  18.203  0.00  0.00    +0.000 NA
ATOM     10  S   UNL     1       1.423   2.272  18.736  0.00  0.00    +0.000 S 
ATOM     11  N   UNL     1       1.133   3.917  18.711  0.00  0.00    +0.000 NA
ATOM     12  C   UNL     1       2.281   4.452  18.294  0.00  0.00    +0.000 A 
ATOM     13 CL   UNL     1       2.387   6.149  18.150  0.00  0.00    +0.000 Cl
ENDBRANCH   6   8
TORSDOF 1
ENDMDL
MODEL 3
REMARK VINA RESULT:      -6.0      2.318      2.976
REMARK  Name = 
REMARK  2 active torsions:
REMARK  status: ('A' for Active; 'I' for Inactive)
REMARK    1  A    between atoms: C_1  and  N_2
REMARK    2  A    between atoms: C_6  and  C_7
REMARK                            x       y       z     vdW  Elec       q    Type
REMARK                         _______ _______ _______ _____ _____    ______ ____
ROOT
ATOM      1  C   UNL     1       2.847   2.659  19.718  0.00  0.00    +0.000 C 
ATOM      2  N   UNL     1       3.640   3.878  19.683  0.00  0.00    +0.000 NA
ATOM      3  C   UNL     1       2.883   5.085  20.003  0.00  0.00    +0.000 C 
ATOM      4  C   UNL     1       2.766   6.210  18.963  0.00  0.00    +0.000 C 
ATOM      5  C   UNL     1       3.717   6.139  17.817  0.00  0.00    +0.000 C 
ATOM      6  C   UNL     1       4.549   5.106  17.647  0.00  0.00    +0.000 C 
ATOM      7  C   UNL     1       4.596   3.919  18.575  0.00  0.00    +0.000 C 
ENDROOT
BRANCH   6   8
ATOM      8  C   UNL     1       5.470   5.012  16.547  0.00  0.00    +0.000 A 
ATOM      9  N   UNL     1       5.187   4.298  15.447  0.00  0.00    +0.000 NA
ATOM     10  S   UNL     1       6.513   4.479  14.447  0.00  0.00    +0.000 S 
ATOM     11  N   UNL     1       7.477   5.457  15.397  0.00  0.00    +0.000 NA
ATOM     12  C   UNL     1       6.760   5.659  16.504  0.00  0.00    +0.000 A 
ATOM     13 CL   UNL     1       7.417   6.641  17.735  0.00  0.00    +0.000 Cl
ENDBRANCH   6   8
TORSDOF 1
ENDMDL
MODEL 4
REMARK VINA RESULT:      -6.0      1.144      1.144
REMARK  Name = 
REMARK  2 active torsions:
REMARK  status: ('A' for Active; 'I' for Inactive)
REMARK    1  A    between atoms: C_1  and  N_2
REMARK    2  A    between atoms: C_6  and  C_7
REMARK                            x       y       z     vdW  Elec       q    Type
REMARK                         _______ _______ _______ _____ _____    ______ ____
ROOT
ATOM      1  C   UNL     1       1.722   3.635  20.982  0.00  0.00    +0.000 C 
ATOM      2  N   UNL     1       1.947   4.236  19.676  0.00  0.00    +0.000 NA
ATOM      3  C   UNL     1       1.461   3.428  18.562  0.00  0.00    +0.000 C 
ATOM      4  C   UNL     1       2.447   2.929  17.494  0.00  0.00    +0.000 C 
ATOM      5  C   UNL     1       3.785   3.587  17.485  0.00  0.00    +0.000 C 
ATOM      6  C   UNL     1       4.143   4.481  18.413  0.00  0.00    +0.000 C 
ATOM      7  C   UNL     1       3.249   4.894  19.555  0.00  0.00    +0.000 C 
ENDROOT
BRANCH   6   8
ATOM      8  C   UNL     1       5.429   5.124  18.430  0.00  0.00    +0.000 A 
ATOM      9  N   UNL     1       6.333   4.873  19.388  0.00  0.00    +0.000 NA
ATOM     10  S   UNL     1       7.658   5.815  19.007  0.00  0.00    +0.000 S 
ATOM     11  N   UNL     1       7.105   6.570  17.624  0.00  0.00    +0.000 NA
ATOM     12  C   UNL     1       5.878   6.079  17.444  0.00  0.00    +0.000 A 
ATOM     13 CL   UNL     1       4.974   6.610  16.097  0.00  0.00    +0.000 Cl
ENDBRANCH   6   8
TORSDOF 1
ENDMDL
MODEL 5
REMARK VINA RESULT:      -5.9      2.458      2.771
REMARK  Name = 
REMARK  2 active torsions:
REMARK  status: ('A' for Active; 'I' for Inactive)
REMARK    1  A    between atoms: C_1  and  N_2
REMARK    2  A    between atoms: C_6  and  C_7
REMARK                            x       y       z     vdW  Elec       q    Type
REMARK                         _______ _______ _______ _____ _____    ______ ____
ROOT
ATOM      1  C   UNL     1       4.519   1.902  20.531  0.00  0.00    +0.000 C 
ATOM      2  N   UNL     1       3.821   3.004  19.887  0.00  0.00    +0.000 NA
ATOM      3  C   UNL     1       2.414   2.732  19.609  0.00  0.00    +0.000 C 
ATOM      4  C   UNL     1       1.904   2.755  18.160  0.00  0.00    +0.000 C 
ATOM      5  C   UNL     1       2.811   3.388  17.160  0.00  0.00    +0.000 C 
ATOM      6  C   UNL     1       4.037   3.813  17.483  0.00  0.00    +0.000 C 
ATOM      7  C   UNL     1       4.622   3.683  18.866  0.00  0.00    +0.000 C 
ENDROOT
BRANCH   6   8
ATOM      8  C   UNL     1       4.933   4.419  16.536  0.00  0.00    +0.000 A 
ATOM      9  N   UNL     1       5.730   3.685  15.745  0.00  0.00    +0.000 NA
ATOM     10  S   UNL     1       6.572   4.787  14.815  0.00  0.00    +0.000 S 
ATOM     11  N   UNL     1       5.950   6.220  15.408  0.00  0.00    +0.000 NA
ATOM     12  C   UNL     1       5.067   5.843  16.334  0.00  0.00    +0.000 A 
ATOM     13 CL   UNL     1       4.197   7.048  17.172  0.00  0.00    +0.000 Cl
ENDBRANCH   6   8
TORSDOF 1
ENDMDL
MODEL 6
REMARK VINA RESULT:      -5.9      2.584      3.268
REMARK  Name = 
REMARK  2 active torsions:
REMARK  status: ('A' for Active; 'I' for Inactive)
REMARK    1  A    between atoms: C_1  and  N_2
REMARK    2  A    between atoms: C_6  and  C_7
REMARK                            x       y       z     vdW  Elec       q    Type
REMARK                         _______ _______ _______ _____ _____    ______ ____
ROOT
ATOM      1  C   UNL     1       2.103   4.789  20.155  0.00  0.00    +0.000 C 
ATOM      2  N   UNL     1       3.045   5.847  19.825  0.00  0.00    +0.000 NA
ATOM      3  C   UNL     1       2.421   7.151  19.615  0.00  0.00    +0.000 C 
ATOM      4  C   UNL     1       2.555   7.850  18.254  0.00  0.00    +0.000 C 
ATOM      5  C   UNL     1       3.599   7.304  17.341  0.00  0.00    +0.000 C 
ATOM      6  C   UNL     1       4.304   6.209  17.643  0.00  0.00    +0.000 C 
ATOM      7  C   UNL     1       4.105   5.418  18.910  0.00  0.00    +0.000 C 
ENDROOT
BRANCH   6   8
ATOM      8  C   UNL     1       5.311   5.659  16.776  0.00  0.00    +0.000 A 
ATOM      9  N   UNL     1       5.064   4.607  15.982  0.00  0.00    +0.000 NA
ATOM     10  S   UNL     1       6.490   4.325  15.159  0.00  0.00    +0.000 S 
ATOM     11  N   UNL     1       7.453   5.528  15.804  0.00  0.00    +0.000 NA
ATOM     12  C   UNL     1       6.658   6.167  16.663  0.00  0.00    +0.000 A 
ATOM     13 CL   UNL     1       7.291   7.496  17.528  0.00  0.00    +0.000 Cl
ENDBRANCH   6   8
TORSDOF 1
ENDMDL
MODEL 7
REMARK VINA RESULT:      -5.9      1.385      2.209
REMARK  Name = 
REMARK  2 active torsions:
REMARK  status: ('A' for Active; 'I' for Inactive)
REMARK    1  A    between atoms: C_1  and  N_2
REMARK    2  A    between atoms: C_6  and  C_7
REMARK                            x       y       z     vdW  Elec       q    Type
REMARK                         _______ _______ _______ _____ _____    ______ ____
ROOT
ATOM      1  C   UNL     1       2.264   2.154  17.986  0.00  0.00    +0.000 C 
ATOM      2  N   UNL     1       2.788   2.840  19.157  0.00  0.00    +0.000 NA
ATOM      3  C   UNL     1       1.784   3.603  19.894  0.00  0.00    +0.000 C 
ATOM      4  C   UNL     1       1.946   5.122  20.055  0.00  0.00    +0.000 C 
ATOM      5  C   UNL     1       3.295   5.671  19.735  0.00  0.00    +0.000 C 
ATOM      6  C   UNL     1       4.273   4.906  19.238  0.00  0.00    +0.000 C 
ATOM      7  C   UNL     1       4.107   3.438  18.940  0.00  0.00    +0.000 C 
ENDROOT
BRANCH   6   8
ATOM      8  C   UNL     1       5.579   5.413  18.915  0.00  0.00    +0.000 A 
ATOM      9  N   UNL     1       6.626   5.247  19.737  0.00  0.00    +0.000 NA
ATOM     10  S   UNL     1       7.917   5.973  18.965  0.00  0.00    +0.000 S 
ATOM     11  N   UNL     1       7.168   6.524  17.577  0.00  0.00    +0.000 NA
ATOM     12  C   UNL     1       5.900   6.132  17.704  0.00  0.00    +0.000 A 
ATOM     13 CL   UNL     1       4.800   6.504  16.453  0.00  0.00    +0.000 Cl
ENDBRANCH   6   8
TORSDOF 1
ENDMDL
MODEL 8
REMARK VINA RESULT:      -5.8      0.994      1.611
REMARK  Name = 
REMARK  2 active torsions:
REMARK  status: ('A' for Active; 'I' for Inactive)
REMARK    1  A    between atoms: C_1  and  N_2
REMARK    2  A    between atoms: C_6  and  C_7
REMARK                            x       y       z     vdW  Elec       q    Type
REMARK                         _______ _______ _______ _____ _____    ______ ____
ROOT
ATOM      1  C   UNL     1       2.189   1.696  19.024  0.00  0.00    +0.000 C 
ATOM      2  N   UNL     1       2.441   3.077  19.404  0.00  0.00    +0.000 NA
ATOM      3  C   UNL     1       1.459   4.023  18.881  0.00  0.00    +0.000 C 
ATOM      4  C   UNL     1       1.912   5.151  17.941  0.00  0.00    +0.000 C 
ATOM      5  C   UNL     1       3.379   5.409  17.893  0.00  0.00    +0.000 C 
ATOM      6  C   UNL     1       4.258   4.640  18.545  0.00  0.00    +0.000 C 
ATOM      7  C   UNL     1       3.859   3.441  19.368  0.00  0.00    +0.000 C 
ENDROOT
BRANCH   6   8
ATOM      8  C   UNL     1       5.677   4.864  18.509  0.00  0.00    +0.000 A 
ATOM      9  N   UNL     1       6.339   5.380  19.555  0.00  0.00    +0.000 NA
ATOM     10  S   UNL     1       7.938   5.451  19.079  0.00  0.00    +0.000 S 
ATOM     11  N   UNL     1       7.820   4.838  17.529  0.00  0.00    +0.000 NA
ATOM     12  C   UNL     1       6.523   4.563  17.378  0.00  0.00    +0.000 A 
ATOM     13 CL   UNL     1       5.997   3.894  15.898  0.00  0.00    +0.000 Cl
ENDBRANCH   6   8
TORSDOF 1
ENDMDL
MODEL 9
REMARK VINA RESULT:      -5.8      1.872      2.039
REMARK  Name = 
REMARK  2 active torsions:
REMARK  status: ('A' for Active; 'I' for Inactive)
REMARK    1  A    between atoms: C_1  and  N_2
REMARK    2  A    between atoms: C_6  and  C_7
REMARK                            x       y       z     vdW  Elec       q    Type
REMARK                         _______ _______ _______ _____ _____    ______ ____
ROOT
ATOM      1  C   UNL     1       1.915   5.359  20.067  0.00  0.00    +0.000 C 
ATOM      2  N   UNL     1       1.959   4.718  18.762  0.00  0.00    +0.000 NA
ATOM      3  C   UNL     1       1.459   3.346  18.759  0.00  0.00    +0.000 C 
ATOM      4  C   UNL     1       2.390   2.195  18.348  0.00  0.00    +0.000 C 
ATOM      5  C   UNL     1       3.648   2.592  17.654  0.00  0.00    +0.000 C 
ATOM      6  C   UNL     1       3.997   3.873  17.492  0.00  0.00    +0.000 C 
ATOM      7  C   UNL     1       3.173   5.027  18.003  0.00  0.00    +0.000 C 
ENDROOT
BRANCH   6   8
ATOM      8  C   UNL     1       5.208   4.280  16.833  0.00  0.00    +0.000 A 
ATOM      9  N   UNL     1       5.379   4.129  15.511  0.00  0.00    +0.000 NA
ATOM     10  S   UNL     1       6.900   4.739  15.187  0.00  0.00    +0.000 S 
ATOM     11  N   UNL     1       7.375   5.196  16.722  0.00  0.00    +0.000 NA
ATOM     12  C   UNL     1       6.338   4.883  17.500  0.00  0.00    +0.000 A 
ATOM     13 CL   UNL     1       6.439   5.217  19.170  0.00  0.00    +0.000 Cl
ENDBRANCH   6   8
TORSDOF 1
ENDMDL
