MODEL 1
REMARK VINA RESULT:      -9.8      0.000      0.000
REMARK  Name = 
REMARK  7 active torsions:
REMARK  status: ('A' for Active; 'I' for Inactive)
REMARK    1  A    between atoms: C_2  and  C_3
REMARK    2  A    between atoms: C_3  and  C_4
REMARK    3  A    between atoms: N_12  and  C_13
REMARK    4  A    between atoms: C_17  and  C_18
REMARK    5  A    between atoms: C_18  and  C_20
REMARK    6  A    between atoms: C_24  and  C_25
REMARK    7  A    between atoms: C_26  and  C_27
REMARK                            x       y       z     vdW  Elec       q    Type
REMARK                         _______ _______ _______ _____ _____    ______ ____
ROOT
ATOM      1  C   UNL     1      -0.570  10.797  22.647  0.00  0.00    +0.000 C 
ATOM      2  O   UNL     1      -0.596  10.241  23.745  0.00  0.00    +0.000 OA
ENDROOT
BRANCH   1   3
ATOM      3  C   UNL     1       0.166  10.127  21.545  0.00  0.00    +0.000 A 
ATOM      4  C   UNL     1       0.779   8.903  21.840  0.00  0.00    +0.000 A 
ATOM      5  C   UNL     1       1.487   8.194  20.864  0.00  0.00    +0.000 A 
ATOM      6  C   UNL     1       1.588   8.733  19.569  0.00  0.00    +0.000 A 
ATOM      7  C   UNL     1       2.140   8.312  18.321  0.00  0.00    +0.000 A 
ATOM      8  N   UNL     1       1.976   9.255  17.380  0.00  0.00    +0.000 NA
ATOM      9  N   UNL     1       1.311  10.238  18.004  0.00  0.00    +0.000 N 
ATOM     10  C   UNL     1       1.015   9.976  19.314  0.00  0.00    +0.000 A 
ATOM     11  C   UNL     1       0.302  10.711  20.274  0.00  0.00    +0.000 A 
ATOM     12  H   UNL     1       1.059  11.058  17.464  0.00  0.00    +0.000 HD
BRANCH   7  13
ATOM     13  C   UNL     1       2.697   7.011  18.069  0.00  0.00    +0.000 C 
ATOM     14  C   UNL     1       1.953   5.905  17.893  0.00  0.00    +0.000 C 
BRANCH  14  15
ATOM     15  C   UNL     1       2.439   4.517  17.874  0.00  0.00    +0.000 A 
ATOM     16  C   UNL     1       1.559   3.528  18.352  0.00  0.00    +0.000 A 
ATOM     17  C   UNL     1       1.953   2.193  18.441  0.00  0.00    +0.000 A 
ATOM     18  C   UNL     1       3.233   1.821  18.041  0.00  0.00    +0.000 A 
ATOM     19  C   UNL     1       4.109   2.781  17.540  0.00  0.00    +0.000 A 
ATOM     20  C   UNL     1       3.711   4.121  17.451  0.00  0.00    +0.000 A 
ENDBRANCH  14  15
ENDBRANCH   7  13
ENDBRANCH   1   3
BRANCH   1  25
ATOM     21  C   UNL     1      -3.285  13.445  22.182  0.00  0.00    +0.000 A 
ATOM     22  C   UNL     1      -2.489  14.595  22.217  0.00  0.00    +0.000 A 
ATOM     23  C   UNL     1      -1.108  14.504  22.400  0.00  0.00    +0.000 A 
ATOM     24  C   UNL     1      -0.506  13.257  22.528  0.00  0.00    +0.000 A 
ATOM     25  C   UNL     1      -1.283  12.092  22.483  0.00  0.00    +0.000 A 
ATOM     26  C   UNL     1      -2.678  12.190  22.346  0.00  0.00    +0.000 A 
BRANCH  21  29
ATOM     27  O   UNL     1      -5.390  12.443  23.982  0.00  0.00    +0.000 OA
ATOM     28  C   UNL     1      -5.627  12.935  22.880  0.00  0.00    +0.000 C 
ATOM     29  N   UNL     1      -4.690  13.495  22.022  0.00  0.00    +0.000 N 
ATOM     30  H   UNL     1      -5.047  14.084  21.278  0.00  0.00    +0.000 HD
BRANCH  28  31
ATOM     31  C   UNL     1      -7.050  12.998  22.359  0.00  0.00    +0.000 C 
BRANCH  31  32
ATOM     32  C   UNL     1      -7.160  12.691  20.891  0.00  0.00    +0.000 A 
ATOM     33  C   UNL     1      -6.935  11.398  20.398  0.00  0.00    +0.000 A 
ATOM     34  C   UNL     1      -7.020  11.151  19.027  0.00  0.00    +0.000 A 
ATOM     35  F   UNL     1      -6.791   9.915  18.566  0.00  0.00    +0.000 F 
ATOM     36  C   UNL     1      -7.331  12.168  18.132  0.00  0.00    +0.000 A 
ATOM     37  C   UNL     1      -7.578  13.453  18.614  0.00  0.00    +0.000 A 
ATOM     38  C   UNL     1      -7.498  13.700  19.984  0.00  0.00    +0.000 A 
ATOM     39  F   UNL     1      -7.753  14.935  20.439  0.00  0.00    +0.000 F 
ENDBRANCH  31  32
ENDBRANCH  28  31
ENDBRANCH  21  29
ENDBRANCH   1  25
TORSDOF 7
ENDMDL
MODEL 2
REMARK VINA RESULT:      -9.5      6.212     12.282
REMARK  Name = 
REMARK  7 active torsions:
REMARK  status: ('A' for Active; 'I' for Inactive)
REMARK    1  A    between atoms: C_2  and  C_3
REMARK    2  A    between atoms: C_3  and  C_4
REMARK    3  A    between atoms: N_12  and  C_13
REMARK    4  A    between atoms: C_17  and  C_18
REMARK    5  A    between atoms: C_18  and  C_20
REMARK    6  A    between atoms: C_24  and  C_25
REMARK    7  A    between atoms: C_26  and  C_27
REMARK                            x       y       z     vdW  Elec       q    Type
REMARK                         _______ _______ _______ _____ _____    ______ ____
ROOT
ATOM      1  C   UNL     1       3.176   5.870  18.530  0.00  0.00    +0.000 C 
ATOM      2  O   UNL     1       2.617   4.786  18.691  0.00  0.00    +0.000 OA
ENDROOT
BRANCH   1   3
ATOM      3  C   UNL     1       2.437   7.099  18.916  0.00  0.00    +0.000 A 
ATOM      4  C   UNL     1       2.022   7.199  20.250  0.00  0.00    +0.000 A 
ATOM      5  C   UNL     1       1.328   8.323  20.710  0.00  0.00    +0.000 A 
ATOM      6  C   UNL     1       1.037   9.361  19.807  0.00  0.00    +0.000 A 
ATOM      7  C   UNL     1       0.432  10.652  19.885  0.00  0.00    +0.000 A 
ATOM      8  N   UNL     1       0.381  11.234  18.676  0.00  0.00    +0.000 NA
ATOM      9  N   UNL     1       0.965  10.350  17.855  0.00  0.00    +0.000 N 
ATOM     10  C   UNL     1       1.413   9.214  18.474  0.00  0.00    +0.000 A 
ATOM     11  C   UNL     1       2.108   8.097  17.985  0.00  0.00    +0.000 A 
ATOM     12  H   UNL     1       1.054  10.598  16.876  0.00  0.00    +0.000 HD
BRANCH   7  13
ATOM     13  C   UNL     1       0.032  11.297  21.106  0.00  0.00    +0.000 C 
ATOM     14  C   UNL     1      -1.235  11.656  21.377  0.00  0.00    +0.000 C 
BRANCH  14  15
ATOM     15  C   UNL     1      -1.683  12.523  22.477  0.00  0.00    +0.000 A 
ATOM     16  C   UNL     1      -2.934  12.229  23.049  0.00  0.00    +0.000 A 
ATOM     17  C   UNL     1      -3.478  13.036  24.048  0.00  0.00    +0.000 A 
ATOM     18  C   UNL     1      -2.774  14.146  24.502  0.00  0.00    +0.000 A 
ATOM     19  C   UNL     1      -1.521  14.439  23.966  0.00  0.00    +0.000 A 
ATOM     20  C   UNL     1      -0.976  13.627  22.963  0.00  0.00    +0.000 A 
ENDBRANCH  14  15
ENDBRANCH   7  13
ENDBRANCH   1   3
BRANCH   1  25
ATOM     21  C   UNL     1       6.602   7.013  17.280  0.00  0.00    +0.000 A 
ATOM     22  C   UNL     1       7.147   5.769  16.947  0.00  0.00    +0.000 A 
ATOM     23  C   UNL     1       6.420   4.593  17.139  0.00  0.00    +0.000 A 
ATOM     24  C   UNL     1       5.127   4.653  17.647  0.00  0.00    +0.000 A 
ATOM     25  C   UNL     1       4.555   5.889  17.975  0.00  0.00    +0.000 A 
ATOM     26  C   UNL     1       5.308   7.066  17.825  0.00  0.00    +0.000 A 
BRANCH  21  29
ATOM     27  O   UNL     1       8.727   8.144  18.976  0.00  0.00    +0.000 OA
ATOM     28  C   UNL     1       8.258   8.734  18.005  0.00  0.00    +0.000 C 
ATOM     29  N   UNL     1       7.314   8.225  17.123  0.00  0.00    +0.000 N 
ATOM     30  H   UNL     1       7.208   8.709  16.238  0.00  0.00    +0.000 HD
BRANCH  28  31
ATOM     31  C   UNL     1       8.725  10.136  17.661  0.00  0.00    +0.000 C 
BRANCH  31  32
ATOM     32  C   UNL     1       9.433  10.822  18.797  0.00  0.00    +0.000 A 
ATOM     33  C   UNL     1       8.851  10.912  20.070  0.00  0.00    +0.000 A 
ATOM     34  C   UNL     1       9.521  11.577  21.097  0.00  0.00    +0.000 A 
ATOM     35  F   UNL     1       8.951  11.668  22.305  0.00  0.00    +0.000 F 
ATOM     36  C   UNL     1      10.768  12.154  20.884  0.00  0.00    +0.000 A 
ATOM     37  C   UNL     1      11.365  12.053  19.629  0.00  0.00    +0.000 A 
ATOM     38  C   UNL     1      10.698  11.383  18.603  0.00  0.00    +0.000 A 
ATOM     39  F   UNL     1      11.288  11.276  17.404  0.00  0.00    +0.000 F 
ENDBRANCH  31  32
ENDBRANCH  28  31
ENDBRANCH  21  29
ENDBRANCH   1  25
TORSDOF 7
ENDMDL
MODEL 3
REMARK VINA RESULT:      -9.5      4.618      6.690
REMARK  Name = 
REMARK  7 active torsions:
REMARK  status: ('A' for Active; 'I' for Inactive)
REMARK    1  A    between atoms: C_2  and  C_3
REMARK    2  A    between atoms: C_3  and  C_4
REMARK    3  A    between atoms: N_12  and  C_13
REMARK    4  A    between atoms: C_17  and  C_18
REMARK    5  A    between atoms: C_18  and  C_20
REMARK    6  A    between atoms: C_24  and  C_25
REMARK    7  A    between atoms: C_26  and  C_27
REMARK                            x       y       z     vdW  Elec       q    Type
REMARK                         _______ _______ _______ _____ _____    ______ ____
ROOT
ATOM      1  C   UNL     1       0.982   9.038  20.532  0.00  0.00    +0.000 C 
ATOM      2  O   UNL     1       0.861   8.897  21.749  0.00  0.00    +0.000 OA
ENDROOT
BRANCH   1   3
ATOM      3  C   UNL     1       1.838   8.071  19.800  0.00  0.00    +0.000 A 
ATOM      4  C   UNL     1       2.290   8.456  18.531  0.00  0.00    +0.000 A 
ATOM      5  C   UNL     1       3.109   7.616  17.769  0.00  0.00    +0.000 A 
ATOM      6  C   UNL     1       3.470   6.361  18.290  0.00  0.00    +0.000 A 
ATOM      7  C   UNL     1       4.308   5.280  17.879  0.00  0.00    +0.000 A 
ATOM      8  N   UNL     1       4.271   4.277  18.770  0.00  0.00    +0.000 NA
ATOM      9  N   UNL     1       3.456   4.719  19.738  0.00  0.00    +0.000 N 
ATOM     10  C   UNL     1       2.964   5.979  19.530  0.00  0.00    +0.000 A 
ATOM     11  C   UNL     1       2.139   6.800  20.315  0.00  0.00    +0.000 A 
ATOM     12  H   UNL     1       3.298   4.117  20.538  0.00  0.00    +0.000 HD
BRANCH   7  13
ATOM     13  C   UNL     1       5.165   5.301  16.725  0.00  0.00    +0.000 C 
ATOM     14  C   UNL     1       4.790   4.861  15.512  0.00  0.00    +0.000 C 
BRANCH  14  15
ATOM     15  C   UNL     1       5.667   4.625  14.356  0.00  0.00    +0.000 A 
ATOM     16  C   UNL     1       5.205   3.722  13.381  0.00  0.00    +0.000 A 
ATOM     17  C   UNL     1       5.996   3.376  12.284  0.00  0.00    +0.000 A 
ATOM     18  C   UNL     1       7.259   3.939  12.137  0.00  0.00    +0.000 A 
ATOM     19  C   UNL     1       7.723   4.857  13.078  0.00  0.00    +0.000 A 
ATOM     20  C   UNL     1       6.928   5.202  14.178  0.00  0.00    +0.000 A 
ENDBRANCH  14  15
ENDBRANCH   7  13
ENDBRANCH   1   3
BRANCH   1  25
ATOM     21  C   UNL     1      -0.017  12.487  19.224  0.00  0.00    +0.000 A 
ATOM     22  C   UNL     1      -1.191  12.141  18.547  0.00  0.00    +0.000 A 
ATOM     23  C   UNL     1      -1.633  10.817  18.510  0.00  0.00    +0.000 A 
ATOM     24  C   UNL     1      -0.914   9.828  19.171  0.00  0.00    +0.000 A 
ATOM     25  C   UNL     1       0.257  10.154  19.867  0.00  0.00    +0.000 A 
ATOM     26  C   UNL     1       0.724  11.479  19.862  0.00  0.00    +0.000 A 
BRANCH  21  29
ATOM     27  O   UNL     1       2.322  13.635  17.851  0.00  0.00    +0.000 OA
ATOM     28  C   UNL     1       1.633  14.269  18.648  0.00  0.00    +0.000 C 
ATOM     29  N   UNL     1       0.477  13.812  19.267  0.00  0.00    +0.000 N 
ATOM     30  H   UNL     1      -0.121  14.513  19.691  0.00  0.00    +0.000 HD
BRANCH  28  31
ATOM     31  C   UNL     1       2.002  15.694  19.014  0.00  0.00    +0.000 C 
BRANCH  31  32
ATOM     32  C   UNL     1       1.176  16.726  18.294  0.00  0.00    +0.000 A 
ATOM     33  C   UNL     1      -0.157  16.971  18.653  0.00  0.00    +0.000 A 
ATOM     34  C   UNL     1      -0.904  17.917  17.949  0.00  0.00    +0.000 A 
ATOM     35  F   UNL     1      -2.180  18.135  18.292  0.00  0.00    +0.000 F 
ATOM     36  C   UNL     1      -0.348  18.631  16.894  0.00  0.00    +0.000 A 
ATOM     37  C   UNL     1       0.983  18.409  16.543  0.00  0.00    +0.000 A 
ATOM     38  C   UNL     1       1.732  17.468  17.249  0.00  0.00    +0.000 A 
ATOM     39  F   UNL     1       3.016  17.275  16.914  0.00  0.00    +0.000 F 
ENDBRANCH  31  32
ENDBRANCH  28  31
ENDBRANCH  21  29
ENDBRANCH   1  25
TORSDOF 7
ENDMDL
MODEL 4
REMARK VINA RESULT:      -9.1      6.321     12.351
REMARK  Name = 
REMARK  7 active torsions:
REMARK  status: ('A' for Active; 'I' for Inactive)
REMARK    1  A    between atoms: C_2  and  C_3
REMARK    2  A    between atoms: C_3  and  C_4
REMARK    3  A    between atoms: N_12  and  C_13
REMARK    4  A    between atoms: C_17  and  C_18
REMARK    5  A    between atoms: C_18  and  C_20
REMARK    6  A    between atoms: C_24  and  C_25
REMARK    7  A    between atoms: C_26  and  C_27
REMARK                            x       y       z     vdW  Elec       q    Type
REMARK                         _______ _______ _______ _____ _____    ______ ____
ROOT
ATOM      1  C   UNL     1       2.943   5.964  18.020  0.00  0.00    +0.000 C 
ATOM      2  O   UNL     1       2.213   5.009  17.758  0.00  0.00    +0.000 OA
ENDROOT
BRANCH   1   3
ATOM      3  C   UNL     1       2.345   7.123  18.730  0.00  0.00    +0.000 A 
ATOM      4  C   UNL     1       1.969   8.223  17.948  0.00  0.00    +0.000 A 
ATOM      5  C   UNL     1       1.389   9.357  18.526  0.00  0.00    +0.000 A 
ATOM      6  C   UNL     1       1.194   9.389  19.919  0.00  0.00    +0.000 A 
ATOM      7  C   UNL     1       0.600  10.290  20.853  0.00  0.00    +0.000 A 
ATOM      8  N   UNL     1       0.713   9.826  22.108  0.00  0.00    +0.000 NA
ATOM      9  N   UNL     1       1.336   8.647  21.973  0.00  0.00    +0.000 N 
ATOM     10  C   UNL     1       1.624   8.305  20.680  0.00  0.00    +0.000 A 
ATOM     11  C   UNL     1       2.211   7.156  20.127  0.00  0.00    +0.000 A 
ATOM     12  H   UNL     1       1.509   8.103  22.811  0.00  0.00    +0.000 HD
BRANCH   7  13
ATOM     13  C   UNL     1      -0.123  11.481  20.497  0.00  0.00    +0.000 C 
ATOM     14  C   UNL     1       0.462  12.589  20.010  0.00  0.00    +0.000 C 
BRANCH  14  15
ATOM     15  C   UNL     1      -0.161  13.911  19.852  0.00  0.00    +0.000 A 
ATOM     16  C   UNL     1       0.421  14.779  18.910  0.00  0.00    +0.000 A 
ATOM     17  C   UNL     1      -0.053  16.080  18.739  0.00  0.00    +0.000 A 
ATOM     18  C   UNL     1      -1.127  16.532  19.501  0.00  0.00    +0.000 A 
ATOM     19  C   UNL     1      -1.733  15.677  20.419  0.00  0.00    +0.000 A 
ATOM     20  C   UNL     1      -1.256  14.372  20.589  0.00  0.00    +0.000 A 
ENDBRANCH  14  15
ENDBRANCH   7  13
ENDBRANCH   1   3
BRANCH   1  25
ATOM     21  C   UNL     1       6.535   6.906  17.117  0.00  0.00    +0.000 A 
ATOM     22  C   UNL     1       7.059   5.626  16.910  0.00  0.00    +0.000 A 
ATOM     23  C   UNL     1       6.263   4.491  17.075  0.00  0.00    +0.000 A 
ATOM     24  C   UNL     1       4.926   4.627  17.427  0.00  0.00    +0.000 A 
ATOM     25  C   UNL     1       4.376   5.900  17.626  0.00  0.00    +0.000 A 
ATOM     26  C   UNL     1       5.192   7.038  17.506  0.00  0.00    +0.000 A 
BRANCH  21  29
ATOM     27  O   UNL     1       8.600   7.973  18.924  0.00  0.00    +0.000 OA
ATOM     28  C   UNL     1       8.222   8.563  17.914  0.00  0.00    +0.000 C 
ATOM     29  N   UNL     1       7.313   8.080  16.983  0.00  0.00    +0.000 N 
ATOM     30  H   UNL     1       7.287   8.548  16.084  0.00  0.00    +0.000 HD
BRANCH  28  31
ATOM     31  C   UNL     1       8.778   9.933  17.575  0.00  0.00    +0.000 C 
BRANCH  31  32
ATOM     32  C   UNL     1       9.382  10.640  18.758  0.00  0.00    +0.000 A 
ATOM     33  C   UNL     1       8.746  10.642  20.008  0.00  0.00    +0.000 A 
ATOM     34  C   UNL     1       9.320  11.328  21.078  0.00  0.00    +0.000 A 
ATOM     35  F   UNL     1       8.699  11.334  22.265  0.00  0.00    +0.000 F 
ATOM     36  C   UNL     1      10.523  12.011  20.933  0.00  0.00    +0.000 A 
ATOM     37  C   UNL     1      11.173  11.997  19.700  0.00  0.00    +0.000 A 
ATOM     38  C   UNL     1      10.603  11.308  18.630  0.00  0.00    +0.000 A 
ATOM     39  F   UNL     1      11.245  11.286  17.453  0.00  0.00    +0.000 F 
ENDBRANCH  31  32
ENDBRANCH  28  31
ENDBRANCH  21  29
ENDBRANCH   1  25
TORSDOF 7
ENDMDL
MODEL 5
REMARK VINA RESULT:      -8.9      3.980      5.887
REMARK  Name = 
REMARK  7 active torsions:
REMARK  status: ('A' for Active; 'I' for Inactive)
REMARK    1  A    between atoms: C_2  and  C_3
REMARK    2  A    between atoms: C_3  and  C_4
REMARK    3  A    between atoms: N_12  and  C_13
REMARK    4  A    between atoms: C_17  and  C_18
REMARK    5  A    between atoms: C_18  and  C_20
REMARK    6  A    between atoms: C_24  and  C_25
REMARK    7  A    between atoms: C_26  and  C_27
REMARK                            x       y       z     vdW  Elec       q    Type
REMARK                         _______ _______ _______ _____ _____    ______ ____
ROOT
ATOM      1  C   UNL     1      -0.465  10.556  22.760  0.00  0.00    +0.000 C 
ATOM      2  O   UNL     1      -0.487   9.882  23.789  0.00  0.00    +0.000 OA
ENDROOT
BRANCH   1   3
ATOM      3  C   UNL     1       0.248  10.004  21.580  0.00  0.00    +0.000 A 
ATOM      4  C   UNL     1       0.912   8.782  21.752  0.00  0.00    +0.000 A 
ATOM      5  C   UNL     1       1.603   8.179  20.696  0.00  0.00    +0.000 A 
ATOM      6  C   UNL     1       1.636   8.824  19.447  0.00  0.00    +0.000 A 
ATOM      7  C   UNL     1       2.152   8.525  18.149  0.00  0.00    +0.000 A 
ATOM      8  N   UNL     1       1.921   9.535  17.295  0.00  0.00    +0.000 NA
ATOM      9  N   UNL     1       1.249  10.439  18.021  0.00  0.00    +0.000 N 
ATOM     10  C   UNL     1       1.013  10.062  19.315  0.00  0.00    +0.000 A 
ATOM     11  C   UNL     1       0.315  10.692  20.358  0.00  0.00    +0.000 A 
ATOM     12  H   UNL     1       0.950  11.291  17.560  0.00  0.00    +0.000 HD
BRANCH   7  13
ATOM     13  C   UNL     1       2.741   7.269  17.771  0.00  0.00    +0.000 C 
ATOM     14  C   UNL     1       4.039   7.122  17.454  0.00  0.00    +0.000 C 
BRANCH  14  15
ATOM     15  C   UNL     1       4.660   5.943  16.832  0.00  0.00    +0.000 A 
ATOM     16  C   UNL     1       5.269   6.133  15.578  0.00  0.00    +0.000 A 
ATOM     17  C   UNL     1       5.822   5.062  14.875  0.00  0.00    +0.000 A 
ATOM     18  C   UNL     1       5.785   3.783  15.420  0.00  0.00    +0.000 A 
ATOM     19  C   UNL     1       5.211   3.580  16.673  0.00  0.00    +0.000 A 
ATOM     20  C   UNL     1       4.657   4.656  17.378  0.00  0.00    +0.000 A 
ENDBRANCH  14  15
ENDBRANCH   7  13
ENDBRANCH   1   3
BRANCH   1  25
ATOM     21  C   UNL     1      -1.271  14.266  22.325  0.00  0.00    +0.000 A 
ATOM     22  C   UNL     1      -2.601  14.261  22.760  0.00  0.00    +0.000 A 
ATOM     23  C   UNL     1      -3.216  13.077  23.169  0.00  0.00    +0.000 A 
ATOM     24  C   UNL     1      -2.498  11.886  23.169  0.00  0.00    +0.000 A 
ATOM     25  C   UNL     1      -1.161  11.870  22.750  0.00  0.00    +0.000 A 
ATOM     26  C   UNL     1      -0.560  13.055  22.294  0.00  0.00    +0.000 A 
BRANCH  21  29
ATOM     27  O   UNL     1       0.143  14.749  19.787  0.00  0.00    +0.000 OA
ATOM     28  C   UNL     1       0.094  15.575  20.696  0.00  0.00    +0.000 C 
ATOM     29  N   UNL     1      -0.618  15.439  21.880  0.00  0.00    +0.000 N 
ATOM     30  H   UNL     1      -0.777  16.285  22.417  0.00  0.00    +0.000 HD
BRANCH  28  31
ATOM     31  C   UNL     1       0.830  16.895  20.571  0.00  0.00    +0.000 C 
BRANCH  31  32
ATOM     32  C   UNL     1       1.444  17.108  19.214  0.00  0.00    +0.000 A 
ATOM     33  C   UNL     1       0.764  17.810  18.209  0.00  0.00    +0.000 A 
ATOM     34  C   UNL     1       1.350  17.968  16.953  0.00  0.00    +0.000 A 
ATOM     35  F   UNL     1       0.686  18.630  15.995  0.00  0.00    +0.000 F 
ATOM     36  C   UNL     1       2.608  17.445  16.676  0.00  0.00    +0.000 A 
ATOM     37  C   UNL     1       3.301  16.764  17.674  0.00  0.00    +0.000 A 
ATOM     38  C   UNL     1       2.719  16.609  18.932  0.00  0.00    +0.000 A 
ATOM     39  F   UNL     1       3.401  15.967  19.891  0.00  0.00    +0.000 F 
ENDBRANCH  31  32
ENDBRANCH  28  31
ENDBRANCH  21  29
ENDBRANCH   1  25
TORSDOF 7
ENDMDL
MODEL 6
REMARK VINA RESULT:      -8.8      4.269      6.408
REMARK  Name = 
REMARK  7 active torsions:
REMARK  status: ('A' for Active; 'I' for Inactive)
REMARK    1  A    between atoms: C_2  and  C_3
REMARK    2  A    between atoms: C_3  and  C_4
REMARK    3  A    between atoms: N_12  and  C_13
REMARK    4  A    between atoms: C_17  and  C_18
REMARK    5  A    between atoms: C_18  and  C_20
REMARK    6  A    between atoms: C_24  and  C_25
REMARK    7  A    between atoms: C_26  and  C_27
REMARK                            x       y       z     vdW  Elec       q    Type
REMARK                         _______ _______ _______ _____ _____    ______ ____
ROOT
ATOM      1  C   UNL     1      -0.639  10.865  22.433  0.00  0.00    +0.000 C 
ATOM      2  O   UNL     1      -1.188  10.196  23.309  0.00  0.00    +0.000 OA
ENDROOT
BRANCH   1   3
ATOM      3  C   UNL     1       0.130  10.146  21.387  0.00  0.00    +0.000 A 
ATOM      4  C   UNL     1       0.717   8.928  21.753  0.00  0.00    +0.000 A 
ATOM      5  C   UNL     1       1.454   8.174  20.833  0.00  0.00    +0.000 A 
ATOM      6  C   UNL     1       1.611   8.661  19.524  0.00  0.00    +0.000 A 
ATOM      7  C   UNL     1       2.206   8.187  18.315  0.00  0.00    +0.000 A 
ATOM      8  N   UNL     1       2.090   9.094  17.333  0.00  0.00    +0.000 NA
ATOM      9  N   UNL     1       1.412  10.107  17.892  0.00  0.00    +0.000 N 
ATOM     10  C   UNL     1       1.063   9.899  19.199  0.00  0.00    +0.000 A 
ATOM     11  C   UNL     1       0.322  10.678  20.101  0.00  0.00    +0.000 A 
ATOM     12  H   UNL     1       1.192  10.908  17.312  0.00  0.00    +0.000 HD
BRANCH   7  13
ATOM     13  C   UNL     1       2.757   6.871  18.135  0.00  0.00    +0.000 C 
ATOM     14  C   UNL     1       2.126   5.743  18.505  0.00  0.00    +0.000 C 
BRANCH  14  15
ATOM     15  C   UNL     1       2.711   4.396  18.579  0.00  0.00    +0.000 A 
ATOM     16  C   UNL     1       2.229   3.442  17.665  0.00  0.00    +0.000 A 
ATOM     17  C   UNL     1       2.669   2.119  17.703  0.00  0.00    +0.000 A 
ATOM     18  C   UNL     1       3.610   1.729  18.650  0.00  0.00    +0.000 A 
ATOM     19  C   UNL     1       4.121   2.667  19.546  0.00  0.00    +0.000 A 
ATOM     20  C   UNL     1       3.678   3.994  19.506  0.00  0.00    +0.000 A 
ENDBRANCH  14  15
ENDBRANCH   7  13
ENDBRANCH   1   3
BRANCH   1  25
ATOM     21  C   UNL     1      -0.069  14.611  21.934  0.00  0.00    +0.000 A 
ATOM     22  C   UNL     1      -1.212  15.101  22.574  0.00  0.00    +0.000 A 
ATOM     23  C   UNL     1      -2.146  14.230  23.138  0.00  0.00    +0.000 A 
ATOM     24  C   UNL     1      -1.933  12.857  23.088  0.00  0.00    +0.000 A 
ATOM     25  C   UNL     1      -0.788  12.345  22.464  0.00  0.00    +0.000 A 
ATOM     26  C   UNL     1       0.125  13.222  21.855  0.00  0.00    +0.000 A 
BRANCH  21  29
ATOM     27  O   UNL     1       2.361  15.790  23.107  0.00  0.00    +0.000 OA
ATOM     28  C   UNL     1       1.978  16.038  21.966  0.00  0.00    +0.000 C 
ATOM     29  N   UNL     1       0.889  15.458  21.329  0.00  0.00    +0.000 N 
ATOM     30  H   UNL     1       0.841  15.561  20.322  0.00  0.00    +0.000 HD
BRANCH  28  31
ATOM     31  C   UNL     1       2.730  17.037  21.106  0.00  0.00    +0.000 C 
BRANCH  31  32
ATOM     32  C   UNL     1       3.497  16.395  19.982  0.00  0.00    +0.000 A 
ATOM     33  C   UNL     1       3.004  16.399  18.669  0.00  0.00    +0.000 A 
ATOM     34  C   UNL     1       3.727  15.774  17.653  0.00  0.00    +0.000 A 
ATOM     35  F   UNL     1       3.242  15.773  16.404  0.00  0.00    +0.000 F 
ATOM     36  C   UNL     1       4.939  15.144  17.916  0.00  0.00    +0.000 A 
ATOM     37  C   UNL     1       5.447  15.152  19.214  0.00  0.00    +0.000 A 
ATOM     38  C   UNL     1       4.729  15.782  20.229  0.00  0.00    +0.000 A 
ATOM     39  F   UNL     1       5.234  15.799  21.471  0.00  0.00    +0.000 F 
ENDBRANCH  31  32
ENDBRANCH  28  31
ENDBRANCH  21  29
ENDBRANCH   1  25
TORSDOF 7
ENDMDL
MODEL 7
REMARK VINA RESULT:      -8.8      6.536      9.800
REMARK  Name = 
REMARK  7 active torsions:
REMARK  status: ('A' for Active; 'I' for Inactive)
REMARK    1  A    between atoms: C_2  and  C_3
REMARK    2  A    between atoms: C_3  and  C_4
REMARK    3  A    between atoms: N_12  and  C_13
REMARK    4  A    between atoms: C_17  and  C_18
REMARK    5  A    between atoms: C_18  and  C_20
REMARK    6  A    between atoms: C_24  and  C_25
REMARK    7  A    between atoms: C_26  and  C_27
REMARK                            x       y       z     vdW  Elec       q    Type
REMARK                         _______ _______ _______ _____ _____    ______ ____
ROOT
ATOM      1  C   UNL     1       1.072  13.284  18.550  0.00  0.00    +0.000 C 
ATOM      2  O   UNL     1       0.041  13.604  17.959  0.00  0.00    +0.000 OA
ENDROOT
BRANCH   1   3
ATOM      3  C   UNL     1       1.214  11.873  18.990  0.00  0.00    +0.000 A 
ATOM      4  C   UNL     1       1.741  10.967  18.061  0.00  0.00    +0.000 A 
ATOM      5  C   UNL     1       1.920   9.618  18.387  0.00  0.00    +0.000 A 
ATOM      6  C   UNL     1       1.551   9.172  19.669  0.00  0.00    +0.000 A 
ATOM      7  C   UNL     1       1.629   7.943  20.392  0.00  0.00    +0.000 A 
ATOM      8  N   UNL     1       1.087   8.068  21.613  0.00  0.00    +0.000 NA
ATOM      9  N   UNL     1       0.702   9.350  21.679  0.00  0.00    +0.000 N 
ATOM     10  C   UNL     1       0.980  10.081  20.556  0.00  0.00    +0.000 A 
ATOM     11  C   UNL     1       0.786  11.439  20.255  0.00  0.00    +0.000 A 
ATOM     12  H   UNL     1       0.276   9.674  22.540  0.00  0.00    +0.000 HD
BRANCH   7  13
ATOM     13  C   UNL     1       2.297   6.759  19.924  0.00  0.00    +0.000 C 
ATOM     14  C   UNL     1       1.997   6.144  18.767  0.00  0.00    +0.000 C 
BRANCH  14  15
ATOM     15  C   UNL     1       2.455   4.814  18.338  0.00  0.00    +0.000 A 
ATOM     16  C   UNL     1       3.681   4.755  17.650  0.00  0.00    +0.000 A 
ATOM     17  C   UNL     1       4.165   3.551  17.139  0.00  0.00    +0.000 A 
ATOM     18  C   UNL     1       3.436   2.380  17.319  0.00  0.00    +0.000 A 
ATOM     19  C   UNL     1       2.232   2.413  18.021  0.00  0.00    +0.000 A 
ATOM     20  C   UNL     1       1.749   3.624  18.533  0.00  0.00    +0.000 A 
ENDBRANCH  14  15
ENDBRANCH   7  13
ENDBRANCH   1   3
BRANCH   1  25
ATOM     21  C   UNL     1       4.379  15.200  18.568  0.00  0.00    +0.000 A 
ATOM     22  C   UNL     1       3.968  16.354  19.244  0.00  0.00    +0.000 A 
ATOM     23  C   UNL     1       2.646  16.504  19.668  0.00  0.00    +0.000 A 
ATOM     24  C   UNL     1       1.726  15.488  19.438  0.00  0.00    +0.000 A 
ATOM     25  C   UNL     1       2.118  14.318  18.775  0.00  0.00    +0.000 A 
ATOM     26  C   UNL     1       3.438  14.191  18.308  0.00  0.00    +0.000 A 
BRANCH  21  29
ATOM     27  O   UNL     1       6.837  14.718  20.117  0.00  0.00    +0.000 OA
ATOM     28  C   UNL     1       6.831  14.867  18.897  0.00  0.00    +0.000 C 
ATOM     29  N   UNL     1       5.702  15.019  18.102  0.00  0.00    +0.000 N 
ATOM     30  H   UNL     1       5.824  14.877  17.106  0.00  0.00    +0.000 HD
BRANCH  28  31
ATOM     31  C   UNL     1       8.133  14.868  18.119  0.00  0.00    +0.000 C 
BRANCH  31  32
ATOM     32  C   UNL     1       8.986  13.658  18.387  0.00  0.00    +0.000 A 
ATOM     33  C   UNL     1      10.089  13.720  19.250  0.00  0.00    +0.000 A 
ATOM     34  C   UNL     1      10.875  12.586  19.458  0.00  0.00    +0.000 A 
ATOM     35  F   UNL     1      11.934  12.660  20.275  0.00  0.00    +0.000 F 
ATOM     36  C   UNL     1      10.582  11.383  18.825  0.00  0.00    +0.000 A 
ATOM     37  C   UNL     1       9.476  11.305  17.981  0.00  0.00    +0.000 A 
ATOM     38  C   UNL     1       8.686  12.436  17.777  0.00  0.00    +0.000 A 
ATOM     39  F   UNL     1       7.614  12.346  16.976  0.00  0.00    +0.000 F 
ENDBRANCH  31  32
ENDBRANCH  28  31
ENDBRANCH  21  29
ENDBRANCH   1  25
TORSDOF 7
ENDMDL
MODEL 8
REMARK VINA RESULT:      -8.7      2.891      4.496
REMARK  Name = 
REMARK  7 active torsions:
REMARK  status: ('A' for Active; 'I' for Inactive)
REMARK    1  A    between atoms: C_2  and  C_3
REMARK    2  A    between atoms: C_3  and  C_4
REMARK    3  A    between atoms: N_12  and  C_13
REMARK    4  A    between atoms: C_17  and  C_18
REMARK    5  A    between atoms: C_18  and  C_20
REMARK    6  A    between atoms: C_24  and  C_25
REMARK    7  A    between atoms: C_26  and  C_27
REMARK                            x       y       z     vdW  Elec       q    Type
REMARK                         _______ _______ _______ _____ _____    ______ ____
ROOT
ATOM      1  C   UNL     1       1.064  10.097  19.472  0.00  0.00    +0.000 C 
ATOM      2  O   UNL     1       1.161  11.041  18.689  0.00  0.00    +0.000 OA
ENDROOT
BRANCH   1   3
ATOM      3  C   UNL     1       1.713   8.814  19.101  0.00  0.00    +0.000 A 
ATOM      4  C   UNL     1       2.022   8.625  17.748  0.00  0.00    +0.000 A 
ATOM      5  C   UNL     1       2.642   7.453  17.304  0.00  0.00    +0.000 A 
ATOM      6  C   UNL     1       2.947   6.448  18.239  0.00  0.00    +0.000 A 
ATOM      7  C   UNL     1       3.611   5.184  18.209  0.00  0.00    +0.000 A 
ATOM      8  N   UNL     1       3.600   4.605  19.420  0.00  0.00    +0.000 NA
ATOM      9  N   UNL     1       2.973   5.491  20.208  0.00  0.00    +0.000 N 
ATOM     10  C   UNL     1       2.583   6.637  19.569  0.00  0.00    +0.000 A 
ATOM     11  C   UNL     1       1.958   7.801  20.042  0.00  0.00    +0.000 A 
ATOM     12  H   UNL     1       2.869   5.262  21.190  0.00  0.00    +0.000 HD
BRANCH   7  13
ATOM     13  C   UNL     1       4.299   4.647  17.067  0.00  0.00    +0.000 C 
ATOM     14  C   UNL     1       5.272   5.301  16.409  0.00  0.00    +0.000 C 
BRANCH  14  15
ATOM     15  C   UNL     1       5.849   4.934  15.107  0.00  0.00    +0.000 A 
ATOM     16  C   UNL     1       5.083   4.082  14.290  0.00  0.00    +0.000 A 
ATOM     17  C   UNL     1       5.575   3.619  13.069  0.00  0.00    +0.000 A 
ATOM     18  C   UNL     1       6.838   4.013  12.638  0.00  0.00    +0.000 A 
ATOM     19  C   UNL     1       7.599   4.879  13.420  0.00  0.00    +0.000 A 
ATOM     20  C   UNL     1       7.104   5.342  14.645  0.00  0.00    +0.000 A 
ENDBRANCH  14  15
ENDBRANCH   7  13
ENDBRANCH   1   3
BRANCH   1  25
ATOM     21  C   UNL     1      -1.225  11.505  22.189  0.00  0.00    +0.000 A 
ATOM     22  C   UNL     1      -1.037  10.527  23.172  0.00  0.00    +0.000 A 
ATOM     23  C   UNL     1      -0.198   9.435  22.945  0.00  0.00    +0.000 A 
ATOM     24  C   UNL     1       0.481   9.323  21.737  0.00  0.00    +0.000 A 
ATOM     25  C   UNL     1       0.319  10.297  20.744  0.00  0.00    +0.000 A 
ATOM     26  C   UNL     1      -0.563  11.369  20.958  0.00  0.00    +0.000 A 
BRANCH  21  29
ATOM     27  O   UNL     1      -0.848  13.880  23.889  0.00  0.00    +0.000 OA
ATOM     28  C   UNL     1      -1.875  13.670  23.248  0.00  0.00    +0.000 C 
ATOM     29  N   UNL     1      -2.085  12.614  22.370  0.00  0.00    +0.000 N 
ATOM     30  H   UNL     1      -2.863  12.703  21.727  0.00  0.00    +0.000 HD
BRANCH  28  31
ATOM     31  C   UNL     1      -3.051  14.623  23.351  0.00  0.00    +0.000 C 
BRANCH  31  32
ATOM     32  C   UNL     1      -4.385  13.937  23.229  0.00  0.00    +0.000 A 
ATOM     33  C   UNL     1      -5.200  14.125  22.103  0.00  0.00    +0.000 A 
ATOM     34  C   UNL     1      -6.442  13.495  22.032  0.00  0.00    +0.000 A 
ATOM     35  F   UNL     1      -7.219  13.691  20.958  0.00  0.00    +0.000 F 
ATOM     36  C   UNL     1      -6.892  12.673  23.059  0.00  0.00    +0.000 A 
ATOM     37  C   UNL     1      -6.080  12.463  24.173  0.00  0.00    +0.000 A 
ATOM     38  C   UNL     1      -4.836  13.088  24.244  0.00  0.00    +0.000 A 
ATOM     39  F   UNL     1      -4.055  12.866  25.311  0.00  0.00    +0.000 F 
ENDBRANCH  31  32
ENDBRANCH  28  31
ENDBRANCH  21  29
ENDBRANCH   1  25
TORSDOF 7
ENDMDL
MODEL 9
REMARK VINA RESULT:      -8.7      6.393     12.258
REMARK  Name = 
REMARK  7 active torsions:
REMARK  status: ('A' for Active; 'I' for Inactive)
REMARK    1  A    between atoms: C_2  and  C_3
REMARK    2  A    between atoms: C_3  and  C_4
REMARK    3  A    between atoms: N_12  and  C_13
REMARK    4  A    between atoms: C_17  and  C_18
REMARK    5  A    between atoms: C_18  and  C_20
REMARK    6  A    between atoms: C_24  and  C_25
REMARK    7  A    between atoms: C_26  and  C_27
REMARK                            x       y       z     vdW  Elec       q    Type
REMARK                         _______ _______ _______ _____ _____    ______ ____
ROOT
ATOM      1  C   UNL     1       3.241   5.925  17.782  0.00  0.00    +0.000 C 
ATOM      2  O   UNL     1       2.590   4.912  17.525  0.00  0.00    +0.000 OA
ENDROOT
BRANCH   1   3
ATOM      3  C   UNL     1       2.569   7.012  18.538  0.00  0.00    +0.000 A 
ATOM      4  C   UNL     1       2.243   8.174  17.828  0.00  0.00    +0.000 A 
ATOM      5  C   UNL     1       1.601   9.248  18.453  0.00  0.00    +0.000 A 
ATOM      6  C   UNL     1       1.291   9.154  19.821  0.00  0.00    +0.000 A 
ATOM      7  C   UNL     1       0.608   9.964  20.779  0.00  0.00    +0.000 A 
ATOM      8  N   UNL     1       0.624   9.391  21.992  0.00  0.00    +0.000 NA
ATOM      9  N   UNL     1       1.272   8.233  21.807  0.00  0.00    +0.000 N 
ATOM     10  C   UNL     1       1.672   8.010  20.517  0.00  0.00    +0.000 A 
ATOM     11  C   UNL     1       2.320   6.919  19.917  0.00  0.00    +0.000 A 
ATOM     12  H   UNL     1       1.383   7.618  22.605  0.00  0.00    +0.000 HD
BRANCH   7  13
ATOM     13  C   UNL     1      -0.100  11.176  20.469  0.00  0.00    +0.000 C 
ATOM     14  C   UNL     1       0.462  12.228  19.848  0.00  0.00    +0.000 C 
BRANCH  14  15
ATOM     15  C   UNL     1      -0.112  13.575  19.713  0.00  0.00    +0.000 A 
ATOM     16  C   UNL     1       0.603  14.495  18.926  0.00  0.00    +0.000 A 
ATOM     17  C   UNL     1       0.179  15.818  18.797  0.00  0.00    +0.000 A 
ATOM     18  C   UNL     1      -0.978  16.240  19.444  0.00  0.00    +0.000 A 
ATOM     19  C   UNL     1      -1.716  15.336  20.206  0.00  0.00    +0.000 A 
ATOM     20  C   UNL     1      -1.288  14.008  20.334  0.00  0.00    +0.000 A 
ENDBRANCH  14  15
ENDBRANCH   7  13
ENDBRANCH   1   3
BRANCH   1  25
ATOM     21  C   UNL     1       6.968   6.735  17.554  0.00  0.00    +0.000 A 
ATOM     22  C   UNL     1       7.285   6.019  16.395  0.00  0.00    +0.000 A 
ATOM     23  C   UNL     1       6.310   5.284  15.718  0.00  0.00    +0.000 A 
ATOM     24  C   UNL     1       5.001   5.276  16.184  0.00  0.00    +0.000 A 
ATOM     25  C   UNL     1       4.658   5.997  17.335  0.00  0.00    +0.000 A 
ATOM     26  C   UNL     1       5.651   6.697  18.040  0.00  0.00    +0.000 A 
BRANCH  21  29
ATOM     27  O   UNL     1       7.480   9.635  17.534  0.00  0.00    +0.000 OA
ATOM     28  C   UNL     1       8.166   8.837  18.169  0.00  0.00    +0.000 C 
ATOM     29  N   UNL     1       7.931   7.473  18.282  0.00  0.00    +0.000 N 
ATOM     30  H   UNL     1       8.414   6.987  19.030  0.00  0.00    +0.000 HD
BRANCH  28  31
ATOM     31  C   UNL     1       9.377   9.317  18.947  0.00  0.00    +0.000 C 
BRANCH  31  32
ATOM     32  C   UNL     1       9.613  10.797  18.824  0.00  0.00    +0.000 A 
ATOM     33  C   UNL     1      10.186  11.351  17.670  0.00  0.00    +0.000 A 
ATOM     34  C   UNL     1      10.415  12.725  17.598  0.00  0.00    +0.000 A 
ATOM     35  F   UNL     1      10.974  13.242  16.495  0.00  0.00    +0.000 F 
ATOM     36  C   UNL     1      10.081  13.566  18.653  0.00  0.00    +0.000 A 
ATOM     37  C   UNL     1       9.493  13.029  19.797  0.00  0.00    +0.000 A 
ATOM     38  C   UNL     1       9.257  11.656  19.868  0.00  0.00    +0.000 A 
ATOM     39  F   UNL     1       8.675  11.152  20.966  0.00  0.00    +0.000 F 
ENDBRANCH  31  32
ENDBRANCH  28  31
ENDBRANCH  21  29
ENDBRANCH   1  25
TORSDOF 7
ENDMDL
