MODEL 1
REMARK VINA RESULT:      -7.0      0.000      0.000
REMARK  Name = 
REMARK  7 active torsions:
REMARK  status: ('A' for Active; 'I' for Inactive)
REMARK    1  A    between atoms: C_1  and  C_2
REMARK    2  A    between atoms: C_5  and  C_6
REMARK    3  A    between atoms: C_8  and  C_9
REMARK    4  A    between atoms: C_9  and  N_10
REMARK    5  A    between atoms: C_13  and  C_14
REMARK    6  A    between atoms: N_16  and  C_17
REMARK    7  A    between atoms: N_16  and  C_18
REMARK                            x       y       z     vdW  Elec       q    Type
REMARK                         _______ _______ _______ _____ _____    ______ ____
ROOT
ATOM      1  C   UNL     1       4.050   7.218  17.567  0.00  0.00    +0.000 C 
ENDROOT
BRANCH   1   2
ATOM      2  N   UNL     1       2.868   6.436  18.012  0.00  0.00    +0.000 NA
ATOM      3  C   UNL     1       2.773   5.170  17.261  0.00  0.00    +0.000 C 
ATOM      4  C   UNL     1       1.630   4.277  17.765  0.00  0.00    +0.000 C 
ATOM      5  C   UNL     1       1.741   3.976  19.260  0.00  0.00    +0.000 C 
ATOM      6  C   UNL     1       1.923   5.290  20.030  0.00  0.00    +0.000 C 
ATOM      7  C   UNL     1       3.024   6.183  19.456  0.00  0.00    +0.000 C 
BRANCH   5   8
ATOM      8  C   UNL     1       2.873   2.982  19.571  0.00  0.00    +0.000 C 
ATOM      9  O   UNL     1       3.591   2.561  18.659  0.00  0.00    +0.000 OA
ATOM     10  N   UNL     1       3.065   2.550  20.876  0.00  0.00    +0.000 N 
ATOM     11  C   UNL     1       2.258   2.893  22.036  0.00  0.00    +0.000 C 
ATOM     12  C   UNL     1       4.183   1.652  21.149  0.00  0.00    +0.000 C 
ENDBRANCH   5   8
ENDBRANCH   1   2
BRANCH   1  15
ATOM     13  C   UNL     1       6.206   5.171  15.500  0.00  0.00    +0.000 A 
ATOM     14  N   UNL     1       5.206   5.999  15.734  0.00  0.00    +0.000 NA
ATOM     15  C   UNL     1       5.172   6.345  17.080  0.00  0.00    +0.000 A 
ATOM     16  C   UNL     1       6.179   5.782  17.841  0.00  0.00    +0.000 A 
ATOM     17  S   UNL     1       7.177   4.791  16.862  0.00  0.00    +0.000 S 
BRANCH  13  22
ATOM     18  C   UNL     1       5.445   2.414  11.541  0.00  0.00    +0.000 C 
ATOM     19  C   UNL     1       6.169   3.404  12.361  0.00  0.00    +0.000 A 
ATOM     20  C   UNL     1       7.283   4.175  12.139  0.00  0.00    +0.000 A 
ATOM     21  C   UNL     1       7.459   4.954  13.309  0.00  0.00    +0.000 A 
ATOM     22  C   UNL     1       6.445   4.618  14.193  0.00  0.00    +0.000 A 
ATOM     23  O   UNL     1       5.662   3.655  13.600  0.00  0.00    +0.000 OA
ENDBRANCH  13  22
ENDBRANCH   1  15
TORSDOF 4
ENDMDL
MODEL 2
REMARK VINA RESULT:      -6.9      3.550      5.240
REMARK  Name = 
REMARK  7 active torsions:
REMARK  status: ('A' for Active; 'I' for Inactive)
REMARK    1  A    between atoms: C_1  and  C_2
REMARK    2  A    between atoms: C_5  and  C_6
REMARK    3  A    between atoms: C_8  and  C_9
REMARK    4  A    between atoms: C_9  and  N_10
REMARK    5  A    between atoms: C_13  and  C_14
REMARK    6  A    between atoms: N_16  and  C_17
REMARK    7  A    between atoms: N_16  and  C_18
REMARK                            x       y       z     vdW  Elec       q    Type
REMARK                         _______ _______ _______ _____ _____    ______ ____
ROOT
ATOM      1  C   UNL     1       6.193   5.240  16.065  0.00  0.00    +0.000 C 
ENDROOT
BRANCH   1   2
ATOM      2  N   UNL     1       4.733   5.105  16.300  0.00  0.00    +0.000 NA
ATOM      3  C   UNL     1       4.374   3.692  16.529  0.00  0.00    +0.000 C 
ATOM      4  C   UNL     1       2.891   3.517  16.886  0.00  0.00    +0.000 C 
ATOM      5  C   UNL     1       2.482   4.350  18.101  0.00  0.00    +0.000 C 
ATOM      6  C   UNL     1       2.931   5.802  17.894  0.00  0.00    +0.000 C 
ATOM      7  C   UNL     1       4.394   5.932  17.472  0.00  0.00    +0.000 C 
BRANCH   5   8
ATOM      8  C   UNL     1       3.036   3.773  19.416  0.00  0.00    +0.000 C 
ATOM      9  O   UNL     1       4.249   3.805  19.639  0.00  0.00    +0.000 OA
ATOM     10  N   UNL     1       2.164   3.203  20.333  0.00  0.00    +0.000 N 
ATOM     11  C   UNL     1       0.729   3.023  20.179  0.00  0.00    +0.000 C 
ATOM     12  C   UNL     1       2.712   2.717  21.596  0.00  0.00    +0.000 C 
ENDBRANCH   5   8
ENDBRANCH   1   2
BRANCH   1  15
ATOM     13  C   UNL     1       7.920   7.595  18.204  0.00  0.00    +0.000 A 
ATOM     14  N   UNL     1       7.229   7.225  17.144  0.00  0.00    +0.000 NA
ATOM     15  C   UNL     1       6.910   5.875  17.222  0.00  0.00    +0.000 A 
ATOM     16  C   UNL     1       7.352   5.249  18.373  0.00  0.00    +0.000 A 
ATOM     17  S   UNL     1       8.194   6.363  19.366  0.00  0.00    +0.000 S 
BRANCH  13  22
ATOM     18  C   UNL     1      10.373  11.311  20.211  0.00  0.00    +0.000 C 
ATOM     19  C   UNL     1       9.508  10.670  19.201  0.00  0.00    +0.000 A 
ATOM     20  C   UNL     1       8.931  11.116  18.039  0.00  0.00    +0.000 A 
ATOM     21  C   UNL     1       8.236  10.008  17.497  0.00  0.00    +0.000 A 
ATOM     22  C   UNL     1       8.419   8.936  18.358  0.00  0.00    +0.000 A 
ATOM     23  O   UNL     1       9.198   9.361  19.410  0.00  0.00    +0.000 OA
ENDBRANCH  13  22
ENDBRANCH   1  15
TORSDOF 4
ENDMDL
MODEL 3
REMARK VINA RESULT:      -6.9      4.036      5.673
REMARK  Name = 
REMARK  7 active torsions:
REMARK  status: ('A' for Active; 'I' for Inactive)
REMARK    1  A    between atoms: C_1  and  C_2
REMARK    2  A    between atoms: C_5  and  C_6
REMARK    3  A    between atoms: C_8  and  C_9
REMARK    4  A    between atoms: C_9  and  N_10
REMARK    5  A    between atoms: C_13  and  C_14
REMARK    6  A    between atoms: N_16  and  C_17
REMARK    7  A    between atoms: N_16  and  C_18
REMARK                            x       y       z     vdW  Elec       q    Type
REMARK                         _______ _______ _______ _____ _____    ______ ____
ROOT
ATOM      1  C   UNL     1       1.980   6.601  18.912  0.00  0.00    +0.000 C 
ENDROOT
BRANCH   1   2
ATOM      2  N   UNL     1       2.145   8.057  19.155  0.00  0.00    +0.000 NA
ATOM      3  C   UNL     1       1.804   8.825  17.942  0.00  0.00    +0.000 C 
ATOM      4  C   UNL     1       1.853  10.342  18.178  0.00  0.00    +0.000 C 
ATOM      5  C   UNL     1       0.949  10.781  19.332  0.00  0.00    +0.000 C 
ATOM      6  C   UNL     1       1.250   9.923  20.567  0.00  0.00    +0.000 C 
ATOM      7  C   UNL     1       1.261   8.422  20.276  0.00  0.00    +0.000 C 
BRANCH   5   8
ATOM      8  C   UNL     1      -0.542  10.723  18.957  0.00  0.00    +0.000 C 
ATOM      9  O   UNL     1      -1.165   9.663  19.072  0.00  0.00    +0.000 OA
ATOM     10  N   UNL     1      -1.171  11.861  18.473  0.00  0.00    +0.000 N 
ATOM     11  C   UNL     1      -0.556  13.153  18.210  0.00  0.00    +0.000 C 
ATOM     12  C   UNL     1      -2.600  11.790  18.182  0.00  0.00    +0.000 C 
ENDBRANCH   5   8
ENDBRANCH   1   2
BRANCH   1  15
ATOM     13  C   UNL     1       4.917   5.144  17.375  0.00  0.00    +0.000 A 
ATOM     14  N   UNL     1       3.811   5.862  17.401  0.00  0.00    +0.000 NA
ATOM     15  C   UNL     1       3.290   5.899  18.689  0.00  0.00    +0.000 A 
ATOM     16  C   UNL     1       4.040   5.218  19.630  0.00  0.00    +0.000 A 
ATOM     17  S   UNL     1       5.412   4.506  18.889  0.00  0.00    +0.000 S 
BRANCH  13  22
ATOM     18  C   UNL     1       5.744   3.499  12.852  0.00  0.00    +0.000 C 
ATOM     19  C   UNL     1       6.092   4.196  14.105  0.00  0.00    +0.000 A 
ATOM     20  C   UNL     1       7.199   4.897  14.515  0.00  0.00    +0.000 A 
ATOM     21  C   UNL     1       6.910   5.353  15.825  0.00  0.00    +0.000 A 
ATOM     22  C   UNL     1       5.640   4.903  16.155  0.00  0.00    +0.000 A 
ATOM     23  O   UNL     1       5.151   4.183  15.089  0.00  0.00    +0.000 OA
ENDBRANCH  13  22
ENDBRANCH   1  15
TORSDOF 4
ENDMDL
MODEL 4
REMARK VINA RESULT:      -6.8      4.823      8.273
REMARK  Name = 
REMARK  7 active torsions:
REMARK  status: ('A' for Active; 'I' for Inactive)
REMARK    1  A    between atoms: C_1  and  C_2
REMARK    2  A    between atoms: C_5  and  C_6
REMARK    3  A    between atoms: C_8  and  C_9
REMARK    4  A    between atoms: C_9  and  N_10
REMARK    5  A    between atoms: C_13  and  C_14
REMARK    6  A    between atoms: N_16  and  C_17
REMARK    7  A    between atoms: N_16  and  C_18
REMARK                            x       y       z     vdW  Elec       q    Type
REMARK                         _______ _______ _______ _____ _____    ______ ____
ROOT
ATOM      1  C   UNL     1       2.137   8.063  17.617  0.00  0.00    +0.000 C 
ENDROOT
BRANCH   1   2
ATOM      2  N   UNL     1       3.332   7.395  18.192  0.00  0.00    +0.000 NA
ATOM      3  C   UNL     1       2.929   6.355  19.158  0.00  0.00    +0.000 C 
ATOM      4  C   UNL     1       4.127   5.561  19.696  0.00  0.00    +0.000 C 
ATOM      5  C   UNL     1       4.954   4.924  18.577  0.00  0.00    +0.000 C 
ATOM      6  C   UNL     1       5.301   5.993  17.533  0.00  0.00    +0.000 C 
ATOM      7  C   UNL     1       4.093   6.809  17.073  0.00  0.00    +0.000 C 
BRANCH   5   8
ATOM      8  C   UNL     1       4.238   3.724  17.936  0.00  0.00    +0.000 C 
ATOM      9  O   UNL     1       3.814   3.805  16.779  0.00  0.00    +0.000 OA
ATOM     10  N   UNL     1       4.057   2.561  18.673  0.00  0.00    +0.000 N 
ATOM     11  C   UNL     1       4.429   2.342  20.061  0.00  0.00    +0.000 C 
ATOM     12  C   UNL     1       3.427   1.419  18.017  0.00  0.00    +0.000 C 
ENDBRANCH   5   8
ENDBRANCH   1   2
BRANCH   1  15
ATOM     13  C   UNL     1       0.773  10.420  20.003  0.00  0.00    +0.000 A 
ATOM     14  N   UNL     1       1.075   9.222  19.544  0.00  0.00    +0.000 NA
ATOM     15  C   UNL     1       1.773   9.326  18.346  0.00  0.00    +0.000 A 
ATOM     16  C   UNL     1       2.010  10.624  17.933  0.00  0.00    +0.000 A 
ATOM     17  S   UNL     1       1.335  11.733  19.052  0.00  0.00    +0.000 S 
BRANCH  13  22
ATOM     18  C   UNL     1      -2.319  12.552  23.126  0.00  0.00    +0.000 C 
ATOM     19  C   UNL     1      -1.383  11.502  22.678  0.00  0.00    +0.000 A 
ATOM     20  C   UNL     1      -0.962  10.319  23.232  0.00  0.00    +0.000 A 
ATOM     21  C   UNL     1      -0.074   9.741  22.293  0.00  0.00    +0.000 A 
ATOM     22  C   UNL     1       0.009  10.603  21.210  0.00  0.00    +0.000 A 
ATOM     23  O   UNL     1      -0.795  11.690  21.464  0.00  0.00    +0.000 OA
ENDBRANCH  13  22
ENDBRANCH   1  15
TORSDOF 4
ENDMDL
MODEL 5
REMARK VINA RESULT:      -6.8      5.408      7.035
REMARK  Name = 
REMARK  7 active torsions:
REMARK  status: ('A' for Active; 'I' for Inactive)
REMARK    1  A    between atoms: C_1  and  C_2
REMARK    2  A    between atoms: C_5  and  C_6
REMARK    3  A    between atoms: C_8  and  C_9
REMARK    4  A    between atoms: C_9  and  N_10
REMARK    5  A    between atoms: C_13  and  C_14
REMARK    6  A    between atoms: N_16  and  C_17
REMARK    7  A    between atoms: N_16  and  C_18
REMARK                            x       y       z     vdW  Elec       q    Type
REMARK                         _______ _______ _______ _____ _____    ______ ____
ROOT
ATOM      1  C   UNL     1       1.915   9.197  17.908  0.00  0.00    +0.000 C 
ENDROOT
BRANCH   1   2
ATOM      2  N   UNL     1       0.729   9.482  18.755  0.00  0.00    +0.000 NA
ATOM      3  C   UNL     1       1.082  10.417  19.840  0.00  0.00    +0.000 C 
ATOM      4  C   UNL     1      -0.138  10.829  20.677  0.00  0.00    +0.000 C 
ATOM      5  C   UNL     1      -1.252  11.436  19.823  0.00  0.00    +0.000 C 
ATOM      6  C   UNL     1      -1.558  10.499  18.648  0.00  0.00    +0.000 C 
ATOM      7  C   UNL     1      -0.312  10.056  17.883  0.00  0.00    +0.000 C 
BRANCH   5   8
ATOM      8  C   UNL     1      -0.904  12.853  19.335  0.00  0.00    +0.000 C 
ATOM      9  O   UNL     1      -0.451  13.019  18.198  0.00  0.00    +0.000 OA
ATOM     10  N   UNL     1      -1.085  13.934  20.187  0.00  0.00    +0.000 N 
ATOM     11  C   UNL     1      -1.533  13.889  21.570  0.00  0.00    +0.000 C 
ATOM     12  C   UNL     1      -0.802  15.271  19.675  0.00  0.00    +0.000 C 
ENDBRANCH   5   8
ENDBRANCH   1   2
BRANCH   1  15
ATOM     13  C   UNL     1       4.089   6.302  17.935  0.00  0.00    +0.000 A 
ATOM     14  N   UNL     1       3.646   7.461  17.491  0.00  0.00    +0.000 NA
ATOM     15  C   UNL     1       2.612   7.925  18.297  0.00  0.00    +0.000 A 
ATOM     16  C   UNL     1       2.309   7.102  19.366  0.00  0.00    +0.000 A 
ATOM     17  S   UNL     1       3.322   5.720  19.355  0.00  0.00    +0.000 S 
BRANCH  13  22
ATOM     18  C   UNL     1       6.359   4.000  14.274  0.00  0.00    +0.000 C 
ATOM     19  C   UNL     1       6.228   4.521  15.649  0.00  0.00    +0.000 A 
ATOM     20  C   UNL     1       7.071   4.539  16.732  0.00  0.00    +0.000 A 
ATOM     21  C   UNL     1       6.371   5.216  17.761  0.00  0.00    +0.000 A 
ATOM     22  C   UNL     1       5.130   5.575  17.257  0.00  0.00    +0.000 A 
ATOM     23  O   UNL     1       5.051   5.132  15.957  0.00  0.00    +0.000 OA
ENDBRANCH  13  22
ENDBRANCH   1  15
TORSDOF 4
ENDMDL
MODEL 6
REMARK VINA RESULT:      -6.8      4.149      8.505
REMARK  Name = 
REMARK  7 active torsions:
REMARK  status: ('A' for Active; 'I' for Inactive)
REMARK    1  A    between atoms: C_1  and  C_2
REMARK    2  A    between atoms: C_5  and  C_6
REMARK    3  A    between atoms: C_8  and  C_9
REMARK    4  A    between atoms: C_9  and  N_10
REMARK    5  A    between atoms: C_13  and  C_14
REMARK    6  A    between atoms: N_16  and  C_17
REMARK    7  A    between atoms: N_16  and  C_18
REMARK                            x       y       z     vdW  Elec       q    Type
REMARK                         _______ _______ _______ _____ _____    ______ ____
ROOT
ATOM      1  C   UNL     1       3.031   6.060  18.999  0.00  0.00    +0.000 C 
ENDROOT
BRANCH   1   2
ATOM      2  N   UNL     1       4.457   6.149  18.594  0.00  0.00    +0.000 NA
ATOM      3  C   UNL     1       5.097   4.821  18.665  0.00  0.00    +0.000 C 
ATOM      4  C   UNL     1       6.544   4.843  18.149  0.00  0.00    +0.000 C 
ATOM      5  C   UNL     1       6.646   5.383  16.722  0.00  0.00    +0.000 C 
ATOM      6  C   UNL     1       5.906   6.724  16.634  0.00  0.00    +0.000 C 
ATOM      7  C   UNL     1       4.495   6.680  17.220  0.00  0.00    +0.000 C 
BRANCH   5   8
ATOM      8  C   UNL     1       6.117   4.381  15.682  0.00  0.00    +0.000 C 
ATOM      9  O   UNL     1       5.302   3.517  16.017  0.00  0.00    +0.000 OA
ATOM     10  N   UNL     1       6.578   4.445  14.374  0.00  0.00    +0.000 N 
ATOM     11  C   UNL     1       7.588   5.349  13.848  0.00  0.00    +0.000 C 
ATOM     12  C   UNL     1       6.014   3.518  13.397  0.00  0.00    +0.000 C 
ENDBRANCH   5   8
ENDBRANCH   1   2
BRANCH   1  15
ATOM     13  C   UNL     1       1.196   8.962  20.147  0.00  0.00    +0.000 A 
ATOM     14  N   UNL     1       1.802   7.799  20.282  0.00  0.00    +0.000 NA
ATOM     15  C   UNL     1       2.365   7.404  19.074  0.00  0.00    +0.000 A 
ATOM     16  C   UNL     1       2.192   8.307  18.041  0.00  0.00    +0.000 A 
ATOM     17  S   UNL     1       1.297   9.664  18.585  0.00  0.00    +0.000 S 
BRANCH  13  22
ATOM     18  C   UNL     1      -1.133  12.473  22.617  0.00  0.00    +0.000 C 
ATOM     19  C   UNL     1      -0.583  11.118  22.419  0.00  0.00    +0.000 A 
ATOM     20  C   UNL     1      -0.604   9.975  23.178  0.00  0.00    +0.000 A 
ATOM     21  C   UNL     1       0.079   8.991  22.421  0.00  0.00    +0.000 A 
ATOM     22  C   UNL     1       0.489   9.583  21.236  0.00  0.00    +0.000 A 
ATOM     23  O   UNL     1       0.083  10.897  21.251  0.00  0.00    +0.000 OA
ENDBRANCH  13  22
ENDBRANCH   1  15
TORSDOF 4
ENDMDL
MODEL 7
REMARK VINA RESULT:      -6.7      4.804      7.489
REMARK  Name = 
REMARK  7 active torsions:
REMARK  status: ('A' for Active; 'I' for Inactive)
REMARK    1  A    between atoms: C_1  and  C_2
REMARK    2  A    between atoms: C_5  and  C_6
REMARK    3  A    between atoms: C_8  and  C_9
REMARK    4  A    between atoms: C_9  and  N_10
REMARK    5  A    between atoms: C_13  and  C_14
REMARK    6  A    between atoms: N_16  and  C_17
REMARK    7  A    between atoms: N_16  and  C_18
REMARK                            x       y       z     vdW  Elec       q    Type
REMARK                         _______ _______ _______ _____ _____    ______ ____
ROOT
ATOM      1  C   UNL     1       2.312   9.035  17.974  0.00  0.00    +0.000 C 
ENDROOT
BRANCH   1   2
ATOM      2  N   UNL     1       1.100   9.072  18.832  0.00  0.00    +0.000 NA
ATOM      3  C   UNL     1       1.478   9.096  20.258  0.00  0.00    +0.000 C 
ATOM      4  C   UNL     1       0.261   9.247  21.182  0.00  0.00    +0.000 C 
ATOM      5  C   UNL     1      -0.570  10.488  20.854  0.00  0.00    +0.000 C 
ATOM      6  C   UNL     1      -0.890  10.501  19.354  0.00  0.00    +0.000 C 
ATOM      7  C   UNL     1       0.336  10.279  18.469  0.00  0.00    +0.000 C 
BRANCH   5   8
ATOM      8  C   UNL     1       0.127  11.788  21.290  0.00  0.00    +0.000 C 
ATOM      9  O   UNL     1       1.360  11.858  21.283  0.00  0.00    +0.000 OA
ATOM     10  N   UNL     1      -0.638  12.868  21.708  0.00  0.00    +0.000 N 
ATOM     11  C   UNL     1      -2.085  12.912  21.844  0.00  0.00    +0.000 C 
ATOM     12  C   UNL     1       0.050  14.106  22.059  0.00  0.00    +0.000 C 
ENDBRANCH   5   8
ENDBRANCH   1   2
BRANCH   1  15
ATOM     13  C   UNL     1       2.910   5.480  18.319  0.00  0.00    +0.000 A 
ATOM     14  N   UNL     1       2.225   6.598  18.460  0.00  0.00    +0.000 NA
ATOM     15  C   UNL     1       2.892   7.655  17.851  0.00  0.00    +0.000 A 
ATOM     16  C   UNL     1       4.076   7.301  17.231  0.00  0.00    +0.000 A 
ATOM     17  S   UNL     1       4.367   5.623  17.425  0.00  0.00    +0.000 S 
BRANCH  13  22
ATOM     18  C   UNL     1       1.466   2.355  21.783  0.00  0.00    +0.000 C 
ATOM     19  C   UNL     1       1.800   2.761  20.404  0.00  0.00    +0.000 A 
ATOM     20  C   UNL     1       1.751   2.113  19.195  0.00  0.00    +0.000 A 
ATOM     21  C   UNL     1       2.176   3.057  18.228  0.00  0.00    +0.000 A 
ATOM     22  C   UNL     1       2.467   4.238  18.894  0.00  0.00    +0.000 A 
ATOM     23  O   UNL     1       2.241   4.039  20.237  0.00  0.00    +0.000 OA
ENDBRANCH  13  22
ENDBRANCH   1  15
TORSDOF 4
ENDMDL
MODEL 8
REMARK VINA RESULT:      -6.7      4.349      6.162
REMARK  Name = 
REMARK  7 active torsions:
REMARK  status: ('A' for Active; 'I' for Inactive)
REMARK    1  A    between atoms: C_1  and  C_2
REMARK    2  A    between atoms: C_5  and  C_6
REMARK    3  A    between atoms: C_8  and  C_9
REMARK    4  A    between atoms: C_9  and  N_10
REMARK    5  A    between atoms: C_13  and  C_14
REMARK    6  A    between atoms: N_16  and  C_17
REMARK    7  A    between atoms: N_16  and  C_18
REMARK                            x       y       z     vdW  Elec       q    Type
REMARK                         _______ _______ _______ _____ _____    ______ ____
ROOT
ATOM      1  C   UNL     1       2.522   7.182  20.190  0.00  0.00    +0.000 C 
ENDROOT
BRANCH   1   2
ATOM      2  N   UNL     1       1.301   7.963  19.868  0.00  0.00    +0.000 NA
ATOM      3  C   UNL     1       0.774   8.620  21.080  0.00  0.00    +0.000 C 
ATOM      4  C   UNL     1      -0.426   9.529  20.776  0.00  0.00    +0.000 C 
ATOM      5  C   UNL     1      -0.101  10.589  19.721  0.00  0.00    +0.000 C 
ATOM      6  C   UNL     1       0.524   9.910  18.496  0.00  0.00    +0.000 C 
ATOM      7  C   UNL     1       1.669   8.960  18.846  0.00  0.00    +0.000 C 
BRANCH   5   8
ATOM      8  C   UNL     1       0.809  11.699  20.273  0.00  0.00    +0.000 C 
ATOM      9  O   UNL     1       1.485  11.495  21.286  0.00  0.00    +0.000 OA
ATOM     10  N   UNL     1       0.847  12.932  19.637  0.00  0.00    +0.000 N 
ATOM     11  C   UNL     1       0.056  13.347  18.489  0.00  0.00    +0.000 C 
ATOM     12  C   UNL     1       1.764  13.946  20.149  0.00  0.00    +0.000 C 
ENDBRANCH   5   8
ENDBRANCH   1   2
BRANCH   1  15
ATOM     13  C   UNL     1       3.920   4.959  17.698  0.00  0.00    +0.000 A 
ATOM     14  N   UNL     1       3.930   5.983  18.529  0.00  0.00    +0.000 NA
ATOM     15  C   UNL     1       2.741   6.034  19.247  0.00  0.00    +0.000 A 
ATOM     16  C   UNL     1       1.853   5.015  18.956  0.00  0.00    +0.000 A 
ATOM     17  S   UNL     1       2.510   3.984  17.754  0.00  0.00    +0.000 S 
BRANCH  13  22
ATOM     18  C   UNL     1       6.170   3.825  13.514  0.00  0.00    +0.000 C 
ATOM     19  C   UNL     1       6.109   4.196  14.941  0.00  0.00    +0.000 A 
ATOM     20  C   UNL     1       7.069   4.472  15.882  0.00  0.00    +0.000 A 
ATOM     21  C   UNL     1       6.370   4.796  17.071  0.00  0.00    +0.000 A 
ATOM     22  C   UNL     1       5.013   4.697  16.799  0.00  0.00    +0.000 A 
ATOM     23  O   UNL     1       4.866   4.318  15.485  0.00  0.00    +0.000 OA
ENDBRANCH  13  22
ENDBRANCH   1  15
TORSDOF 4
ENDMDL
MODEL 9
REMARK VINA RESULT:      -6.7      5.316      8.023
REMARK  Name = 
REMARK  7 active torsions:
REMARK  status: ('A' for Active; 'I' for Inactive)
REMARK    1  A    between atoms: C_1  and  C_2
REMARK    2  A    between atoms: C_5  and  C_6
REMARK    3  A    between atoms: C_8  and  C_9
REMARK    4  A    between atoms: C_9  and  N_10
REMARK    5  A    between atoms: C_13  and  C_14
REMARK    6  A    between atoms: N_16  and  C_17
REMARK    7  A    between atoms: N_16  and  C_18
REMARK                            x       y       z     vdW  Elec       q    Type
REMARK                         _______ _______ _______ _____ _____    ______ ____
ROOT
ATOM      1  C   UNL     1       2.242   9.434  18.004  0.00  0.00    +0.000 C 
ENDROOT
BRANCH   1   2
ATOM      2  N   UNL     1       0.939   9.526  18.710  0.00  0.00    +0.000 NA
ATOM      3  C   UNL     1       1.077  10.312  19.951  0.00  0.00    +0.000 C 
ATOM      4  C   UNL     1      -0.268  10.528  20.659  0.00  0.00    +0.000 C 
ATOM      5  C   UNL     1      -1.306  11.187  19.750  0.00  0.00    +0.000 C 
ATOM      6  C   UNL     1      -1.386  10.414  18.428  0.00  0.00    +0.000 C 
ATOM      7  C   UNL     1      -0.021  10.159  17.789  0.00  0.00    +0.000 C 
BRANCH   5   8
ATOM      8  C   UNL     1      -1.008  12.677  19.511  0.00  0.00    +0.000 C 
ATOM      9  O   UNL     1      -0.384  13.027  18.505  0.00  0.00    +0.000 OA
ATOM     10  N   UNL     1      -1.427  13.617  20.443  0.00  0.00    +0.000 N 
ATOM     11  C   UNL     1      -2.099  13.354  21.706  0.00  0.00    +0.000 C 
ATOM     12  C   UNL     1      -1.181  15.028  20.160  0.00  0.00    +0.000 C 
ENDBRANCH   5   8
ENDBRANCH   1   2
BRANCH   1  15
ATOM     13  C   UNL     1       2.617   5.850  18.354  0.00  0.00    +0.000 A 
ATOM     14  N   UNL     1       1.991   7.005  18.470  0.00  0.00    +0.000 NA
ATOM     15  C   UNL     1       2.747   8.023  17.900  0.00  0.00    +0.000 A 
ATOM     16  C   UNL     1       3.936   7.604  17.334  0.00  0.00    +0.000 A 
ATOM     17  S   UNL     1       4.120   5.911  17.530  0.00  0.00    +0.000 S 
BRANCH  13  22
ATOM     18  C   UNL     1       1.467   2.527  21.744  0.00  0.00    +0.000 C 
ATOM     19  C   UNL     1       1.514   3.081  20.377  0.00  0.00    +0.000 A 
ATOM     20  C   UNL     1       1.014   2.655  19.172  0.00  0.00    +0.000 A 
ATOM     21  C   UNL     1       1.371   3.648  18.227  0.00  0.00    +0.000 A 
ATOM     22  C   UNL     1       2.076   4.633  18.901  0.00  0.00    +0.000 A 
ATOM     23  O   UNL     1       2.166   4.267  20.224  0.00  0.00    +0.000 OA
ENDBRANCH  13  22
ENDBRANCH   1  15
TORSDOF 4
ENDMDL
