MODEL 1
REMARK VINA RESULT:      -6.8      0.000      0.000
REMARK  Name = 
REMARK  3 active torsions:
REMARK  status: ('A' for Active; 'I' for Inactive)
REMARK    1  A    between atoms: C_2  and  C_9
REMARK    2  A    between atoms: N_3  and  C_4
REMARK    3  A    between atoms: C_12  and  O_13
REMARK                            x       y       z     vdW  Elec       q    Type
REMARK                         _______ _______ _______ _____ _____    ______ ____
ROOT
ATOM      1  O   UNL     1       4.510   5.481  19.514  0.00  0.00    +0.000 OA
ATOM      2  C   UNL     1       4.369   4.696  18.582  0.00  0.00    +0.000 C 
ATOM      3  N   UNL     1       3.493   3.627  18.542  0.00  0.00    +0.000 N 
ATOM      4  H   UNL     1       3.561   2.941  17.801  0.00  0.00    +0.000 HD
ENDROOT
BRANCH   3   5
ATOM      5  C   UNL     1       2.603   3.346  19.562  0.00  0.00    +0.000 A 
ATOM      6  C   UNL     1       2.795   2.761  20.835  0.00  0.00    +0.000 A 
ATOM      7  N   UNL     1       1.653   2.654  21.523  0.00  0.00    +0.000 NA
ATOM      8  N   UNL     1       0.733   3.158  20.687  0.00  0.00    +0.000 N 
ATOM      9  C   UNL     1       1.254   3.609  19.507  0.00  0.00    +0.000 A 
ATOM     10  H   UNL     1      -0.236   3.160  20.988  0.00  0.00    +0.000 HD
ENDBRANCH   3   5
BRANCH   2  11
ATOM     11  C   UNL     1       5.251   4.847  17.407  0.00  0.00    +0.000 A 
ATOM     12  C   UNL     1       5.076   4.019  16.298  0.00  0.00    +0.000 A 
ATOM     13  C   UNL     1       5.924   4.157  15.201  0.00  0.00    +0.000 A 
ATOM     14  C   UNL     1       6.921   5.117  15.267  0.00  0.00    +0.000 A 
ATOM     15  N   UNL     1       7.122   5.924  16.325  0.00  0.00    +0.000 NA
ATOM     16  C   UNL     1       6.292   5.764  17.382  0.00  0.00    +0.000 A 
BRANCH  14  17
ATOM     17  O   UNL     1       7.786   5.306  14.234  0.00  0.00    +0.000 OA
ATOM     18  H   UNL     1       7.273   5.372  13.415  0.00  0.00    +0.000 HD
ENDBRANCH  14  17
ENDBRANCH   2  11
TORSDOF 3
ENDMDL
MODEL 2
REMARK VINA RESULT:      -6.7      1.955      6.343
REMARK  Name = 
REMARK  3 active torsions:
REMARK  status: ('A' for Active; 'I' for Inactive)
REMARK    1  A    between atoms: C_2  and  C_9
REMARK    2  A    between atoms: N_3  and  C_4
REMARK    3  A    between atoms: C_12  and  O_13
REMARK                            x       y       z     vdW  Elec       q    Type
REMARK                         _______ _______ _______ _____ _____    ______ ____
ROOT
ATOM      1  O   UNL     1       3.631   5.691  17.467  0.00  0.00    +0.000 OA
ATOM      2  C   UNL     1       4.045   4.645  17.954  0.00  0.00    +0.000 C 
ATOM      3  N   UNL     1       5.119   3.902  17.500  0.00  0.00    +0.000 N 
ATOM      4  H   UNL     1       5.286   2.973  17.865  0.00  0.00    +0.000 HD
ENDROOT
BRANCH   3   5
ATOM      5  C   UNL     1       5.913   4.300  16.440  0.00  0.00    +0.000 A 
ATOM      6  C   UNL     1       5.829   4.028  15.056  0.00  0.00    +0.000 A 
ATOM      7  N   UNL     1       6.817   4.602  14.363  0.00  0.00    +0.000 NA
ATOM      8  N   UNL     1       7.539   5.230  15.304  0.00  0.00    +0.000 N 
ATOM      9  C   UNL     1       7.025   5.100  16.564  0.00  0.00    +0.000 A 
ATOM     10  H   UNL     1       8.374   5.727  15.013  0.00  0.00    +0.000 HD
ENDBRANCH   3   5
BRANCH   2  11
ATOM     11  C   UNL     1       3.305   4.070  19.096  0.00  0.00    +0.000 A 
ATOM     12  C   UNL     1       2.059   4.591  19.448  0.00  0.00    +0.000 A 
ATOM     13  C   UNL     1       1.377   4.054  20.537  0.00  0.00    +0.000 A 
ATOM     14  C   UNL     1       1.978   3.019  21.235  0.00  0.00    +0.000 A 
ATOM     15  N   UNL     1       3.181   2.501  20.928  0.00  0.00    +0.000 NA
ATOM     16  C   UNL     1       3.829   3.046  19.872  0.00  0.00    +0.000 A 
BRANCH  14  17
ATOM     17  O   UNL     1       1.369   2.447  22.310  0.00  0.00    +0.000 OA
ATOM     18  H   UNL     1       1.988   1.822  22.713  0.00  0.00    +0.000 HD
ENDBRANCH  14  17
ENDBRANCH   2  11
TORSDOF 3
ENDMDL
MODEL 3
REMARK VINA RESULT:      -6.6      1.978      6.368
REMARK  Name = 
REMARK  3 active torsions:
REMARK  status: ('A' for Active; 'I' for Inactive)
REMARK    1  A    between atoms: C_2  and  C_9
REMARK    2  A    between atoms: N_3  and  C_4
REMARK    3  A    between atoms: C_12  and  O_13
REMARK                            x       y       z     vdW  Elec       q    Type
REMARK                         _______ _______ _______ _____ _____    ______ ____
ROOT
ATOM      1  O   UNL     1       3.386   5.402  17.381  0.00  0.00    +0.000 OA
ATOM      2  C   UNL     1       3.991   4.731  18.211  0.00  0.00    +0.000 C 
ATOM      3  N   UNL     1       5.343   4.445  18.200  0.00  0.00    +0.000 N 
ATOM      4  H   UNL     1       5.722   3.753  18.833  0.00  0.00    +0.000 HD
ENDROOT
BRANCH   3   5
ATOM      5  C   UNL     1       6.210   4.950  17.248  0.00  0.00    +0.000 A 
ATOM      6  C   UNL     1       6.874   6.194  17.155  0.00  0.00    +0.000 A 
ATOM      7  N   UNL     1       7.624   6.289  16.053  0.00  0.00    +0.000 NA
ATOM      8  N   UNL     1       7.431   5.114  15.436  0.00  0.00    +0.000 N 
ATOM      9  C   UNL     1       6.610   4.265  16.124  0.00  0.00    +0.000 A 
ATOM     10  H   UNL     1       7.890   4.960  14.545  0.00  0.00    +0.000 HD
ENDBRANCH   3   5
BRANCH   2  11
ATOM     11  C   UNL     1       3.212   4.106  19.299  0.00  0.00    +0.000 A 
ATOM     12  C   UNL     1       1.925   4.565  19.583  0.00  0.00    +0.000 A 
ATOM     13  C   UNL     1       1.205   3.981  20.623  0.00  0.00    +0.000 A 
ATOM     14  C   UNL     1       1.812   2.964  21.342  0.00  0.00    +0.000 A 
ATOM     15  N   UNL     1       3.053   2.506  21.101  0.00  0.00    +0.000 NA
ATOM     16  C   UNL     1       3.737   3.096  20.092  0.00  0.00    +0.000 A 
BRANCH  14  17
ATOM     17  O   UNL     1       1.168   2.349  22.372  0.00  0.00    +0.000 OA
ATOM     18  H   UNL     1       0.888   1.471  22.076  0.00  0.00    +0.000 HD
ENDBRANCH  14  17
ENDBRANCH   2  11
TORSDOF 3
ENDMDL
MODEL 4
REMARK VINA RESULT:      -6.6      0.853      1.127
REMARK  Name = 
REMARK  3 active torsions:
REMARK  status: ('A' for Active; 'I' for Inactive)
REMARK    1  A    between atoms: C_2  and  C_9
REMARK    2  A    between atoms: N_3  and  C_4
REMARK    3  A    between atoms: C_12  and  O_13
REMARK                            x       y       z     vdW  Elec       q    Type
REMARK                         _______ _______ _______ _____ _____    ______ ____
ROOT
ATOM      1  O   UNL     1       4.209   5.576  19.755  0.00  0.00    +0.000 OA
ATOM      2  C   UNL     1       4.244   4.678  18.921  0.00  0.00    +0.000 C 
ATOM      3  N   UNL     1       3.533   3.494  18.967  0.00  0.00    +0.000 N 
ATOM      4  H   UNL     1       3.748   2.745  18.320  0.00  0.00    +0.000 HD
ENDROOT
BRANCH   3   5
ATOM      5  C   UNL     1       2.625   3.201  19.968  0.00  0.00    +0.000 A 
ATOM      6  C   UNL     1       2.807   2.707  21.279  0.00  0.00    +0.000 A 
ATOM      7  N   UNL     1       1.649   2.548  21.929  0.00  0.00    +0.000 NA
ATOM      8  N   UNL     1       0.728   2.928  21.030  0.00  0.00    +0.000 N 
ATOM      9  C   UNL     1       1.263   3.352  19.846  0.00  0.00    +0.000 A 
ATOM     10  H   UNL     1      -0.249   2.870  21.293  0.00  0.00    +0.000 HD
ENDBRANCH   3   5
BRANCH   2  11
ATOM     11  C   UNL     1       5.173   4.824  17.782  0.00  0.00    +0.000 A 
ATOM     12  C   UNL     1       6.532   4.557  17.956  0.00  0.00    +0.000 A 
ATOM     13  C   UNL     1       7.403   4.715  16.881  0.00  0.00    +0.000 A 
ATOM     14  C   UNL     1       6.875   5.144  15.674  0.00  0.00    +0.000 A 
ATOM     15  N   UNL     1       5.573   5.420  15.475  0.00  0.00    +0.000 NA
ATOM     16  C   UNL     1       4.748   5.268  16.538  0.00  0.00    +0.000 A 
BRANCH  14  17
ATOM     17  O   UNL     1       7.667   5.321  14.581  0.00  0.00    +0.000 OA
ATOM     18  H   UNL     1       7.511   6.210  14.232  0.00  0.00    +0.000 HD
ENDBRANCH  14  17
ENDBRANCH   2  11
TORSDOF 3
ENDMDL
MODEL 5
REMARK VINA RESULT:      -6.5      0.550      1.059
REMARK  Name = 
REMARK  3 active torsions:
REMARK  status: ('A' for Active; 'I' for Inactive)
REMARK    1  A    between atoms: C_2  and  C_9
REMARK    2  A    between atoms: N_3  and  C_4
REMARK    3  A    between atoms: C_12  and  O_13
REMARK                            x       y       z     vdW  Elec       q    Type
REMARK                         _______ _______ _______ _____ _____    ______ ____
ROOT
ATOM      1  O   UNL     1       5.246   5.247  19.692  0.00  0.00    +0.000 OA
ATOM      2  C   UNL     1       4.860   4.610  18.717  0.00  0.00    +0.000 C 
ATOM      3  N   UNL     1       3.831   3.687  18.702  0.00  0.00    +0.000 N 
ATOM      4  H   UNL     1       3.691   3.095  17.893  0.00  0.00    +0.000 HD
ENDROOT
BRANCH   3   5
ATOM      5  C   UNL     1       3.053   3.410  19.810  0.00  0.00    +0.000 A 
ATOM      6  C   UNL     1       1.775   3.875  20.195  0.00  0.00    +0.000 A 
ATOM      7  N   UNL     1       1.379   3.364  21.365  0.00  0.00    +0.000 NA
ATOM      8  N   UNL     1       2.405   2.584  21.733  0.00  0.00    +0.000 N 
ATOM      9  C   UNL     1       3.425   2.557  20.823  0.00  0.00    +0.000 A 
ATOM     10  H   UNL     1       2.343   2.099  22.622  0.00  0.00    +0.000 HD
ENDBRANCH   3   5
BRANCH   2  11
ATOM     11  C   UNL     1       5.589   4.780  17.444  0.00  0.00    +0.000 A 
ATOM     12  C   UNL     1       5.259   3.986  16.344  0.00  0.00    +0.000 A 
ATOM     13  C   UNL     1       5.964   4.141  15.153  0.00  0.00    +0.000 A 
ATOM     14  C   UNL     1       6.980   5.083  15.117  0.00  0.00    +0.000 A 
ATOM     15  N   UNL     1       7.329   5.856  16.161  0.00  0.00    +0.000 NA
ATOM     16  C   UNL     1       6.636   5.680  17.310  0.00  0.00    +0.000 A 
BRANCH  14  17
ATOM     17  O   UNL     1       7.710   5.287  13.987  0.00  0.00    +0.000 OA
ATOM     18  H   UNL     1       7.103   5.517  13.269  0.00  0.00    +0.000 HD
ENDBRANCH  14  17
ENDBRANCH   2  11
TORSDOF 3
ENDMDL
MODEL 6
REMARK VINA RESULT:      -6.4      2.020      2.099
REMARK  Name = 
REMARK  3 active torsions:
REMARK  status: ('A' for Active; 'I' for Inactive)
REMARK    1  A    between atoms: C_2  and  C_9
REMARK    2  A    between atoms: N_3  and  C_4
REMARK    3  A    between atoms: C_12  and  O_13
REMARK                            x       y       z     vdW  Elec       q    Type
REMARK                         _______ _______ _______ _____ _____    ______ ____
ROOT
ATOM      1  O   UNL     1       5.051   3.188  19.495  0.00  0.00    +0.000 OA
ATOM      2  C   UNL     1       4.650   4.344  19.415  0.00  0.00    +0.000 C 
ATOM      3  N   UNL     1       3.414   4.809  19.824  0.00  0.00    +0.000 N 
ATOM      4  H   UNL     1       3.111   5.741  19.571  0.00  0.00    +0.000 HD
ENDROOT
BRANCH   3   5
ATOM      5  C   UNL     1       2.477   4.004  20.446  0.00  0.00    +0.000 A 
ATOM      6  C   UNL     1       2.519   3.292  21.665  0.00  0.00    +0.000 A 
ATOM      7  N   UNL     1       1.389   2.615  21.899  0.00  0.00    +0.000 NA
ATOM      8  N   UNL     1       0.632   2.885  20.826  0.00  0.00    +0.000 N 
ATOM      9  C   UNL     1       1.229   3.733  19.935  0.00  0.00    +0.000 A 
ATOM     10  H   UNL     1      -0.283   2.452  20.765  0.00  0.00    +0.000 HD
ENDBRANCH   3   5
BRANCH   2  11
ATOM     11  C   UNL     1       5.527   5.340  18.767  0.00  0.00    +0.000 A 
ATOM     12  C   UNL     1       5.051   6.084  17.687  0.00  0.00    +0.000 A 
ATOM     13  C   UNL     1       5.892   7.008  17.070  0.00  0.00    +0.000 A 
ATOM     14  C   UNL     1       7.181   7.141  17.559  0.00  0.00    +0.000 A 
ATOM     15  N   UNL     1       7.674   6.432  18.591  0.00  0.00    +0.000 NA
ATOM     16  C   UNL     1       6.841   5.534  19.167  0.00  0.00    +0.000 A 
BRANCH  14  17
ATOM     17  O   UNL     1       8.057   8.024  17.004  0.00  0.00    +0.000 OA
ATOM     18  H   UNL     1       8.175   7.791  16.072  0.00  0.00    +0.000 HD
ENDBRANCH  14  17
ENDBRANCH   2  11
TORSDOF 3
ENDMDL
MODEL 7
REMARK VINA RESULT:      -6.4      2.009      2.397
REMARK  Name = 
REMARK  3 active torsions:
REMARK  status: ('A' for Active; 'I' for Inactive)
REMARK    1  A    between atoms: C_2  and  C_9
REMARK    2  A    between atoms: N_3  and  C_4
REMARK    3  A    between atoms: C_12  and  O_13
REMARK                            x       y       z     vdW  Elec       q    Type
REMARK                         _______ _______ _______ _____ _____    ______ ____
ROOT
ATOM      1  O   UNL     1       4.901   3.317  19.357  0.00  0.00    +0.000 OA
ATOM      2  C   UNL     1       4.497   4.372  18.880  0.00  0.00    +0.000 C 
ATOM      3  N   UNL     1       3.176   4.726  18.682  0.00  0.00    +0.000 N 
ATOM      4  H   UNL     1       2.945   5.546  18.135  0.00  0.00    +0.000 HD
ENDROOT
BRANCH   3   5
ATOM      5  C   UNL     1       2.118   3.923  19.066  0.00  0.00    +0.000 A 
ATOM      6  C   UNL     1       1.469   2.854  18.408  0.00  0.00    +0.000 A 
ATOM      7  N   UNL     1       0.465   2.346  19.130  0.00  0.00    +0.000 NA
ATOM      8  N   UNL     1       0.465   3.096  20.242  0.00  0.00    +0.000 N 
ATOM      9  C   UNL     1       1.452   4.041  20.264  0.00  0.00    +0.000 A 
ATOM     10  H   UNL     1      -0.242   2.908  20.945  0.00  0.00    +0.000 HD
ENDBRANCH   3   5
BRANCH   2  11
ATOM     11  C   UNL     1       5.500   5.348  18.407  0.00  0.00    +0.000 A 
ATOM     12  C   UNL     1       6.735   5.441  19.050  0.00  0.00    +0.000 A 
ATOM     13  C   UNL     1       7.668   6.376  18.608  0.00  0.00    +0.000 A 
ATOM     14  C   UNL     1       7.318   7.187  17.540  0.00  0.00    +0.000 A 
ATOM     15  N   UNL     1       6.134   7.130  16.905  0.00  0.00    +0.000 NA
ATOM     16  C   UNL     1       5.241   6.220  17.359  0.00  0.00    +0.000 A 
BRANCH  14  17
ATOM     17  O   UNL     1       8.180   8.124  17.056  0.00  0.00    +0.000 OA
ATOM     18  H   UNL     1       8.137   8.903  17.629  0.00  0.00    +0.000 HD
ENDBRANCH  14  17
ENDBRANCH   2  11
TORSDOF 3
ENDMDL
MODEL 8
REMARK VINA RESULT:      -6.4      2.021      6.260
REMARK  Name = 
REMARK  3 active torsions:
REMARK  status: ('A' for Active; 'I' for Inactive)
REMARK    1  A    between atoms: C_2  and  C_9
REMARK    2  A    between atoms: N_3  and  C_4
REMARK    3  A    between atoms: C_12  and  O_13
REMARK                            x       y       z     vdW  Elec       q    Type
REMARK                         _______ _______ _______ _____ _____    ______ ____
ROOT
ATOM      1  O   UNL     1       3.947   6.068  17.092  0.00  0.00    +0.000 OA
ATOM      2  C   UNL     1       4.076   4.879  17.366  0.00  0.00    +0.000 C 
ATOM      3  N   UNL     1       4.959   3.996  16.775  0.00  0.00    +0.000 N 
ATOM      4  H   UNL     1       4.882   3.003  16.952  0.00  0.00    +0.000 HD
ENDROOT
BRANCH   3   5
ATOM      5  C   UNL     1       5.873   4.381  15.811  0.00  0.00    +0.000 A 
ATOM      6  C   UNL     1       7.095   5.084  15.909  0.00  0.00    +0.000 A 
ATOM      7  N   UNL     1       7.676   5.265  14.718  0.00  0.00    +0.000 NA
ATOM      8  N   UNL     1       6.822   4.689  13.860  0.00  0.00    +0.000 N 
ATOM      9  C   UNL     1       5.736   4.122  14.467  0.00  0.00    +0.000 A 
ATOM     10  H   UNL     1       7.043   4.722  12.871  0.00  0.00    +0.000 HD
ENDBRANCH   3   5
BRANCH   2  11
ATOM     11  C   UNL     1       3.168   4.298  18.376  0.00  0.00    +0.000 A 
ATOM     12  C   UNL     1       1.968   3.709  17.974  0.00  0.00    +0.000 A 
ATOM     13  C   UNL     1       1.110   3.180  18.935  0.00  0.00    +0.000 A 
ATOM     14  C   UNL     1       1.489   3.271  20.265  0.00  0.00    +0.000 A 
ATOM     15  N   UNL     1       2.633   3.840  20.686  0.00  0.00    +0.000 NA
ATOM     16  C   UNL     1       3.445   4.356  19.734  0.00  0.00    +0.000 A 
BRANCH  14  17
ATOM     17  O   UNL     1       0.700   2.775  21.257  0.00  0.00    +0.000 OA
ATOM     18  H   UNL     1       0.694   1.810  21.189  0.00  0.00    +0.000 HD
ENDBRANCH  14  17
ENDBRANCH   2  11
TORSDOF 3
ENDMDL
MODEL 9
REMARK VINA RESULT:      -6.3      2.147      6.369
REMARK  Name = 
REMARK  3 active torsions:
REMARK  status: ('A' for Active; 'I' for Inactive)
REMARK    1  A    between atoms: C_2  and  C_9
REMARK    2  A    between atoms: N_3  and  C_4
REMARK    3  A    between atoms: C_12  and  O_13
REMARK                            x       y       z     vdW  Elec       q    Type
REMARK                         _______ _______ _______ _____ _____    ______ ____
ROOT
ATOM      1  O   UNL     1       3.898   2.761  17.061  0.00  0.00    +0.000 OA
ATOM      2  C   UNL     1       4.015   3.515  18.022  0.00  0.00    +0.000 C 
ATOM      3  N   UNL     1       4.887   4.583  18.119  0.00  0.00    +0.000 N 
ATOM      4  H   UNL     1       5.027   5.047  19.008  0.00  0.00    +0.000 HD
ENDROOT
BRANCH   3   5
ATOM      5  C   UNL     1       5.716   4.973  17.083  0.00  0.00    +0.000 A 
ATOM      6  C   UNL     1       7.092   4.747  16.853  0.00  0.00    +0.000 A 
ATOM      7  N   UNL     1       7.519   5.316  15.721  0.00  0.00    +0.000 NA
ATOM      8  N   UNL     1       6.421   5.913  15.234  0.00  0.00    +0.000 N 
ATOM      9  C   UNL     1       5.307   5.717  16.002  0.00  0.00    +0.000 A 
ATOM     10  H   UNL     1       6.506   6.441  14.373  0.00  0.00    +0.000 HD
ENDBRANCH   3   5
BRANCH   2  11
ATOM     11  C   UNL     1       3.204   3.238  19.224  0.00  0.00    +0.000 A 
ATOM     12  C   UNL     1       1.850   3.573  19.241  0.00  0.00    +0.000 A 
ATOM     13  C   UNL     1       1.097   3.324  20.386  0.00  0.00    +0.000 A 
ATOM     14  C   UNL     1       1.739   2.755  21.474  0.00  0.00    +0.000 A 
ATOM     15  N   UNL     1       3.044   2.428  21.495  0.00  0.00    +0.000 NA
ATOM     16  C   UNL     1       3.756   2.689  20.373  0.00  0.00    +0.000 A 
BRANCH  14  17
ATOM     17  O   UNL     1       1.066   2.484  22.626  0.00  0.00    +0.000 OA
ATOM     18  H   UNL     1       0.806   1.552  22.616  0.00  0.00    +0.000 HD
ENDBRANCH  14  17
ENDBRANCH   2  11
TORSDOF 3
ENDMDL
