MODEL 1
REMARK VINA RESULT:      -7.8      0.000      0.000
REMARK  Name = 
REMARK  6 active torsions:
REMARK  status: ('A' for Active; 'I' for Inactive)
REMARK    1  A    between atoms: C_1  and  O_2
REMARK    2  A    between atoms: O_2  and  C_3
REMARK    3  A    between atoms: C_6  and  N_7
REMARK    4  A    between atoms: C_13  and  C_14
REMARK    5  A    between atoms: C_14  and  C_16
REMARK    6  A    between atoms: C_17  and  C_18
REMARK                            x       y       z     vdW  Elec       q    Type
REMARK                         _______ _______ _______ _____ _____    ______ ____
ROOT
ATOM      1  N   UNL     1      -1.767  12.122  20.761  0.00  0.00    +0.000 N 
ATOM      2  C   UNL     1      -0.399  12.488  21.138  0.00  0.00    +0.000 C 
ATOM      3  O   UNL     1       0.285  13.074  20.014  0.00  0.00    +0.000 OA
ATOM      4  C   UNL     1       0.552  12.053  19.141  0.00  0.00    +0.000 A 
ATOM      5  C   UNL     1       1.809  11.994  18.579  0.00  0.00    +0.000 A 
ATOM      6  C   UNL     1       2.247  10.774  18.096  0.00  0.00    +0.000 A 
ATOM      7  C   UNL     1       1.459   9.600  18.212  0.00  0.00    +0.000 A 
ATOM      8  C   UNL     1       0.094   9.751  18.603  0.00  0.00    +0.000 A 
ATOM      9  C   UNL     1      -0.388  11.023  19.011  0.00  0.00    +0.000 A 
ATOM     10  C   UNL     1      -1.810  11.477  19.421  0.00  0.00    +0.000 C 
ENDROOT
BRANCH   1  14
ATOM     11  C   UNL     1      -5.071  13.586  23.070  0.00  0.00    +0.000 A 
ATOM     12  C   UNL     1      -4.046  12.864  23.642  0.00  0.00    +0.000 A 
ATOM     13  C   UNL     1      -2.976  12.404  22.868  0.00  0.00    +0.000 A 
ATOM     14  C   UNL     1      -2.840  12.644  21.479  0.00  0.00    +0.000 A 
ATOM     15  C   UNL     1      -3.885  13.406  20.932  0.00  0.00    +0.000 A 
ATOM     16  C   UNL     1      -4.986  13.879  21.710  0.00  0.00    +0.000 A 
BRANCH  11  18
ATOM     17  C   UNL     1      -7.160  13.024  24.094  0.00  0.00    +0.000 C 
ATOM     18  O   UNL     1      -6.068  13.915  23.942  0.00  0.00    +0.000 OA
ENDBRANCH  11  18
ENDBRANCH   1  14
BRANCH   7  19
ATOM     19  C   UNL     1       2.270   8.352  17.923  0.00  0.00    +0.000 C 
ATOM     20  O   UNL     1       3.094   8.402  16.998  0.00  0.00    +0.000 OA
BRANCH  19  21
ATOM     21  C   UNL     1       2.358   7.127  18.762  0.00  0.00    +0.000 C 
ATOM     22  C   UNL     1       2.141   5.855  18.442  0.00  0.00    +0.000 C 
BRANCH  22  23
ATOM     23  C   UNL     1       2.310   4.686  19.357  0.00  0.00    +0.000 A 
ATOM     24  C   UNL     1       1.468   4.411  20.434  0.00  0.00    +0.000 A 
ATOM     25  C   UNL     1       1.718   3.329  21.299  0.00  0.00    +0.000 A 
ATOM     26  C   UNL     1       2.822   2.516  21.119  0.00  0.00    +0.000 A 
ATOM     27  C   UNL     1       3.691   2.767  20.064  0.00  0.00    +0.000 A 
ATOM     28  C   UNL     1       3.447   3.842  19.195  0.00  0.00    +0.000 A 
ATOM     29 CL   UNL     1       4.595   4.063  17.910  0.00  0.00    +0.000 Cl
ENDBRANCH  22  23
ENDBRANCH  19  21
ENDBRANCH   7  19
TORSDOF 5
ENDMDL
MODEL 2
REMARK VINA RESULT:      -7.7      4.130     10.339
REMARK  Name = 
REMARK  6 active torsions:
REMARK  status: ('A' for Active; 'I' for Inactive)
REMARK    1  A    between atoms: C_1  and  O_2
REMARK    2  A    between atoms: O_2  and  C_3
REMARK    3  A    between atoms: C_6  and  N_7
REMARK    4  A    between atoms: C_13  and  C_14
REMARK    5  A    between atoms: C_14  and  C_16
REMARK    6  A    between atoms: C_17  and  C_18
REMARK                            x       y       z     vdW  Elec       q    Type
REMARK                         _______ _______ _______ _____ _____    ______ ____
ROOT
ATOM      1  N   UNL     1       1.793   7.968  20.021  0.00  0.00    +0.000 N 
ATOM      2  C   UNL     1       1.406   8.112  21.426  0.00  0.00    +0.000 C 
ATOM      3  O   UNL     1       0.016   8.482  21.521  0.00  0.00    +0.000 OA
ATOM      4  C   UNL     1      -0.070   9.790  21.124  0.00  0.00    +0.000 A 
ATOM      5  C   UNL     1      -0.840  10.647  21.880  0.00  0.00    +0.000 A 
ATOM      6  C   UNL     1      -0.577  12.002  21.793  0.00  0.00    +0.000 A 
ATOM      7  C   UNL     1       0.479  12.506  20.991  0.00  0.00    +0.000 A 
ATOM      8  C   UNL     1       1.102  11.610  20.072  0.00  0.00    +0.000 A 
ATOM      9  C   UNL     1       0.768  10.230  20.092  0.00  0.00    +0.000 A 
ATOM     10  C   UNL     1       1.237   9.066  19.186  0.00  0.00    +0.000 C 
ENDROOT
BRANCH   1  14
ATOM     11  C   UNL     1       3.397   4.296  18.493  0.00  0.00    +0.000 A 
ATOM     12  C   UNL     1       3.436   5.466  17.767  0.00  0.00    +0.000 A 
ATOM     13  C   UNL     1       2.913   6.652  18.290  0.00  0.00    +0.000 A 
ATOM     14  C   UNL     1       2.332   6.762  19.577  0.00  0.00    +0.000 A 
ATOM     15  C   UNL     1       2.331   5.561  20.303  0.00  0.00    +0.000 A 
ATOM     16  C   UNL     1       2.859   4.341  19.779  0.00  0.00    +0.000 A 
BRANCH  11  18
ATOM     17  C   UNL     1       3.209   1.978  17.927  0.00  0.00    +0.000 C 
ATOM     18  O   UNL     1       3.895   3.215  17.827  0.00  0.00    +0.000 OA
ENDBRANCH  11  18
ENDBRANCH   1  14
BRANCH   7  19
ATOM     19  C   UNL     1       0.781  13.957  21.313  0.00  0.00    +0.000 C 
ATOM     20  O   UNL     1       1.178  14.223  22.457  0.00  0.00    +0.000 OA
BRANCH  19  21
ATOM     21  C   UNL     1       0.868  15.088  20.351  0.00  0.00    +0.000 C 
ATOM     22  C   UNL     1       0.323  15.230  19.146  0.00  0.00    +0.000 C 
BRANCH  22  23
ATOM     23  C   UNL     1       0.434  16.440  18.278  0.00  0.00    +0.000 A 
ATOM     24  C   UNL     1      -0.630  17.296  17.995  0.00  0.00    +0.000 A 
ATOM     25  C   UNL     1      -0.477  18.386  17.117  0.00  0.00    +0.000 A 
ATOM     26  C   UNL     1       0.731  18.630  16.491  0.00  0.00    +0.000 A 
ATOM     27  C   UNL     1       1.811  17.792  16.740  0.00  0.00    +0.000 A 
ATOM     28  C   UNL     1       1.668  16.703  17.616  0.00  0.00    +0.000 A 
ATOM     29 CL   UNL     1       3.081  15.723  17.856  0.00  0.00    +0.000 Cl
ENDBRANCH  22  23
ENDBRANCH  19  21
ENDBRANCH   7  19
TORSDOF 5
ENDMDL
MODEL 3
REMARK VINA RESULT:      -7.6      3.113      4.102
REMARK  Name = 
REMARK  6 active torsions:
REMARK  status: ('A' for Active; 'I' for Inactive)
REMARK    1  A    between atoms: C_1  and  O_2
REMARK    2  A    between atoms: O_2  and  C_3
REMARK    3  A    between atoms: C_6  and  N_7
REMARK    4  A    between atoms: C_13  and  C_14
REMARK    5  A    between atoms: C_14  and  C_16
REMARK    6  A    between atoms: C_17  and  C_18
REMARK                            x       y       z     vdW  Elec       q    Type
REMARK                         _______ _______ _______ _____ _____    ______ ____
ROOT
ATOM      1  N   UNL     1       0.112  11.251  21.302  0.00  0.00    +0.000 N 
ATOM      2  C   UNL     1       0.986  11.703  20.217  0.00  0.00    +0.000 C 
ATOM      3  O   UNL     1       0.523  11.180  18.957  0.00  0.00    +0.000 OA
ATOM      4  C   UNL     1       0.825   9.844  18.952  0.00  0.00    +0.000 A 
ATOM      5  C   UNL     1       1.385   9.311  17.812  0.00  0.00    +0.000 A 
ATOM      6  C   UNL     1       2.108   8.138  17.932  0.00  0.00    +0.000 A 
ATOM      7  C   UNL     1       2.317   7.517  19.190  0.00  0.00    +0.000 A 
ATOM      8  C   UNL     1       1.548   7.983  20.298  0.00  0.00    +0.000 A 
ATOM      9  C   UNL     1       0.728   9.134  20.155  0.00  0.00    +0.000 A 
ATOM     10  C   UNL     1      -0.239   9.812  21.156  0.00  0.00    +0.000 C 
ENDROOT
BRANCH   1  14
ATOM     11  C   UNL     1      -1.957  14.072  23.781  0.00  0.00    +0.000 A 
ATOM     12  C   UNL     1      -2.369  12.763  23.668  0.00  0.00    +0.000 A 
ATOM     13  C   UNL     1      -1.673  11.860  22.859  0.00  0.00    +0.000 A 
ATOM     14  C   UNL     1      -0.510  12.190  22.120  0.00  0.00    +0.000 A 
ATOM     15  C   UNL     1      -0.100  13.524  22.277  0.00  0.00    +0.000 A 
ATOM     16  C   UNL     1      -0.805  14.458  23.098  0.00  0.00    +0.000 A 
BRANCH  11  18
ATOM     17  C   UNL     1      -2.192  15.585  25.621  0.00  0.00    +0.000 C 
ATOM     18  O   UNL     1      -2.770  14.842  24.561  0.00  0.00    +0.000 OA
ENDBRANCH  11  18
ENDBRANCH   1  14
BRANCH   7  19
ATOM     19  C   UNL     1       3.398   6.456  19.117  0.00  0.00    +0.000 C 
ATOM     20  O   UNL     1       3.447   5.619  20.031  0.00  0.00    +0.000 OA
BRANCH  19  21
ATOM     21  C   UNL     1       4.283   6.158  17.960  0.00  0.00    +0.000 C 
ATOM     22  C   UNL     1       4.402   5.047  17.238  0.00  0.00    +0.000 C 
BRANCH  22  23
ATOM     23  C   UNL     1       5.293   4.871  16.053  0.00  0.00    +0.000 A 
ATOM     24  C   UNL     1       4.899   4.252  14.866  0.00  0.00    +0.000 A 
ATOM     25  C   UNL     1       5.806   4.060  13.807  0.00  0.00    +0.000 A 
ATOM     26  C   UNL     1       7.124   4.460  13.918  0.00  0.00    +0.000 A 
ATOM     27  C   UNL     1       7.557   5.069  15.090  0.00  0.00    +0.000 A 
ATOM     28  C   UNL     1       6.658   5.267  16.151  0.00  0.00    +0.000 A 
ATOM     29 CL   UNL     1       7.304   6.039  17.566  0.00  0.00    +0.000 Cl
ENDBRANCH  22  23
ENDBRANCH  19  21
ENDBRANCH   7  19
TORSDOF 5
ENDMDL
MODEL 4
REMARK VINA RESULT:      -7.5      2.172      2.823
REMARK  Name = 
REMARK  6 active torsions:
REMARK  status: ('A' for Active; 'I' for Inactive)
REMARK    1  A    between atoms: C_1  and  O_2
REMARK    2  A    between atoms: O_2  and  C_3
REMARK    3  A    between atoms: C_6  and  N_7
REMARK    4  A    between atoms: C_13  and  C_14
REMARK    5  A    between atoms: C_14  and  C_16
REMARK    6  A    between atoms: C_17  and  C_18
REMARK                            x       y       z     vdW  Elec       q    Type
REMARK                         _______ _______ _______ _____ _____    ______ ____
ROOT
ATOM      1  N   UNL     1      -1.419  12.923  21.637  0.00  0.00    +0.000 N 
ATOM      2  C   UNL     1      -1.681  13.273  20.239  0.00  0.00    +0.000 C 
ATOM      3  O   UNL     1      -2.446  12.232  19.602  0.00  0.00    +0.000 OA
ATOM      4  C   UNL     1      -1.595  11.175  19.419  0.00  0.00    +0.000 A 
ATOM      5  C   UNL     1      -1.612  10.534  18.199  0.00  0.00    +0.000 A 
ATOM      6  C   UNL     1      -0.491   9.813  17.829  0.00  0.00    +0.000 A 
ATOM      7  C   UNL     1       0.667   9.766  18.648  0.00  0.00    +0.000 A 
ATOM      8  C   UNL     1       0.561  10.261  19.981  0.00  0.00    +0.000 A 
ATOM      9  C   UNL     1      -0.627  10.921  20.398  0.00  0.00    +0.000 A 
ATOM     10  C   UNL     1      -1.029  11.494  21.778  0.00  0.00    +0.000 C 
ENDROOT
BRANCH   1  14
ATOM     11  C   UNL     1      -2.830  15.589  24.686  0.00  0.00    +0.000 A 
ATOM     12  C   UNL     1      -3.622  14.586  24.171  0.00  0.00    +0.000 A 
ATOM     13  C   UNL     1      -3.136  13.724  23.183  0.00  0.00    +0.000 A 
ATOM     14  C   UNL     1      -1.825  13.788  22.650  0.00  0.00    +0.000 A 
ATOM     15  C   UNL     1      -1.034  14.802  23.213  0.00  0.00    +0.000 A 
ATOM     16  C   UNL     1      -1.519  15.691  24.221  0.00  0.00    +0.000 A 
BRANCH  11  18
ATOM     17  C   UNL     1      -4.419  17.319  25.141  0.00  0.00    +0.000 C 
ATOM     18  O   UNL     1      -3.463  16.379  25.600  0.00  0.00    +0.000 OA
ENDBRANCH  11  18
ENDBRANCH   1  14
BRANCH   7  19
ATOM     19  C   UNL     1       1.860   9.207  17.895  0.00  0.00    +0.000 C 
ATOM     20  O   UNL     1       2.723  10.008  17.507  0.00  0.00    +0.000 OA
BRANCH  19  21
ATOM     21  C   UNL     1       2.238   7.776  17.753  0.00  0.00    +0.000 C 
ATOM     22  C   UNL     1       2.573   6.883  18.680  0.00  0.00    +0.000 C 
BRANCH  22  23
ATOM     23  C   UNL     1       2.887   5.445  18.430  0.00  0.00    +0.000 A 
ATOM     24  C   UNL     1       3.691   4.993  17.384  0.00  0.00    +0.000 A 
ATOM     25  C   UNL     1       3.898   3.618  17.163  0.00  0.00    +0.000 A 
ATOM     26  C   UNL     1       3.292   2.670  17.966  0.00  0.00    +0.000 A 
ATOM     27  C   UNL     1       2.474   3.082  19.011  0.00  0.00    +0.000 A 
ATOM     28  C   UNL     1       2.264   4.452  19.240  0.00  0.00    +0.000 A 
ATOM     29 CL   UNL     1       1.227   4.855  20.573  0.00  0.00    +0.000 Cl
ENDBRANCH  22  23
ENDBRANCH  19  21
ENDBRANCH   7  19
TORSDOF 5
ENDMDL
MODEL 5
REMARK VINA RESULT:      -7.5      3.137      3.974
REMARK  Name = 
REMARK  6 active torsions:
REMARK  status: ('A' for Active; 'I' for Inactive)
REMARK    1  A    between atoms: C_1  and  O_2
REMARK    2  A    between atoms: O_2  and  C_3
REMARK    3  A    between atoms: C_6  and  N_7
REMARK    4  A    between atoms: C_13  and  C_14
REMARK    5  A    between atoms: C_14  and  C_16
REMARK    6  A    between atoms: C_17  and  C_18
REMARK                            x       y       z     vdW  Elec       q    Type
REMARK                         _______ _______ _______ _____ _____    ______ ____
ROOT
ATOM      1  N   UNL     1       0.289  12.318  21.348  0.00  0.00    +0.000 N 
ATOM      2  C   UNL     1       1.338  12.586  20.361  0.00  0.00    +0.000 C 
ATOM      3  O   UNL     1       0.885  12.217  19.044  0.00  0.00    +0.000 OA
ATOM      4  C   UNL     1       0.876  10.848  19.002  0.00  0.00    +0.000 A 
ATOM      5  C   UNL     1       1.401  10.232  17.887  0.00  0.00    +0.000 A 
ATOM      6  C   UNL     1       1.827   8.921  18.011  0.00  0.00    +0.000 A 
ATOM      7  C   UNL     1       1.775   8.236  19.253  0.00  0.00    +0.000 A 
ATOM      8  C   UNL     1       1.034   8.836  20.314  0.00  0.00    +0.000 A 
ATOM      9  C   UNL     1       0.512  10.148  20.158  0.00  0.00    +0.000 A 
ATOM     10  C   UNL     1      -0.363  11.003  21.106  0.00  0.00    +0.000 C 
ENDROOT
BRANCH   1  14
ATOM     11  C   UNL     1      -1.303  15.437  23.823  0.00  0.00    +0.000 A 
ATOM     12  C   UNL     1      -1.772  14.143  23.890  0.00  0.00    +0.000 A 
ATOM     13  C   UNL     1      -1.230  13.142  23.078  0.00  0.00    +0.000 A 
ATOM     14  C   UNL     1      -0.176  13.353  22.156  0.00  0.00    +0.000 A 
ATOM     15  C   UNL     1       0.297  14.674  22.129  0.00  0.00    +0.000 A 
ATOM     16  C   UNL     1      -0.249  15.707  22.951  0.00  0.00    +0.000 A 
BRANCH  11  18
ATOM     17  C   UNL     1      -1.459  16.549  25.936  0.00  0.00    +0.000 C 
ATOM     18  O   UNL     1      -1.968  16.308  24.635  0.00  0.00    +0.000 OA
ENDBRANCH  11  18
ENDBRANCH   1  14
BRANCH   7  19
ATOM     19  C   UNL     1       2.590   6.957  19.219  0.00  0.00    +0.000 C 
ATOM     20  O   UNL     1       2.445   6.156  20.154  0.00  0.00    +0.000 OA
BRANCH  19  21
ATOM     21  C   UNL     1       3.391   6.436  18.079  0.00  0.00    +0.000 C 
ATOM     22  C   UNL     1       4.610   5.905  18.063  0.00  0.00    +0.000 C 
BRANCH  22  23
ATOM     23  C   UNL     1       5.306   5.360  16.859  0.00  0.00    +0.000 A 
ATOM     24  C   UNL     1       4.770   4.377  16.027  0.00  0.00    +0.000 A 
ATOM     25  C   UNL     1       5.503   3.859  14.943  0.00  0.00    +0.000 A 
ATOM     26  C   UNL     1       6.789   4.294  14.681  0.00  0.00    +0.000 A 
ATOM     27  C   UNL     1       7.361   5.263  15.496  0.00  0.00    +0.000 A 
ATOM     28  C   UNL     1       6.636   5.788  16.578  0.00  0.00    +0.000 A 
ATOM     29 CL   UNL     1       7.446   6.994  17.529  0.00  0.00    +0.000 Cl
ENDBRANCH  22  23
ENDBRANCH  19  21
ENDBRANCH   7  19
TORSDOF 5
ENDMDL
MODEL 6
REMARK VINA RESULT:      -7.5      2.393      3.010
REMARK  Name = 
REMARK  6 active torsions:
REMARK  status: ('A' for Active; 'I' for Inactive)
REMARK    1  A    between atoms: C_1  and  O_2
REMARK    2  A    between atoms: O_2  and  C_3
REMARK    3  A    between atoms: C_6  and  N_7
REMARK    4  A    between atoms: C_13  and  C_14
REMARK    5  A    between atoms: C_14  and  C_16
REMARK    6  A    between atoms: C_17  and  C_18
REMARK                            x       y       z     vdW  Elec       q    Type
REMARK                         _______ _______ _______ _____ _____    ______ ____
ROOT
ATOM      1  N   UNL     1      -1.273  12.271  22.598  0.00  0.00    +0.000 N 
ATOM      2  C   UNL     1      -1.490  10.859  22.919  0.00  0.00    +0.000 C 
ATOM      3  O   UNL     1      -0.263  10.262  23.383  0.00  0.00    +0.000 OA
ATOM      4  C   UNL     1       0.547  10.127  22.288  0.00  0.00    +0.000 A 
ATOM      5  C   UNL     1       1.219   8.936  22.122  0.00  0.00    +0.000 A 
ATOM      6  C   UNL     1       1.644   8.602  20.849  0.00  0.00    +0.000 A 
ATOM      7  C   UNL     1       1.362   9.427  19.730  0.00  0.00    +0.000 A 
ATOM      8  C   UNL     1       0.858  10.738  19.980  0.00  0.00    +0.000 A 
ATOM      9  C   UNL     1       0.507  11.121  21.302  0.00  0.00    +0.000 A 
ATOM     10  C   UNL     1       0.002  12.474  21.859  0.00  0.00    +0.000 C 
ENDROOT
BRANCH   1  14
ATOM     11  C   UNL     1      -3.504  15.344  24.590  0.00  0.00    +0.000 A 
ATOM     12  C   UNL     1      -2.303  15.604  23.968  0.00  0.00    +0.000 A 
ATOM     13  C   UNL     1      -1.598  14.586  23.318  0.00  0.00    +0.000 A 
ATOM     14  C   UNL     1      -2.045  13.245  23.227  0.00  0.00    +0.000 A 
ATOM     15  C   UNL     1      -3.285  13.018  23.847  0.00  0.00    +0.000 A 
ATOM     16  C   UNL     1      -4.013  14.048  24.517  0.00  0.00    +0.000 A 
BRANCH  11  18
ATOM     17  C   UNL     1      -4.473  17.528  24.448  0.00  0.00    +0.000 C 
ATOM     18  O   UNL     1      -4.041  16.425  25.227  0.00  0.00    +0.000 OA
ENDBRANCH  11  18
ENDBRANCH   1  14
BRANCH   7  19
ATOM     19  C   UNL     1       1.626   8.705  18.423  0.00  0.00    +0.000 C 
ATOM     20  O   UNL     1       1.905   9.394  17.430  0.00  0.00    +0.000 OA
BRANCH  19  21
ATOM     21  C   UNL     1       1.809   7.242  18.229  0.00  0.00    +0.000 C 
ATOM     22  C   UNL     1       2.832   6.457  18.557  0.00  0.00    +0.000 C 
BRANCH  22  23
ATOM     23  C   UNL     1       2.891   4.978  18.362  0.00  0.00    +0.000 A 
ATOM     24  C   UNL     1       3.562   4.355  17.309  0.00  0.00    +0.000 A 
ATOM     25  C   UNL     1       3.527   2.958  17.145  0.00  0.00    +0.000 A 
ATOM     26  C   UNL     1       2.807   2.158  18.013  0.00  0.00    +0.000 A 
ATOM     27  C   UNL     1       2.115   2.743  19.067  0.00  0.00    +0.000 A 
ATOM     28  C   UNL     1       2.147   4.137  19.240  0.00  0.00    +0.000 A 
ATOM     29 CL   UNL     1       1.250   4.761  20.589  0.00  0.00    +0.000 Cl
ENDBRANCH  22  23
ENDBRANCH  19  21
ENDBRANCH   7  19
TORSDOF 5
ENDMDL
MODEL 7
REMARK VINA RESULT:      -7.5      4.340      9.630
REMARK  Name = 
REMARK  6 active torsions:
REMARK  status: ('A' for Active; 'I' for Inactive)
REMARK    1  A    between atoms: C_1  and  O_2
REMARK    2  A    between atoms: O_2  and  C_3
REMARK    3  A    between atoms: C_6  and  N_7
REMARK    4  A    between atoms: C_13  and  C_14
REMARK    5  A    between atoms: C_14  and  C_16
REMARK    6  A    between atoms: C_17  and  C_18
REMARK                            x       y       z     vdW  Elec       q    Type
REMARK                         _______ _______ _______ _____ _____    ______ ____
ROOT
ATOM      1  N   UNL     1       2.013   8.042  19.214  0.00  0.00    +0.000 N 
ATOM      2  C   UNL     1       1.472   8.781  20.357  0.00  0.00    +0.000 C 
ATOM      3  O   UNL     1       0.274   9.484  19.971  0.00  0.00    +0.000 OA
ATOM      4  C   UNL     1       0.671  10.533  19.186  0.00  0.00    +0.000 A 
ATOM      5  C   UNL     1       0.102  11.766  19.418  0.00  0.00    +0.000 A 
ATOM      6  C   UNL     1       0.790  12.889  18.994  0.00  0.00    +0.000 A 
ATOM      7  C   UNL     1       2.065  12.792  18.380  0.00  0.00    +0.000 A 
ATOM      8  C   UNL     1       2.511  11.500  17.971  0.00  0.00    +0.000 A 
ATOM      9  C   UNL     1       1.758  10.348  18.324  0.00  0.00    +0.000 A 
ATOM     10  C   UNL     1       1.973   8.856  17.969  0.00  0.00    +0.000 C 
ENDROOT
BRANCH   1  14
ATOM     11  C   UNL     1       2.556   3.791  19.356  0.00  0.00    +0.000 A 
ATOM     12  C   UNL     1       2.848   4.525  18.228  0.00  0.00    +0.000 A 
ATOM     13  C   UNL     1       2.670   5.912  18.209  0.00  0.00    +0.000 A 
ATOM     14  C   UNL     1       2.206   6.666  19.314  0.00  0.00    +0.000 A 
ATOM     15  C   UNL     1       1.942   5.894  20.457  0.00  0.00    +0.000 A 
ATOM     16  C   UNL     1       2.117   4.476  20.488  0.00  0.00    +0.000 A 
BRANCH  11  18
ATOM     17  C   UNL     1       3.422   1.977  18.057  0.00  0.00    +0.000 C 
ATOM     18  O   UNL     1       2.729   2.446  19.201  0.00  0.00    +0.000 OA
ENDBRANCH  11  18
ENDBRANCH   1  14
BRANCH   7  19
ATOM     19  C   UNL     1       2.755  14.141  18.310  0.00  0.00    +0.000 C 
ATOM     20  O   UNL     1       2.044  15.144  18.145  0.00  0.00    +0.000 OA
BRANCH  19  21
ATOM     21  C   UNL     1       4.175  14.439  18.636  0.00  0.00    +0.000 C 
ATOM     22  C   UNL     1       5.174  14.814  17.843  0.00  0.00    +0.000 C 
BRANCH  22  23
ATOM     23  C   UNL     1       6.562  15.141  18.287  0.00  0.00    +0.000 A 
ATOM     24  C   UNL     1       6.912  16.316  18.951  0.00  0.00    +0.000 A 
ATOM     25  C   UNL     1       8.250  16.595  19.287  0.00  0.00    +0.000 A 
ATOM     26  C   UNL     1       9.265  15.718  18.950  0.00  0.00    +0.000 A 
ATOM     27  C   UNL     1       8.956  14.542  18.277  0.00  0.00    +0.000 A 
ATOM     28  C   UNL     1       7.623  14.255  17.940  0.00  0.00    +0.000 A 
ATOM     29 CL   UNL     1       7.351  12.758  17.103  0.00  0.00    +0.000 Cl
ENDBRANCH  22  23
ENDBRANCH  19  21
ENDBRANCH   7  19
TORSDOF 5
ENDMDL
MODEL 8
REMARK VINA RESULT:      -7.5      2.463      3.199
REMARK  Name = 
REMARK  6 active torsions:
REMARK  status: ('A' for Active; 'I' for Inactive)
REMARK    1  A    between atoms: C_1  and  O_2
REMARK    2  A    between atoms: O_2  and  C_3
REMARK    3  A    between atoms: C_6  and  N_7
REMARK    4  A    between atoms: C_13  and  C_14
REMARK    5  A    between atoms: C_14  and  C_16
REMARK    6  A    between atoms: C_17  and  C_18
REMARK                            x       y       z     vdW  Elec       q    Type
REMARK                         _______ _______ _______ _____ _____    ______ ____
ROOT
ATOM      1  N   UNL     1      -1.212  12.976  21.826  0.00  0.00    +0.000 N 
ATOM      2  C   UNL     1      -1.442  13.414  20.447  0.00  0.00    +0.000 C 
ATOM      3  O   UNL     1      -2.308  12.484  19.769  0.00  0.00    +0.000 OA
ATOM      4  C   UNL     1      -1.566  11.358  19.531  0.00  0.00    +0.000 A 
ATOM      5  C   UNL     1      -1.651  10.779  18.284  0.00  0.00    +0.000 A 
ATOM      6  C   UNL     1      -0.607   9.968  17.873  0.00  0.00    +0.000 A 
ATOM      7  C   UNL     1       0.543   9.769  18.679  0.00  0.00    +0.000 A 
ATOM      8  C   UNL     1       0.490  10.211  20.035  0.00  0.00    +0.000 A 
ATOM      9  C   UNL     1      -0.625  10.964  20.490  0.00  0.00    +0.000 A 
ATOM     10  C   UNL     1      -0.965  11.510  21.898  0.00  0.00    +0.000 C 
ENDROOT
BRANCH   1  14
ATOM     11  C   UNL     1      -2.013  15.620  25.105  0.00  0.00    +0.000 A 
ATOM     12  C   UNL     1      -0.921  15.791  24.282  0.00  0.00    +0.000 A 
ATOM     13  C   UNL     1      -0.686  14.919  23.214  0.00  0.00    +0.000 A 
ATOM     14  C   UNL     1      -1.527  13.829  22.880  0.00  0.00    +0.000 A 
ATOM     15  C   UNL     1      -2.645  13.698  23.720  0.00  0.00    +0.000 A 
ATOM     16  C   UNL     1      -2.895  14.580  24.816  0.00  0.00    +0.000 A 
BRANCH  11  18
ATOM     17  C   UNL     1      -0.874  17.122  26.580  0.00  0.00    +0.000 C 
ATOM     18  O   UNL     1      -2.075  16.516  26.133  0.00  0.00    +0.000 OA
ENDBRANCH  11  18
ENDBRANCH   1  14
BRANCH   7  19
ATOM     19  C   UNL     1       1.672   9.131  17.893  0.00  0.00    +0.000 C 
ATOM     20  O   UNL     1       2.536   9.881  17.414  0.00  0.00    +0.000 OA
BRANCH  19  21
ATOM     21  C   UNL     1       1.996   7.682  17.808  0.00  0.00    +0.000 C 
ATOM     22  C   UNL     1       2.906   6.970  18.466  0.00  0.00    +0.000 C 
BRANCH  22  23
ATOM     23  C   UNL     1       3.115   5.496  18.341  0.00  0.00    +0.000 A 
ATOM     24  C   UNL     1       3.868   4.898  17.331  0.00  0.00    +0.000 A 
ATOM     25  C   UNL     1       3.974   3.498  17.230  0.00  0.00    +0.000 A 
ATOM     26  C   UNL     1       3.316   2.669  18.120  0.00  0.00    +0.000 A 
ATOM     27  C   UNL     1       2.546   3.229  19.133  0.00  0.00    +0.000 A 
ATOM     28  C   UNL     1       2.437   4.625  19.242  0.00  0.00    +0.000 A 
ATOM     29 CL   UNL     1       1.453   5.215  20.545  0.00  0.00    +0.000 Cl
ENDBRANCH  22  23
ENDBRANCH  19  21
ENDBRANCH   7  19
TORSDOF 5
ENDMDL
MODEL 9
REMARK VINA RESULT:      -7.4      2.794      3.570
REMARK  Name = 
REMARK  6 active torsions:
REMARK  status: ('A' for Active; 'I' for Inactive)
REMARK    1  A    between atoms: C_1  and  O_2
REMARK    2  A    between atoms: O_2  and  C_3
REMARK    3  A    between atoms: C_6  and  N_7
REMARK    4  A    between atoms: C_13  and  C_14
REMARK    5  A    between atoms: C_14  and  C_16
REMARK    6  A    between atoms: C_17  and  C_18
REMARK                            x       y       z     vdW  Elec       q    Type
REMARK                         _______ _______ _______ _____ _____    ______ ____
ROOT
ATOM      1  N   UNL     1      -0.034  12.498  21.694  0.00  0.00    +0.000 N 
ATOM      2  C   UNL     1       1.123  12.703  20.820  0.00  0.00    +0.000 C 
ATOM      3  O   UNL     1       0.792  12.339  19.466  0.00  0.00    +0.000 OA
ATOM      4  C   UNL     1       0.719  10.972  19.433  0.00  0.00    +0.000 A 
ATOM      5  C   UNL     1       1.327  10.317  18.384  0.00  0.00    +0.000 A 
ATOM      6  C   UNL     1       1.672   8.989  18.562  0.00  0.00    +0.000 A 
ATOM      7  C   UNL     1       1.458   8.323  19.796  0.00  0.00    +0.000 A 
ATOM      8  C   UNL     1       0.641   8.972  20.770  0.00  0.00    +0.000 A 
ATOM      9  C   UNL     1       0.204  10.305  20.551  0.00  0.00    +0.000 A 
ATOM     10  C   UNL     1      -0.722  11.213  21.396  0.00  0.00    +0.000 C 
ENDROOT
BRANCH   1  14
ATOM     11  C   UNL     1      -1.714  15.707  23.989  0.00  0.00    +0.000 A 
ATOM     12  C   UNL     1      -2.128  14.403  24.150  0.00  0.00    +0.000 A 
ATOM     13  C   UNL     1      -1.558  13.373  23.395  0.00  0.00    +0.000 A 
ATOM     14  C   UNL     1      -0.529  13.565  22.441  0.00  0.00    +0.000 A 
ATOM     15  C   UNL     1      -0.111  14.899  22.319  0.00  0.00    +0.000 A 
ATOM     16  C   UNL     1      -0.686  15.962  23.082  0.00  0.00    +0.000 A 
BRANCH  11  18
ATOM     17  C   UNL     1      -3.819  16.573  24.730  0.00  0.00    +0.000 C 
ATOM     18  O   UNL     1      -2.402  16.603  24.755  0.00  0.00    +0.000 OA
ENDBRANCH  11  18
ENDBRANCH   1  14
BRANCH   7  19
ATOM     19  C   UNL     1       2.208   7.006  19.857  0.00  0.00    +0.000 C 
ATOM     20  O   UNL     1       1.797   6.145  20.649  0.00  0.00    +0.000 OA
BRANCH  19  21
ATOM     21  C   UNL     1       3.257   6.529  18.918  0.00  0.00    +0.000 C 
ATOM     22  C   UNL     1       3.175   5.662  17.913  0.00  0.00    +0.000 C 
BRANCH  22  23
ATOM     23  C   UNL     1       4.290   5.290  16.991  0.00  0.00    +0.000 A 
ATOM     24  C   UNL     1       4.985   6.205  16.199  0.00  0.00    +0.000 A 
ATOM     25  C   UNL     1       5.984   5.783  15.302  0.00  0.00    +0.000 A 
ATOM     26  C   UNL     1       6.295   4.443  15.162  0.00  0.00    +0.000 A 
ATOM     27  C   UNL     1       5.615   3.501  15.926  0.00  0.00    +0.000 A 
ATOM     28  C   UNL     1       4.618   3.914  16.825  0.00  0.00    +0.000 A 
ATOM     29 CL   UNL     1       3.835   2.655  17.730  0.00  0.00    +0.000 Cl
ENDBRANCH  22  23
ENDBRANCH  19  21
ENDBRANCH   7  19
TORSDOF 5
ENDMDL
