MODEL 1
REMARK VINA RESULT:      -6.9      0.000      0.000
REMARK  Name = 
REMARK  4 active torsions:
REMARK  status: ('A' for Active; 'I' for Inactive)
REMARK    1  A    between atoms: C_1  and  C_2
REMARK    2  A    between atoms: C_4  and  C_5
REMARK    3  A    between atoms: N_6  and  C_7
REMARK    4  A    between atoms: C_9  and  C_10
REMARK                            x       y       z     vdW  Elec       q    Type
REMARK                         _______ _______ _______ _____ _____    ______ ____
ROOT
ATOM      1  C   UNL     1       1.979   7.695  20.050  0.00  0.00    +0.000 C 
ATOM      2  C   UNL     1       2.517   6.672  19.076  0.00  0.00    +0.000 A 
ATOM      3  C   UNL     1       3.435   7.103  18.135  0.00  0.00    +0.000 A 
ATOM      4  C   UNL     1       4.114   6.190  17.339  0.00  0.00    +0.000 A 
ATOM      5  C   UNL     1       5.203   6.736  16.443  0.00  0.00    +0.000 C 
ATOM      6  N   UNL     1       3.842   4.850  17.415  0.00  0.00    +0.000 N 
ATOM      7  C   UNL     1       4.584   3.967  16.499  0.00  0.00    +0.000 C 
ATOM      8  C   UNL     1       2.965   4.338  18.368  0.00  0.00    +0.000 A 
ATOM      9  C   UNL     1       2.748   2.948  18.645  0.00  0.00    +0.000 A 
ATOM     10  C   UNL     1       3.480   1.759  18.076  0.00  0.00    +0.000 C 
ATOM     11  C   UNL     1       1.785   2.581  19.608  0.00  0.00    +0.000 A 
ATOM     12  F   UNL     1       1.536   1.282  19.836  0.00  0.00    +0.000 F 
ATOM     13  C   UNL     1       1.091   3.504  20.357  0.00  0.00    +0.000 A 
ATOM     14  C   UNL     1       1.337   4.849  20.156  0.00  0.00    +0.000 A 
ATOM     15  C   UNL     1       2.254   5.296  19.185  0.00  0.00    +0.000 A 
ENDROOT
TORSDOF 0
ENDMDL
MODEL 2
REMARK VINA RESULT:      -6.6      1.770      3.627
REMARK  Name = 
REMARK  4 active torsions:
REMARK  status: ('A' for Active; 'I' for Inactive)
REMARK    1  A    between atoms: C_1  and  C_2
REMARK    2  A    between atoms: C_4  and  C_5
REMARK    3  A    between atoms: N_6  and  C_7
REMARK    4  A    between atoms: C_9  and  C_10
REMARK                            x       y       z     vdW  Elec       q    Type
REMARK                         _______ _______ _______ _____ _____    ______ ____
ROOT
ATOM      1  C   UNL     1       3.465   1.529  18.403  0.00  0.00    +0.000 C 
ATOM      2  C   UNL     1       3.759   2.994  18.181  0.00  0.00    +0.000 A 
ATOM      3  C   UNL     1       4.540   3.334  17.091  0.00  0.00    +0.000 A 
ATOM      4  C   UNL     1       4.689   4.663  16.714  0.00  0.00    +0.000 A 
ATOM      5  C   UNL     1       5.436   4.932  15.427  0.00  0.00    +0.000 C 
ATOM      6  N   UNL     1       4.129   5.671  17.451  0.00  0.00    +0.000 N 
ATOM      7  C   UNL     1       4.380   7.048  16.995  0.00  0.00    +0.000 C 
ATOM      8  C   UNL     1       3.293   5.405  18.534  0.00  0.00    +0.000 A 
ATOM      9  C   UNL     1       2.523   6.374  19.256  0.00  0.00    +0.000 A 
ATOM     10  C   UNL     1       2.346   7.839  18.949  0.00  0.00    +0.000 C 
ATOM     11  C   UNL     1       1.761   5.958  20.367  0.00  0.00    +0.000 A 
ATOM     12  F   UNL     1       1.079   6.866  21.082  0.00  0.00    +0.000 F 
ATOM     13  C   UNL     1       1.661   4.639  20.750  0.00  0.00    +0.000 A 
ATOM     14  C   UNL     1       2.339   3.679  20.024  0.00  0.00    +0.000 A 
ATOM     15  C   UNL     1       3.152   4.020  18.926  0.00  0.00    +0.000 A 
ENDROOT
TORSDOF 0
ENDMDL
MODEL 3
REMARK VINA RESULT:      -6.6      1.865      3.880
REMARK  Name = 
REMARK  4 active torsions:
REMARK  status: ('A' for Active; 'I' for Inactive)
REMARK    1  A    between atoms: C_1  and  C_2
REMARK    2  A    between atoms: C_4  and  C_5
REMARK    3  A    between atoms: N_6  and  C_7
REMARK    4  A    between atoms: C_9  and  C_10
REMARK                            x       y       z     vdW  Elec       q    Type
REMARK                         _______ _______ _______ _____ _____    ______ ____
ROOT
ATOM      1  C   UNL     1       1.642   2.941  21.326  0.00  0.00    +0.000 C 
ATOM      2  C   UNL     1       1.905   4.119  20.417  0.00  0.00    +0.000 A 
ATOM      3  C   UNL     1       1.502   5.368  20.853  0.00  0.00    +0.000 A 
ATOM      4  C   UNL     1       1.881   6.514  20.165  0.00  0.00    +0.000 A 
ATOM      5  C   UNL     1       1.522   7.842  20.792  0.00  0.00    +0.000 C 
ATOM      6  N   UNL     1       2.600   6.432  19.003  0.00  0.00    +0.000 N 
ATOM      7  C   UNL     1       2.916   7.701  18.325  0.00  0.00    +0.000 C 
ATOM      8  C   UNL     1       3.080   5.214  18.527  0.00  0.00    +0.000 A 
ATOM      9  C   UNL     1       3.983   5.042  17.427  0.00  0.00    +0.000 A 
ATOM     10  C   UNL     1       4.696   6.105  16.632  0.00  0.00    +0.000 C 
ATOM     11  C   UNL     1       4.339   3.737  17.028  0.00  0.00    +0.000 A 
ATOM     12  F   UNL     1       5.141   3.563  15.966  0.00  0.00    +0.000 F 
ATOM     13  C   UNL     1       3.917   2.611  17.698  0.00  0.00    +0.000 A 
ATOM     14  C   UNL     1       3.103   2.759  18.806  0.00  0.00    +0.000 A 
ATOM     15  C   UNL     1       2.671   4.026  19.242  0.00  0.00    +0.000 A 
ENDROOT
TORSDOF 0
ENDMDL
MODEL 4
REMARK VINA RESULT:      -6.6      2.164      4.025
REMARK  Name = 
REMARK  4 active torsions:
REMARK  status: ('A' for Active; 'I' for Inactive)
REMARK    1  A    between atoms: C_1  and  C_2
REMARK    2  A    between atoms: C_4  and  C_5
REMARK    3  A    between atoms: N_6  and  C_7
REMARK    4  A    between atoms: C_9  and  C_10
REMARK                            x       y       z     vdW  Elec       q    Type
REMARK                         _______ _______ _______ _____ _____    ______ ____
ROOT
ATOM      1  C   UNL     1       1.568   7.770  20.412  0.00  0.00    +0.000 C 
ATOM      2  C   UNL     1       2.174   6.419  20.108  0.00  0.00    +0.000 A 
ATOM      3  C   UNL     1       1.732   5.337  20.848  0.00  0.00    +0.000 A 
ATOM      4  C   UNL     1       2.097   4.043  20.496  0.00  0.00    +0.000 A 
ATOM      5  C   UNL     1       1.451   2.914  21.268  0.00  0.00    +0.000 C 
ATOM      6  N   UNL     1       2.956   3.812  19.456  0.00  0.00    +0.000 N 
ATOM      7  C   UNL     1       3.316   2.409  19.189  0.00  0.00    +0.000 C 
ATOM      8  C   UNL     1       3.405   4.846  18.638  0.00  0.00    +0.000 A 
ATOM      9  C   UNL     1       4.158   4.690  17.428  0.00  0.00    +0.000 A 
ATOM     10  C   UNL     1       4.523   3.412  16.716  0.00  0.00    +0.000 C 
ATOM     11  C   UNL     1       4.588   5.839  16.733  0.00  0.00    +0.000 A 
ATOM     12  F   UNL     1       5.339   5.705  15.628  0.00  0.00    +0.000 F 
ATOM     13  C   UNL     1       4.251   7.116  17.123  0.00  0.00    +0.000 A 
ATOM     14  C   UNL     1       3.466   7.285  18.247  0.00  0.00    +0.000 A 
ATOM     15  C   UNL     1       3.031   6.190  19.018  0.00  0.00    +0.000 A 
ENDROOT
TORSDOF 0
ENDMDL
MODEL 5
REMARK VINA RESULT:      -6.5      1.172      1.172
REMARK  Name = 
REMARK  4 active torsions:
REMARK  status: ('A' for Active; 'I' for Inactive)
REMARK    1  A    between atoms: C_1  and  C_2
REMARK    2  A    between atoms: C_4  and  C_5
REMARK    3  A    between atoms: N_6  and  C_7
REMARK    4  A    between atoms: C_9  and  C_10
REMARK                            x       y       z     vdW  Elec       q    Type
REMARK                         _______ _______ _______ _____ _____    ______ ____
ROOT
ATOM      1  C   UNL     1       1.885   8.295  19.214  0.00  0.00    +0.000 C 
ATOM      2  C   UNL     1       2.600   7.074  18.684  0.00  0.00    +0.000 A 
ATOM      3  C   UNL     1       3.441   7.243  17.599  0.00  0.00    +0.000 A 
ATOM      4  C   UNL     1       4.275   6.212  17.183  0.00  0.00    +0.000 A 
ATOM      5  C   UNL     1       5.264   6.531  16.084  0.00  0.00    +0.000 C 
ATOM      6  N   UNL     1       4.235   4.985  17.788  0.00  0.00    +0.000 N 
ATOM      7  C   UNL     1       5.126   3.946  17.247  0.00  0.00    +0.000 C 
ATOM      8  C   UNL     1       3.448   4.754  18.914  0.00  0.00    +0.000 A 
ATOM      9  C   UNL     1       3.468   3.569  19.721  0.00  0.00    +0.000 A 
ATOM     10  C   UNL     1       4.398   2.387  19.617  0.00  0.00    +0.000 C 
ATOM     11  C   UNL     1       2.571   3.460  20.804  0.00  0.00    +0.000 A 
ATOM     12  F   UNL     1       2.545   2.333  21.533  0.00  0.00    +0.000 F 
ATOM     13  C   UNL     1       1.721   4.478  21.174  0.00  0.00    +0.000 A 
ATOM     14  C   UNL     1       1.737   5.656  20.453  0.00  0.00    +0.000 A 
ATOM     15  C   UNL     1       2.575   5.828  19.334  0.00  0.00    +0.000 A 
ENDROOT
TORSDOF 0
ENDMDL
MODEL 6
REMARK VINA RESULT:      -6.4      0.977      3.157
REMARK  Name = 
REMARK  4 active torsions:
REMARK  status: ('A' for Active; 'I' for Inactive)
REMARK    1  A    between atoms: C_1  and  C_2
REMARK    2  A    between atoms: C_4  and  C_5
REMARK    3  A    between atoms: N_6  and  C_7
REMARK    4  A    between atoms: C_9  and  C_10
REMARK                            x       y       z     vdW  Elec       q    Type
REMARK                         _______ _______ _______ _____ _____    ______ ____
ROOT
ATOM      1  C   UNL     1       5.288   4.123  15.698  0.00  0.00    +0.000 C 
ATOM      2  C   UNL     1       4.540   4.753  16.849  0.00  0.00    +0.000 A 
ATOM      3  C   UNL     1       4.435   6.132  16.869  0.00  0.00    +0.000 A 
ATOM      4  C   UNL     1       3.602   6.766  17.782  0.00  0.00    +0.000 A 
ATOM      5  C   UNL     1       3.436   8.262  17.636  0.00  0.00    +0.000 C 
ATOM      6  N   UNL     1       2.921   6.050  18.729  0.00  0.00    +0.000 N 
ATOM      7  C   UNL     1       2.099   6.817  19.680  0.00  0.00    +0.000 C 
ATOM      8  C   UNL     1       2.941   4.657  18.743  0.00  0.00    +0.000 A 
ATOM      9  C   UNL     1       2.131   3.816  19.575  0.00  0.00    +0.000 A 
ATOM     10  C   UNL     1       1.019   4.223  20.508  0.00  0.00    +0.000 C 
ATOM     11  C   UNL     1       2.301   2.418  19.513  0.00  0.00    +0.000 A 
ATOM     12  F   UNL     1       1.585   1.625  20.325  0.00  0.00    +0.000 F 
ATOM     13  C   UNL     1       3.165   1.811  18.629  0.00  0.00    +0.000 A 
ATOM     14  C   UNL     1       3.904   2.600  17.768  0.00  0.00    +0.000 A 
ATOM     15  C   UNL     1       3.819   4.006  17.797  0.00  0.00    +0.000 A 
ENDROOT
TORSDOF 0
ENDMDL
MODEL 7
REMARK VINA RESULT:      -6.4      2.123      4.490
REMARK  Name = 
REMARK  4 active torsions:
REMARK  status: ('A' for Active; 'I' for Inactive)
REMARK    1  A    between atoms: C_1  and  C_2
REMARK    2  A    between atoms: C_4  and  C_5
REMARK    3  A    between atoms: N_6  and  C_7
REMARK    4  A    between atoms: C_9  and  C_10
REMARK                            x       y       z     vdW  Elec       q    Type
REMARK                         _______ _______ _______ _____ _____    ______ ____
ROOT
ATOM      1  C   UNL     1       5.488   5.234  15.815  0.00  0.00    +0.000 C 
ATOM      2  C   UNL     1       4.455   4.770  16.815  0.00  0.00    +0.000 A 
ATOM      3  C   UNL     1       4.394   3.416  17.092  0.00  0.00    +0.000 A 
ATOM      4  C   UNL     1       3.609   2.942  18.136  0.00  0.00    +0.000 A 
ATOM      5  C   UNL     1       3.716   1.469  18.462  0.00  0.00    +0.000 C 
ATOM      6  N   UNL     1       2.823   3.791  18.868  0.00  0.00    +0.000 N 
ATOM      7  C   UNL     1       1.994   3.187  19.925  0.00  0.00    +0.000 C 
ATOM      8  C   UNL     1       2.866   5.170  18.677  0.00  0.00    +0.000 A 
ATOM      9  C   UNL     1       2.222   6.150  19.501  0.00  0.00    +0.000 A 
ATOM     10  C   UNL     1       1.475   5.936  20.793  0.00  0.00    +0.000 C 
ATOM     11  C   UNL     1       2.314   7.513  19.149  0.00  0.00    +0.000 A 
ATOM     12  F   UNL     1       1.671   8.434  19.884  0.00  0.00    +0.000 F 
ATOM     13  C   UNL     1       3.064   7.958  18.084  0.00  0.00    +0.000 A 
ATOM     14  C   UNL     1       3.751   7.035  17.318  0.00  0.00    +0.000 A 
ATOM     15  C   UNL     1       3.677   5.654  17.582  0.00  0.00    +0.000 A 
ENDROOT
TORSDOF 0
ENDMDL
MODEL 8
REMARK VINA RESULT:      -6.2      2.543      4.780
REMARK  Name = 
REMARK  4 active torsions:
REMARK  status: ('A' for Active; 'I' for Inactive)
REMARK    1  A    between atoms: C_1  and  C_2
REMARK    2  A    between atoms: C_4  and  C_5
REMARK    3  A    between atoms: N_6  and  C_7
REMARK    4  A    between atoms: C_9  and  C_10
REMARK                            x       y       z     vdW  Elec       q    Type
REMARK                         _______ _______ _______ _____ _____    ______ ____
ROOT
ATOM      1  C   UNL     1       5.214   5.472  16.254  0.00  0.00    +0.000 C 
ATOM      2  C   UNL     1       4.296   5.220  17.428  0.00  0.00    +0.000 A 
ATOM      3  C   UNL     1       4.418   4.012  18.090  0.00  0.00    +0.000 A 
ATOM      4  C   UNL     1       3.749   3.790  19.288  0.00  0.00    +0.000 A 
ATOM      5  C   UNL     1       4.055   2.501  20.016  0.00  0.00    +0.000 C 
ATOM      6  N   UNL     1       2.900   4.731  19.804  0.00  0.00    +0.000 N 
ATOM      7  C   UNL     1       2.205   4.385  21.055  0.00  0.00    +0.000 C 
ATOM      8  C   UNL     1       2.761   5.988  19.219  0.00  0.00    +0.000 A 
ATOM      9  C   UNL     1       2.040   7.095  19.774  0.00  0.00    +0.000 A 
ATOM     10  C   UNL     1       1.389   7.198  21.129  0.00  0.00    +0.000 C 
ATOM     11  C   UNL     1       1.945   8.293  19.035  0.00  0.00    +0.000 A 
ATOM     12  F   UNL     1       1.228   9.318  19.522  0.00  0.00    +0.000 F 
ATOM     13  C   UNL     1       2.581   8.478  17.828  0.00  0.00    +0.000 A 
ATOM     14  C   UNL     1       3.340   7.446  17.309  0.00  0.00    +0.000 A 
ATOM     15  C   UNL     1       3.451   6.206  17.967  0.00  0.00    +0.000 A 
ENDROOT
TORSDOF 0
ENDMDL
MODEL 9
REMARK VINA RESULT:      -6.2      1.609      3.415
REMARK  Name = 
REMARK  4 active torsions:
REMARK  status: ('A' for Active; 'I' for Inactive)
REMARK    1  A    between atoms: C_1  and  C_2
REMARK    2  A    between atoms: C_4  and  C_5
REMARK    3  A    between atoms: N_6  and  C_7
REMARK    4  A    between atoms: C_9  and  C_10
REMARK                            x       y       z     vdW  Elec       q    Type
REMARK                         _______ _______ _______ _____ _____    ______ ____
ROOT
ATOM      1  C   UNL     1       5.201   6.137  16.088  0.00  0.00    +0.000 C 
ATOM      2  C   UNL     1       4.356   6.328  17.326  0.00  0.00    +0.000 A 
ATOM      3  C   UNL     1       3.628   7.500  17.431  0.00  0.00    +0.000 A 
ATOM      4  C   UNL     1       2.684   7.659  18.439  0.00  0.00    +0.000 A 
ATOM      5  C   UNL     1       1.833   8.907  18.391  0.00  0.00    +0.000 C 
ATOM      6  N   UNL     1       2.502   6.693  19.392  0.00  0.00    +0.000 N 
ATOM      7  C   UNL     1       1.510   6.973  20.443  0.00  0.00    +0.000 C 
ATOM      8  C   UNL     1       3.165   5.469  19.325  0.00  0.00    +0.000 A 
ATOM      9  C   UNL     1       2.916   4.335  20.165  0.00  0.00    +0.000 A 
ATOM     10  C   UNL     1       1.833   4.162  21.200  0.00  0.00    +0.000 C 
ATOM     11  C   UNL     1       3.707   3.178  20.011  0.00  0.00    +0.000 A 
ATOM     12  F   UNL     1       3.517   2.130  20.828  0.00  0.00    +0.000 F 
ATOM     13  C   UNL     1       4.668   3.057  19.032  0.00  0.00    +0.000 A 
ATOM     14  C   UNL     1       4.875   4.113  18.166  0.00  0.00    +0.000 A 
ATOM     15  C   UNL     1       4.153   5.316  18.280  0.00  0.00    +0.000 A 
ENDROOT
TORSDOF 0
ENDMDL
