MODEL 1
REMARK VINA RESULT:      -8.1      0.000      0.000
REMARK  Name = 
REMARK  8 active torsions:
REMARK  status: ('A' for Active; 'I' for Inactive)
REMARK    1  A    between atoms: C_1  and  C_2
REMARK    2  A    between atoms: C_2  and  C_3
REMARK    3  A    between atoms: C_3  and  C_4
REMARK    4  A    between atoms: C_4  and  N_5
REMARK    5  A    between atoms: N_8  and  C_9
REMARK    6  A    between atoms: C_12  and  S_13
REMARK    7  A    between atoms: S_13  and  O_16
REMARK    8  A    between atoms: O_16  and  C_17
REMARK                            x       y       z     vdW  Elec       q    Type
REMARK                         _______ _______ _______ _____ _____    ______ ____
ROOT
ATOM      1  C   UNL     1       2.906   6.959  18.367  0.00  0.00    +0.000 A 
ATOM      2  C   UNL     1       2.468   6.871  19.695  0.00  0.00    +0.000 A 
ATOM      3  C   UNL     1       1.691   7.878  20.272  0.00  0.00    +0.000 A 
ATOM      4  C   UNL     1       1.345   8.998  19.518  0.00  0.00    +0.000 A 
ATOM      5  C   UNL     1       1.798   9.131  18.206  0.00  0.00    +0.000 A 
ATOM      6  C   UNL     1       2.574   8.114  17.638  0.00  0.00    +0.000 A 
ENDROOT
BRANCH   1  10
ATOM      7  N   UNL     1       5.353   4.801  16.760  0.00  0.00    +0.000 N 
ATOM      8  C   UNL     1       4.251   3.879  16.841  0.00  0.00    +0.000 C 
ATOM      9  C   UNL     1       3.364   4.521  17.891  0.00  0.00    +0.000 C 
ATOM     10  N   UNL     1       3.682   5.930  17.784  0.00  0.00    +0.000 N 
ATOM     11  C   UNL     1       4.969   6.073  17.203  0.00  0.00    +0.000 C 
ATOM     12  O   UNL     1       5.662   7.074  17.111  0.00  0.00    +0.000 OA
BRANCH   7  13
ATOM     13  C   UNL     1       6.641   4.481  16.180  0.00  0.00    +0.000 C 
BRANCH  13  14
ATOM     14  C   UNL     1       6.748   4.815  14.695  0.00  0.00    +0.000 C 
BRANCH  14  16
ATOM     15  C   UNL     1       6.604   3.746  12.423  0.00  0.00    +0.000 C 
ATOM     16  C   UNL     1       5.996   3.818  13.815  0.00  0.00    +0.000 C 
ENDBRANCH  14  16
ENDBRANCH  13  14
ENDBRANCH   7  13
ENDBRANCH   1  10
BRANCH   4  17
ATOM     17  S   UNL     1       0.453  10.319  20.309  0.00  0.00    +0.000 S 
ATOM     18  O   UNL     1      -0.693   9.701  20.948  0.00  0.00    +0.000 OA
ATOM     19  O   UNL     1       1.415  11.074  21.087  0.00  0.00    +0.000 OA
BRANCH  17  20
ATOM     20  O   UNL     1      -0.066  11.257  19.068  0.00  0.00    +0.000 OA
BRANCH  20  21
ATOM     21  C   UNL     1      -1.358  11.151  18.607  0.00  0.00    +0.000 A 
ATOM     22  C   UNL     1      -1.583  10.237  17.576  0.00  0.00    +0.000 A 
ATOM     23  C   UNL     1      -2.867  10.094  17.047  0.00  0.00    +0.000 A 
ATOM     24  F   UNL     1      -3.071   9.238  16.037  0.00  0.00    +0.000 F 
ATOM     25  C   UNL     1      -3.937  10.826  17.541  0.00  0.00    +0.000 A 
ATOM     26  C   UNL     1      -3.707  11.705  18.589  0.00  0.00    +0.000 A 
ATOM     27  F   UNL     1      -4.729  12.408  19.093  0.00  0.00    +0.000 F 
ATOM     28  C   UNL     1      -2.435  11.871  19.128  0.00  0.00    +0.000 A 
ENDBRANCH  20  21
ENDBRANCH  17  20
ENDBRANCH   4  17
TORSDOF 7
ENDMDL
MODEL 2
REMARK VINA RESULT:      -8.0      1.573      2.365
REMARK  Name = 
REMARK  8 active torsions:
REMARK  status: ('A' for Active; 'I' for Inactive)
REMARK    1  A    between atoms: C_1  and  C_2
REMARK    2  A    between atoms: C_2  and  C_3
REMARK    3  A    between atoms: C_3  and  C_4
REMARK    4  A    between atoms: C_4  and  N_5
REMARK    5  A    between atoms: N_8  and  C_9
REMARK    6  A    between atoms: C_12  and  S_13
REMARK    7  A    between atoms: S_13  and  O_16
REMARK    8  A    between atoms: O_16  and  C_17
REMARK                            x       y       z     vdW  Elec       q    Type
REMARK                         _______ _______ _______ _____ _____    ______ ____
ROOT
ATOM      1  C   UNL     1       2.611   7.377  18.805  0.00  0.00    +0.000 A 
ATOM      2  C   UNL     1       2.322   8.276  17.769  0.00  0.00    +0.000 A 
ATOM      3  C   UNL     1       1.503   9.388  17.981  0.00  0.00    +0.000 A 
ATOM      4  C   UNL     1       0.957   9.611  19.243  0.00  0.00    +0.000 A 
ATOM      5  C   UNL     1       1.196   8.713  20.283  0.00  0.00    +0.000 A 
ATOM      6  C   UNL     1       2.020   7.604  20.060  0.00  0.00    +0.000 A 
ENDROOT
BRANCH   1  10
ATOM      7  N   UNL     1       4.955   4.831  17.687  0.00  0.00    +0.000 N 
ATOM      8  C   UNL     1       4.348   4.121  18.783  0.00  0.00    +0.000 C 
ATOM      9  C   UNL     1       3.709   5.240  19.583  0.00  0.00    +0.000 C 
ATOM     10  N   UNL     1       3.451   6.260  18.588  0.00  0.00    +0.000 N 
ATOM     11  C   UNL     1       4.322   6.064  17.485  0.00  0.00    +0.000 C 
ATOM     12  O   UNL     1       4.540   6.804  16.539  0.00  0.00    +0.000 OA
BRANCH   7  13
ATOM     13  C   UNL     1       5.991   4.282  16.837  0.00  0.00    +0.000 C 
BRANCH  13  14
ATOM     14  C   UNL     1       7.371   4.885  17.079  0.00  0.00    +0.000 C 
BRANCH  14  16
ATOM     15  C   UNL     1       7.936   6.934  18.422  0.00  0.00    +0.000 C 
ATOM     16  C   UNL     1       7.514   5.476  18.481  0.00  0.00    +0.000 C 
ENDBRANCH  14  16
ENDBRANCH  13  14
ENDBRANCH   7  13
ENDBRANCH   1  10
BRANCH   4  17
ATOM     17  S   UNL     1      -0.175  10.968  19.457  0.00  0.00    +0.000 S 
ATOM     18  O   UNL     1      -0.015  11.408  20.830  0.00  0.00    +0.000 OA
ATOM     19  O   UNL     1       0.048  11.885  18.357  0.00  0.00    +0.000 OA
BRANCH  17  20
ATOM     20  O   UNL     1      -1.658  10.291  19.280  0.00  0.00    +0.000 OA
BRANCH  20  21
ATOM     21  C   UNL     1      -2.413  10.550  18.160  0.00  0.00    +0.000 A 
ATOM     22  C   UNL     1      -2.061   9.867  16.993  0.00  0.00    +0.000 A 
ATOM     23  C   UNL     1      -2.773  10.099  15.816  0.00  0.00    +0.000 A 
ATOM     24  F   UNL     1      -2.412   9.464  14.692  0.00  0.00    +0.000 F 
ATOM     25  C   UNL     1      -3.845  10.979  15.781  0.00  0.00    +0.000 A 
ATOM     26  C   UNL     1      -4.208  11.624  16.954  0.00  0.00    +0.000 A 
ATOM     27  F   UNL     1      -5.250  12.464  16.948  0.00  0.00    +0.000 F 
ATOM     28  C   UNL     1      -3.508  11.417  18.140  0.00  0.00    +0.000 A 
ENDBRANCH  20  21
ENDBRANCH  17  20
ENDBRANCH   4  17
TORSDOF 7
ENDMDL
MODEL 3
REMARK VINA RESULT:      -7.9      2.251      3.585
REMARK  Name = 
REMARK  8 active torsions:
REMARK  status: ('A' for Active; 'I' for Inactive)
REMARK    1  A    between atoms: C_1  and  C_2
REMARK    2  A    between atoms: C_2  and  C_3
REMARK    3  A    between atoms: C_3  and  C_4
REMARK    4  A    between atoms: C_4  and  N_5
REMARK    5  A    between atoms: N_8  and  C_9
REMARK    6  A    between atoms: C_12  and  S_13
REMARK    7  A    between atoms: S_13  and  O_16
REMARK    8  A    between atoms: O_16  and  C_17
REMARK                            x       y       z     vdW  Elec       q    Type
REMARK                         _______ _______ _______ _____ _____    ______ ____
ROOT
ATOM      1  C   UNL     1       2.435   7.478  18.800  0.00  0.00    +0.000 A 
ATOM      2  C   UNL     1       2.304   8.439  17.788  0.00  0.00    +0.000 A 
ATOM      3  C   UNL     1       1.618   9.635  18.008  0.00  0.00    +0.000 A 
ATOM      4  C   UNL     1       1.047   9.884  19.254  0.00  0.00    +0.000 A 
ATOM      5  C   UNL     1       1.129   8.931  20.269  0.00  0.00    +0.000 A 
ATOM      6  C   UNL     1       1.821   7.736  20.038  0.00  0.00    +0.000 A 
ENDROOT
BRANCH   1  10
ATOM      7  N   UNL     1       3.656   4.143  18.020  0.00  0.00    +0.000 N 
ATOM      8  C   UNL     1       4.827   4.670  18.670  0.00  0.00    +0.000 C 
ATOM      9  C   UNL     1       4.586   6.167  18.613  0.00  0.00    +0.000 C 
ATOM     10  N   UNL     1       3.142   6.274  18.577  0.00  0.00    +0.000 N 
ATOM     11  C   UNL     1       2.599   5.059  18.084  0.00  0.00    +0.000 C 
ATOM     12  O   UNL     1       1.453   4.815  17.739  0.00  0.00    +0.000 OA
BRANCH   7  13
ATOM     13  C   UNL     1       3.556   2.799  17.490  0.00  0.00    +0.000 C 
BRANCH  13  14
ATOM     14  C   UNL     1       3.266   1.738  18.548  0.00  0.00    +0.000 C 
BRANCH  14  16
ATOM     15  C   UNL     1       1.761   2.396  20.452  0.00  0.00    +0.000 C 
ATOM     16  C   UNL     1       1.826   1.798  19.056  0.00  0.00    +0.000 C 
ENDBRANCH  14  16
ENDBRANCH  13  14
ENDBRANCH   7  13
ENDBRANCH   1  10
BRANCH   4  17
ATOM     17  S   UNL     1       0.081  11.363  19.474  0.00  0.00    +0.000 S 
ATOM     18  O   UNL     1       0.436  11.881  20.780  0.00  0.00    +0.000 OA
ATOM     19  O   UNL     1       0.265  12.170  18.283  0.00  0.00    +0.000 OA
BRANCH  17  20
ATOM     20  O   UNL     1      -1.470  10.831  19.510  0.00  0.00    +0.000 OA
BRANCH  20  21
ATOM     21  C   UNL     1      -2.222  10.796  18.359  0.00  0.00    +0.000 A 
ATOM     22  C   UNL     1      -3.333  11.639  18.309  0.00  0.00    +0.000 A 
ATOM     23  C   UNL     1      -4.151  11.639  17.178  0.00  0.00    +0.000 A 
ATOM     24  F   UNL     1      -5.234  12.427  17.148  0.00  0.00    +0.000 F 
ATOM     25  C   UNL     1      -3.871  10.832  16.085  0.00  0.00    +0.000 A 
ATOM     26  C   UNL     1      -2.743  10.025  16.131  0.00  0.00    +0.000 A 
ATOM     27  F   UNL     1      -2.444   9.252  15.080  0.00  0.00    +0.000 F 
ATOM     28  C   UNL     1      -1.917  10.002  17.251  0.00  0.00    +0.000 A 
ENDBRANCH  20  21
ENDBRANCH  17  20
ENDBRANCH   4  17
TORSDOF 7
ENDMDL
MODEL 4
REMARK VINA RESULT:      -7.9      0.437      1.048
REMARK  Name = 
REMARK  8 active torsions:
REMARK  status: ('A' for Active; 'I' for Inactive)
REMARK    1  A    between atoms: C_1  and  C_2
REMARK    2  A    between atoms: C_2  and  C_3
REMARK    3  A    between atoms: C_3  and  C_4
REMARK    4  A    between atoms: C_4  and  N_5
REMARK    5  A    between atoms: N_8  and  C_9
REMARK    6  A    between atoms: C_12  and  S_13
REMARK    7  A    between atoms: S_13  and  O_16
REMARK    8  A    between atoms: O_16  and  C_17
REMARK                            x       y       z     vdW  Elec       q    Type
REMARK                         _______ _______ _______ _____ _____    ______ ____
ROOT
ATOM      1  C   UNL     1       2.988   6.952  18.353  0.00  0.00    +0.000 A 
ATOM      2  C   UNL     1       2.658   8.122  17.657  0.00  0.00    +0.000 A 
ATOM      3  C   UNL     1       1.897   9.131  18.252  0.00  0.00    +0.000 A 
ATOM      4  C   UNL     1       1.450   8.975  19.562  0.00  0.00    +0.000 A 
ATOM      5  C   UNL     1       1.730   7.805  20.267  0.00  0.00    +0.000 A 
ATOM      6  C   UNL     1       2.496   6.801  19.661  0.00  0.00    +0.000 A 
ENDROOT
BRANCH   1  10
ATOM      7  N   UNL     1       5.255   4.851  16.437  0.00  0.00    +0.000 N 
ATOM      8  C   UNL     1       4.500   3.824  17.107  0.00  0.00    +0.000 C 
ATOM      9  C   UNL     1       3.862   4.585  18.254  0.00  0.00    +0.000 C 
ATOM     10  N   UNL     1       3.769   5.939  17.750  0.00  0.00    +0.000 N 
ATOM     11  C   UNL     1       4.728   6.118  16.719  0.00  0.00    +0.000 C 
ATOM     12  O   UNL     1       5.084   7.150  16.174  0.00  0.00    +0.000 OA
BRANCH   7  13
ATOM     13  C   UNL     1       6.330   4.591  15.502  0.00  0.00    +0.000 C 
BRANCH  13  14
ATOM     14  C   UNL     1       5.988   3.544  14.446  0.00  0.00    +0.000 C 
BRANCH  14  16
ATOM     15  C   UNL     1       5.807   3.092  11.979  0.00  0.00    +0.000 C 
ATOM     16  C   UNL     1       6.471   3.941  13.051  0.00  0.00    +0.000 C 
ENDBRANCH  14  16
ENDBRANCH  13  14
ENDBRANCH   7  13
ENDBRANCH   1  10
BRANCH   4  17
ATOM     17  S   UNL     1       0.387  10.222  20.257  0.00  0.00    +0.000 S 
ATOM     18  O   UNL     1      -0.765   9.516  20.783  0.00  0.00    +0.000 OA
ATOM     19  O   UNL     1       1.208  11.045  21.124  0.00  0.00    +0.000 OA
BRANCH  17  20
ATOM     20  O   UNL     1      -0.077  11.122  18.968  0.00  0.00    +0.000 OA
BRANCH  20  21
ATOM     21  C   UNL     1      -1.364  11.041  18.488  0.00  0.00    +0.000 A 
ATOM     22  C   UNL     1      -1.595  10.120  17.465  0.00  0.00    +0.000 A 
ATOM     23  C   UNL     1      -2.874  10.001  16.918  0.00  0.00    +0.000 A 
ATOM     24  F   UNL     1      -3.083   9.137  15.915  0.00  0.00    +0.000 F 
ATOM     25  C   UNL     1      -3.933  10.764  17.386  0.00  0.00    +0.000 A 
ATOM     26  C   UNL     1      -3.699  11.650  18.427  0.00  0.00    +0.000 A 
ATOM     27  F   UNL     1      -4.711  12.384  18.907  0.00  0.00    +0.000 F 
ATOM     28  C   UNL     1      -2.432  11.793  18.984  0.00  0.00    +0.000 A 
ENDBRANCH  20  21
ENDBRANCH  17  20
ENDBRANCH   4  17
TORSDOF 7
ENDMDL
MODEL 5
REMARK VINA RESULT:      -7.8      1.153      1.657
REMARK  Name = 
REMARK  8 active torsions:
REMARK  status: ('A' for Active; 'I' for Inactive)
REMARK    1  A    between atoms: C_1  and  C_2
REMARK    2  A    between atoms: C_2  and  C_3
REMARK    3  A    between atoms: C_3  and  C_4
REMARK    4  A    between atoms: C_4  and  N_5
REMARK    5  A    between atoms: N_8  and  C_9
REMARK    6  A    between atoms: C_12  and  S_13
REMARK    7  A    between atoms: S_13  and  O_16
REMARK    8  A    between atoms: O_16  and  C_17
REMARK                            x       y       z     vdW  Elec       q    Type
REMARK                         _______ _______ _______ _____ _____    ______ ____
ROOT
ATOM      1  C   UNL     1       2.836   7.406  18.515  0.00  0.00    +0.000 A 
ATOM      2  C   UNL     1       2.452   8.295  17.502  0.00  0.00    +0.000 A 
ATOM      3  C   UNL     1       1.552   9.334  17.749  0.00  0.00    +0.000 A 
ATOM      4  C   UNL     1       1.018   9.493  19.027  0.00  0.00    +0.000 A 
ATOM      5  C   UNL     1       1.352   8.602  20.046  0.00  0.00    +0.000 A 
ATOM      6  C   UNL     1       2.257   7.565  19.786  0.00  0.00    +0.000 A 
ENDROOT
BRANCH   1  10
ATOM      7  N   UNL     1       5.396   5.106  17.341  0.00  0.00    +0.000 N 
ATOM      8  C   UNL     1       4.780   4.274  18.341  0.00  0.00    +0.000 C 
ATOM      9  C   UNL     1       4.027   5.284  19.187  0.00  0.00    +0.000 C 
ATOM     10  N   UNL     1       3.757   6.364  18.261  0.00  0.00    +0.000 N 
ATOM     11  C   UNL     1       4.696   6.311  17.199  0.00  0.00    +0.000 C 
ATOM     12  O   UNL     1       4.915   7.137  16.327  0.00  0.00    +0.000 OA
BRANCH   7  13
ATOM     13  C   UNL     1       6.509   4.692  16.512  0.00  0.00    +0.000 C 
BRANCH  13  14
ATOM     14  C   UNL     1       6.150   3.620  15.488  0.00  0.00    +0.000 C 
BRANCH  14  16
ATOM     15  C   UNL     1       6.458   3.899  13.008  0.00  0.00    +0.000 C 
ATOM     16  C   UNL     1       5.570   4.209  14.203  0.00  0.00    +0.000 C 
ENDBRANCH  14  16
ENDBRANCH  13  14
ENDBRANCH   7  13
ENDBRANCH   1  10
BRANCH   4  17
ATOM     17  S   UNL     1      -0.213  10.752  19.288  0.00  0.00    +0.000 S 
ATOM     18  O   UNL     1      -0.142  11.093  20.696  0.00  0.00    +0.000 OA
ATOM     19  O   UNL     1      -0.007  11.764  18.271  0.00  0.00    +0.000 OA
BRANCH  17  20
ATOM     20  O   UNL     1      -1.636   9.994  18.991  0.00  0.00    +0.000 OA
BRANCH  20  21
ATOM     21  C   UNL     1      -2.434  10.395  17.945  0.00  0.00    +0.000 A 
ATOM     22  C   UNL     1      -2.126   9.878  16.685  0.00  0.00    +0.000 A 
ATOM     23  C   UNL     1      -2.883  10.260  15.577  0.00  0.00    +0.000 A 
ATOM     24  F   UNL     1      -2.563   9.785  14.365  0.00  0.00    +0.000 F 
ATOM     25  C   UNL     1      -3.957  11.129  15.701  0.00  0.00    +0.000 A 
ATOM     26  C   UNL     1      -4.276  11.608  16.963  0.00  0.00    +0.000 A 
ATOM     27  F   UNL     1      -5.320  12.433  17.108  0.00  0.00    +0.000 F 
ATOM     28  C   UNL     1      -3.532  11.249  18.082  0.00  0.00    +0.000 A 
ENDBRANCH  20  21
ENDBRANCH  17  20
ENDBRANCH   4  17
TORSDOF 7
ENDMDL
MODEL 6
REMARK VINA RESULT:      -7.7      2.143      3.195
REMARK  Name = 
REMARK  8 active torsions:
REMARK  status: ('A' for Active; 'I' for Inactive)
REMARK    1  A    between atoms: C_1  and  C_2
REMARK    2  A    between atoms: C_2  and  C_3
REMARK    3  A    between atoms: C_3  and  C_4
REMARK    4  A    between atoms: C_4  and  N_5
REMARK    5  A    between atoms: N_8  and  C_9
REMARK    6  A    between atoms: C_12  and  S_13
REMARK    7  A    between atoms: S_13  and  O_16
REMARK    8  A    between atoms: O_16  and  C_17
REMARK                            x       y       z     vdW  Elec       q    Type
REMARK                         _______ _______ _______ _____ _____    ______ ____
ROOT
ATOM      1  C   UNL     1       2.435   7.669  18.616  0.00  0.00    +0.000 A 
ATOM      2  C   UNL     1       2.209   8.660  17.651  0.00  0.00    +0.000 A 
ATOM      3  C   UNL     1       1.474   9.810  17.949  0.00  0.00    +0.000 A 
ATOM      4  C   UNL     1       0.950   9.980  19.229  0.00  0.00    +0.000 A 
ATOM      5  C   UNL     1       1.127   8.994  20.200  0.00  0.00    +0.000 A 
ATOM      6  C   UNL     1       1.867   7.847  19.890  0.00  0.00    +0.000 A 
ENDROOT
BRANCH   1  10
ATOM      7  N   UNL     1       3.777   4.391  17.795  0.00  0.00    +0.000 N 
ATOM      8  C   UNL     1       5.007   5.071  18.110  0.00  0.00    +0.000 C 
ATOM      9  C   UNL     1       4.606   6.531  18.011  0.00  0.00    +0.000 C 
ATOM     10  N   UNL     1       3.190   6.513  18.313  0.00  0.00    +0.000 N 
ATOM     11  C   UNL     1       2.675   5.217  18.048  0.00  0.00    +0.000 C 
ATOM     12  O   UNL     1       1.512   4.849  18.003  0.00  0.00    +0.000 OA
BRANCH   7  13
ATOM     13  C   UNL     1       3.696   3.001  17.396  0.00  0.00    +0.000 C 
BRANCH  13  14
ATOM     14  C   UNL     1       3.575   2.029  18.566  0.00  0.00    +0.000 C 
BRANCH  14  16
ATOM     15  C   UNL     1       1.853   2.349  20.370  0.00  0.00    +0.000 C 
ATOM     16  C   UNL     1       2.124   1.792  18.983  0.00  0.00    +0.000 C 
ENDBRANCH  14  16
ENDBRANCH  13  14
ENDBRANCH   7  13
ENDBRANCH   1  10
BRANCH   4  17
ATOM     17  S   UNL     1      -0.078  11.397  19.551  0.00  0.00    +0.000 S 
ATOM     18  O   UNL     1       0.273  11.851  20.882  0.00  0.00    +0.000 OA
ATOM     19  O   UNL     1       0.051  12.283  18.410  0.00  0.00    +0.000 OA
BRANCH  17  20
ATOM     20  O   UNL     1      -1.603  10.794  19.574  0.00  0.00    +0.000 OA
BRANCH  20  21
ATOM     21  C   UNL     1      -2.395  10.860  18.452  0.00  0.00    +0.000 A 
ATOM     22  C   UNL     1      -2.049  10.026  17.387  0.00  0.00    +0.000 A 
ATOM     23  C   UNL     1      -2.799  10.059  16.211  0.00  0.00    +0.000 A 
ATOM     24  F   UNL     1      -2.443   9.279  15.181  0.00  0.00    +0.000 F 
ATOM     25  C   UNL     1      -3.904  10.888  16.082  0.00  0.00    +0.000 A 
ATOM     26  C   UNL     1      -4.260  11.686  17.159  0.00  0.00    +0.000 A 
ATOM     27  F   UNL     1      -5.333  12.480  17.063  0.00  0.00    +0.000 F 
ATOM     28  C   UNL     1      -3.523  11.678  18.339  0.00  0.00    +0.000 A 
ENDBRANCH  20  21
ENDBRANCH  17  20
ENDBRANCH   4  17
TORSDOF 7
ENDMDL
MODEL 7
REMARK VINA RESULT:      -7.7      2.492      3.326
REMARK  Name = 
REMARK  8 active torsions:
REMARK  status: ('A' for Active; 'I' for Inactive)
REMARK    1  A    between atoms: C_1  and  C_2
REMARK    2  A    between atoms: C_2  and  C_3
REMARK    3  A    between atoms: C_3  and  C_4
REMARK    4  A    between atoms: C_4  and  N_5
REMARK    5  A    between atoms: N_8  and  C_9
REMARK    6  A    between atoms: C_12  and  S_13
REMARK    7  A    between atoms: S_13  and  O_16
REMARK    8  A    between atoms: O_16  and  C_17
REMARK                            x       y       z     vdW  Elec       q    Type
REMARK                         _______ _______ _______ _____ _____    ______ ____
ROOT
ATOM      1  C   UNL     1       2.370   7.451  19.352  0.00  0.00    +0.000 A 
ATOM      2  C   UNL     1       1.725   7.843  20.532  0.00  0.00    +0.000 A 
ATOM      3  C   UNL     1       0.918   8.982  20.574  0.00  0.00    +0.000 A 
ATOM      4  C   UNL     1       0.751   9.751  19.424  0.00  0.00    +0.000 A 
ATOM      5  C   UNL     1       1.411   9.407  18.245  0.00  0.00    +0.000 A 
ATOM      6  C   UNL     1       2.215   8.261  18.214  0.00  0.00    +0.000 A 
ENDROOT
BRANCH   1  10
ATOM      7  N   UNL     1       3.961   4.192  19.635  0.00  0.00    +0.000 N 
ATOM      8  C   UNL     1       5.029   4.915  18.995  0.00  0.00    +0.000 C 
ATOM      9  C   UNL     1       4.309   6.124  18.425  0.00  0.00    +0.000 C 
ATOM     10  N   UNL     1       3.176   6.289  19.312  0.00  0.00    +0.000 N 
ATOM     11  C   UNL     1       2.899   5.051  19.948  0.00  0.00    +0.000 C 
ATOM     12  O   UNL     1       1.930   4.733  20.618  0.00  0.00    +0.000 OA
BRANCH   7  13
ATOM     13  C   UNL     1       4.036   2.797  20.015  0.00  0.00    +0.000 C 
BRANCH  13  14
ATOM     14  C   UNL     1       3.726   1.830  18.875  0.00  0.00    +0.000 C 
BRANCH  14  16
ATOM     15  C   UNL     1       2.523   2.981  16.990  0.00  0.00    +0.000 C 
ATOM     16  C   UNL     1       2.371   2.108  18.225  0.00  0.00    +0.000 C 
ENDBRANCH  14  16
ENDBRANCH  13  14
ENDBRANCH   7  13
ENDBRANCH   1  10
BRANCH   4  17
ATOM     17  S   UNL     1      -0.188  11.260  19.532  0.00  0.00    +0.000 S 
ATOM     18  O   UNL     1       0.083  11.804  20.848  0.00  0.00    +0.000 OA
ATOM     19  O   UNL     1       0.107  12.029  18.339  0.00  0.00    +0.000 OA
BRANCH  17  20
ATOM     20  O   UNL     1      -1.751  10.769  19.465  0.00  0.00    +0.000 OA
BRANCH  20  21
ATOM     21  C   UNL     1      -2.426  10.757  18.266  0.00  0.00    +0.000 A 
ATOM     22  C   UNL     1      -3.509  11.631  18.147  0.00  0.00    +0.000 A 
ATOM     23  C   UNL     1      -4.250  11.655  16.965  0.00  0.00    +0.000 A 
ATOM     24  F   UNL     1      -5.307  12.473  16.867  0.00  0.00    +0.000 F 
ATOM     25  C   UNL     1      -3.921  10.843  15.889  0.00  0.00    +0.000 A 
ATOM     26  C   UNL     1      -2.822  10.005  16.007  0.00  0.00    +0.000 A 
ATOM     27  F   UNL     1      -2.476   9.226  14.975  0.00  0.00    +0.000 F 
ATOM     28  C   UNL     1      -2.072   9.957  17.178  0.00  0.00    +0.000 A 
ENDBRANCH  20  21
ENDBRANCH  17  20
ENDBRANCH   4  17
TORSDOF 7
ENDMDL
MODEL 8
REMARK VINA RESULT:      -7.7      4.506      9.411
REMARK  Name = 
REMARK  8 active torsions:
REMARK  status: ('A' for Active; 'I' for Inactive)
REMARK    1  A    between atoms: C_1  and  C_2
REMARK    2  A    between atoms: C_2  and  C_3
REMARK    3  A    between atoms: C_3  and  C_4
REMARK    4  A    between atoms: C_4  and  N_5
REMARK    5  A    between atoms: N_8  and  C_9
REMARK    6  A    between atoms: C_12  and  S_13
REMARK    7  A    between atoms: S_13  and  O_16
REMARK    8  A    between atoms: O_16  and  C_17
REMARK                            x       y       z     vdW  Elec       q    Type
REMARK                         _______ _______ _______ _____ _____    ______ ____
ROOT
ATOM      1  C   UNL     1       1.919   7.802  19.407  0.00  0.00    +0.000 A 
ATOM      2  C   UNL     1       1.896   6.921  20.497  0.00  0.00    +0.000 A 
ATOM      3  C   UNL     1       2.443   5.639  20.407  0.00  0.00    +0.000 A 
ATOM      4  C   UNL     1       3.022   5.220  19.211  0.00  0.00    +0.000 A 
ATOM      5  C   UNL     1       3.026   6.060  18.098  0.00  0.00    +0.000 A 
ATOM      6  C   UNL     1       2.476   7.343  18.201  0.00  0.00    +0.000 A 
ENDROOT
BRANCH   1  10
ATOM      7  N   UNL     1       0.480  11.013  20.325  0.00  0.00    +0.000 N 
ATOM      8  C   UNL     1       0.404  11.128  18.892  0.00  0.00    +0.000 C 
ATOM      9  C   UNL     1       1.385  10.067  18.427  0.00  0.00    +0.000 C 
ATOM     10  N   UNL     1       1.375   9.103  19.508  0.00  0.00    +0.000 N 
ATOM     11  C   UNL     1       0.937   9.742  20.697  0.00  0.00    +0.000 C 
ATOM     12  O   UNL     1       0.962   9.327  21.845  0.00  0.00    +0.000 OA
BRANCH   7  13
ATOM     13  C   UNL     1       0.022  12.031  21.248  0.00  0.00    +0.000 C 
BRANCH  13  14
ATOM     14  C   UNL     1      -1.469  11.955  21.559  0.00  0.00    +0.000 C 
BRANCH  14  16
ATOM     15  C   UNL     1      -3.098  12.247  23.453  0.00  0.00    +0.000 C 
ATOM     16  C   UNL     1      -1.745  11.692  23.039  0.00  0.00    +0.000 C 
ENDBRANCH  14  16
ENDBRANCH  13  14
ENDBRANCH   7  13
ENDBRANCH   1  10
BRANCH   4  17
ATOM     17  S   UNL     1       3.608   3.544  19.086  0.00  0.00    +0.000 S 
ATOM     18  O   UNL     1       3.091   2.852  20.251  0.00  0.00    +0.000 OA
ATOM     19  O   UNL     1       3.289   3.081  17.750  0.00  0.00    +0.000 OA
BRANCH  17  20
ATOM     20  O   UNL     1       5.237   3.674  19.218  0.00  0.00    +0.000 OA
BRANCH  20  21
ATOM     21  C   UNL     1       5.938   4.523  18.393  0.00  0.00    +0.000 A 
ATOM     22  C   UNL     1       6.770   5.457  19.013  0.00  0.00    +0.000 A 
ATOM     23  C   UNL     1       7.494   6.361  18.235  0.00  0.00    +0.000 A 
ATOM     24  F   UNL     1       8.267   7.276  18.836  0.00  0.00    +0.000 F 
ATOM     25  C   UNL     1       7.424   6.340  16.850  0.00  0.00    +0.000 A 
ATOM     26  C   UNL     1       6.622   5.385  16.244  0.00  0.00    +0.000 A 
ATOM     27  F   UNL     1       6.553   5.334  14.908  0.00  0.00    +0.000 F 
ATOM     28  C   UNL     1       5.884   4.477  16.998  0.00  0.00    +0.000 A 
ENDBRANCH  20  21
ENDBRANCH  17  20
ENDBRANCH   4  17
TORSDOF 7
ENDMDL
MODEL 9
REMARK VINA RESULT:      -7.6      4.634     10.119
REMARK  Name = 
REMARK  8 active torsions:
REMARK  status: ('A' for Active; 'I' for Inactive)
REMARK    1  A    between atoms: C_1  and  C_2
REMARK    2  A    between atoms: C_2  and  C_3
REMARK    3  A    between atoms: C_3  and  C_4
REMARK    4  A    between atoms: C_4  and  N_5
REMARK    5  A    between atoms: N_8  and  C_9
REMARK    6  A    between atoms: C_12  and  S_13
REMARK    7  A    between atoms: S_13  and  O_16
REMARK    8  A    between atoms: O_16  and  C_17
REMARK                            x       y       z     vdW  Elec       q    Type
REMARK                         _______ _______ _______ _____ _____    ______ ____
ROOT
ATOM      1  C   UNL     1       0.570   9.619  20.232  0.00  0.00    +0.000 A 
ATOM      2  C   UNL     1       0.876   8.530  21.059  0.00  0.00    +0.000 A 
ATOM      3  C   UNL     1       1.686   7.483  20.612  0.00  0.00    +0.000 A 
ATOM      4  C   UNL     1       2.199   7.514  19.317  0.00  0.00    +0.000 A 
ATOM      5  C   UNL     1       1.881   8.565  18.458  0.00  0.00    +0.000 A 
ATOM      6  C   UNL     1       1.070   9.610  18.918  0.00  0.00    +0.000 A 
ENDROOT
BRANCH   1  10
ATOM      7  N   UNL     1      -1.345  12.131  22.033  0.00  0.00    +0.000 N 
ATOM      8  C   UNL     1      -1.814  12.398  20.698  0.00  0.00    +0.000 C 
ATOM      9  C   UNL     1      -0.751  11.735  19.841  0.00  0.00    +0.000 C 
ATOM     10  N   UNL     1      -0.240  10.682  20.694  0.00  0.00    +0.000 N 
ATOM     11  C   UNL     1      -0.503  11.012  22.049  0.00  0.00    +0.000 C 
ATOM     12  O   UNL     1      -0.079  10.481  23.063  0.00  0.00    +0.000 OA
BRANCH   7  13
ATOM     13  C   UNL     1      -1.791  12.848  23.210  0.00  0.00    +0.000 C 
BRANCH  13  14
ATOM     14  C   UNL     1      -3.181  12.441  23.690  0.00  0.00    +0.000 C 
BRANCH  14  16
ATOM     15  C   UNL     1      -3.068  14.620  24.939  0.00  0.00    +0.000 C 
ATOM     16  C   UNL     1      -3.978  13.622  24.243  0.00  0.00    +0.000 C 
ENDBRANCH  14  16
ENDBRANCH  13  14
ENDBRANCH   7  13
ENDBRANCH   1  10
BRANCH   4  17
ATOM     17  S   UNL     1       3.132   6.115  18.733  0.00  0.00    +0.000 S 
ATOM     18  O   UNL     1       3.717   5.506  19.911  0.00  0.00    +0.000 OA
ATOM     19  O   UNL     1       2.255   5.353  17.866  0.00  0.00    +0.000 OA
BRANCH  17  20
ATOM     20  O   UNL     1       4.324   6.775  17.821  0.00  0.00    +0.000 OA
BRANCH  20  21
ATOM     21  C   UNL     1       5.270   5.975  17.225  0.00  0.00    +0.000 A 
ATOM     22  C   UNL     1       5.080   5.677  15.874  0.00  0.00    +0.000 A 
ATOM     23  C   UNL     1       5.992   4.853  15.213  0.00  0.00    +0.000 A 
ATOM     24  F   UNL     1       5.788   4.545  13.925  0.00  0.00    +0.000 F 
ATOM     25  C   UNL     1       7.104   4.339  15.864  0.00  0.00    +0.000 A 
ATOM     26  C   UNL     1       7.302   4.671  17.196  0.00  0.00    +0.000 A 
ATOM     27  F   UNL     1       8.378   4.200  17.838  0.00  0.00    +0.000 F 
ATOM     28  C   UNL     1       6.402   5.484  17.880  0.00  0.00    +0.000 A 
ENDBRANCH  20  21
ENDBRANCH  17  20
ENDBRANCH   4  17
TORSDOF 7
ENDMDL
