MODEL 1
REMARK VINA RESULT:      -8.3      0.000      0.000
REMARK  Name = 
REMARK  3 active torsions:
REMARK  status: ('A' for Active; 'I' for Inactive)
REMARK    1  A    between atoms: C_1  and  C_2
REMARK    2  A    between atoms: C_4  and  C_5
REMARK    3  A    between atoms: C_5  and  N_6
REMARK                            x       y       z     vdW  Elec       q    Type
REMARK                         _______ _______ _______ _____ _____    ______ ____
ROOT
ATOM      1  N   UNL     1      -0.483  10.506  20.828  0.00  0.00    +0.000 NA
ATOM      2  C   UNL     1      -0.161  10.457  19.353  0.00  0.00    +0.000 C 
ATOM      3  C   UNL     1      -1.478  10.217  18.593  0.00  0.00    +0.000 C 
ATOM      4  C   UNL     1      -1.736  11.525  17.912  0.00  0.00    +0.000 C 
ATOM      5  O   UNL     1      -2.779  11.855  17.377  0.00  0.00    +0.000 OA
ATOM      6  N   UNL     1      -0.608  12.277  17.940  0.00  0.00    +0.000 N 
ATOM      7  C   UNL     1       0.344  11.768  18.763  0.00  0.00    +0.000 C 
ATOM      8  O   UNL     1       1.404  12.324  19.007  0.00  0.00    +0.000 OA
ATOM      9  C   UNL     1       0.837   9.330  19.135  0.00  0.00    +0.000 A 
ATOM     10  C   UNL     1       1.473   8.961  17.953  0.00  0.00    +0.000 A 
ATOM     11  C   UNL     1       2.398   7.906  17.978  0.00  0.00    +0.000 A 
ATOM     12  C   UNL     1       2.692   7.228  19.171  0.00  0.00    +0.000 A 
ATOM     13  C   UNL     1       2.049   7.581  20.354  0.00  0.00    +0.000 A 
ATOM     14  C   UNL     1       1.128   8.614  20.294  0.00  0.00    +0.000 A 
ATOM     15  S   UNL     1       0.193   9.187  21.647  0.00  0.00    +0.000 S 
ATOM     16  O   UNL     1      -0.864   8.235  21.885  0.00  0.00    +0.000 OA
ATOM     17  O   UNL     1       1.098   9.660  22.668  0.00  0.00    +0.000 OA
ATOM     18  H   UNL     1      -0.553  13.194  17.530  0.00  0.00    +0.000 HD
ENDROOT
BRANCH   1  19
ATOM     19  C   UNL     1      -0.475  11.788  21.552  0.00  0.00    +0.000 C 
BRANCH  19  23
ATOM     20  C   UNL     1      -4.325  12.313  24.765  0.00  0.00    +0.000 C 
ATOM     21  C   UNL     1      -3.752  12.551  23.396  0.00  0.00    +0.000 A 
ATOM     22  C   UNL     1      -2.443  12.117  23.118  0.00  0.00    +0.000 A 
ATOM     23  C   UNL     1      -1.869  12.296  21.850  0.00  0.00    +0.000 A 
ATOM     24  C   UNL     1      -2.627  12.911  20.844  0.00  0.00    +0.000 A 
ATOM     25  C   UNL     1      -3.921  13.362  21.110  0.00  0.00    +0.000 A 
ATOM     26  C   UNL     1      -4.480  13.186  22.378  0.00  0.00    +0.000 A 
ATOM     27 BR   UNL     1      -6.249  13.821  22.653  0.00  0.00    +0.000 Br
ENDBRANCH  19  23
ENDBRANCH   1  19
TORSDOF 2
ENDMDL
MODEL 2
REMARK VINA RESULT:      -8.2      0.417      1.326
REMARK  Name = 
REMARK  3 active torsions:
REMARK  status: ('A' for Active; 'I' for Inactive)
REMARK    1  A    between atoms: C_1  and  C_2
REMARK    2  A    between atoms: C_4  and  C_5
REMARK    3  A    between atoms: C_5  and  N_6
REMARK                            x       y       z     vdW  Elec       q    Type
REMARK                         _______ _______ _______ _____ _____    ______ ____
ROOT
ATOM      1  N   UNL     1      -0.447  10.439  20.807  0.00  0.00    +0.000 NA
ATOM      2  C   UNL     1      -0.149  10.442  19.326  0.00  0.00    +0.000 C 
ATOM      3  C   UNL     1      -1.476  10.215  18.580  0.00  0.00    +0.000 C 
ATOM      4  C   UNL     1      -1.757  11.543  17.947  0.00  0.00    +0.000 C 
ATOM      5  O   UNL     1      -2.812  11.881  17.441  0.00  0.00    +0.000 OA
ATOM      6  N   UNL     1      -0.635  12.303  17.982  0.00  0.00    +0.000 N 
ATOM      7  C   UNL     1       0.335  11.776  18.772  0.00  0.00    +0.000 C 
ATOM      8  O   UNL     1       1.395  12.333  19.016  0.00  0.00    +0.000 OA
ATOM      9  C   UNL     1       0.854   9.331  19.054  0.00  0.00    +0.000 A 
ATOM     10  C   UNL     1       1.473   9.007  17.850  0.00  0.00    +0.000 A 
ATOM     11  C   UNL     1       2.408   7.960  17.825  0.00  0.00    +0.000 A 
ATOM     12  C   UNL     1       2.727   7.245  18.990  0.00  0.00    +0.000 A 
ATOM     13  C   UNL     1       2.101   7.554  20.194  0.00  0.00    +0.000 A 
ATOM     14  C   UNL     1       1.171   8.580  20.184  0.00  0.00    +0.000 A 
ATOM     15  S   UNL     1       0.254   9.100  21.571  0.00  0.00    +0.000 S 
ATOM     16  O   UNL     1      -0.791   8.131  21.795  0.00  0.00    +0.000 OA
ATOM     17  O   UNL     1       1.173   9.547  22.591  0.00  0.00    +0.000 OA
ATOM     18  H   UNL     1      -0.595  13.234  17.602  0.00  0.00    +0.000 HD
ENDROOT
BRANCH   1  19
ATOM     19  C   UNL     1      -0.438  11.697  21.573  0.00  0.00    +0.000 C 
BRANCH  19  23
ATOM     20  C   UNL     1      -4.906  13.840  20.648  0.00  0.00    +0.000 C 
ATOM     21  C   UNL     1      -3.990  13.145  21.616  0.00  0.00    +0.000 A 
ATOM     22  C   UNL     1      -2.718  12.732  21.178  0.00  0.00    +0.000 A 
ATOM     23  C   UNL     1      -1.817  12.099  22.047  0.00  0.00    +0.000 A 
ATOM     24  C   UNL     1      -2.196  11.888  23.380  0.00  0.00    +0.000 A 
ATOM     25  C   UNL     1      -3.460  12.276  23.825  0.00  0.00    +0.000 A 
ATOM     26  C   UNL     1      -4.353  12.899  22.949  0.00  0.00    +0.000 A 
ATOM     27 BR   UNL     1      -6.050  13.404  23.639  0.00  0.00    +0.000 Br
ENDBRANCH  19  23
ENDBRANCH   1  19
TORSDOF 2
ENDMDL
MODEL 3
REMARK VINA RESULT:      -7.2      1.093      1.291
REMARK  Name = 
REMARK  3 active torsions:
REMARK  status: ('A' for Active; 'I' for Inactive)
REMARK    1  A    between atoms: C_1  and  C_2
REMARK    2  A    between atoms: C_4  and  C_5
REMARK    3  A    between atoms: C_5  and  N_6
REMARK                            x       y       z     vdW  Elec       q    Type
REMARK                         _______ _______ _______ _____ _____    ______ ____
ROOT
ATOM      1  N   UNL     1      -0.187  10.560  20.999  0.00  0.00    +0.000 NA
ATOM      2  C   UNL     1       0.088  10.468  19.517  0.00  0.00    +0.000 C 
ATOM      3  C   UNL     1      -1.266  10.353  18.794  0.00  0.00    +0.000 C 
ATOM      4  C   UNL     1      -1.412  11.676  18.107  0.00  0.00    +0.000 C 
ATOM      5  O   UNL     1      -2.432  12.104  17.597  0.00  0.00    +0.000 OA
ATOM      6  N   UNL     1      -0.216  12.313  18.098  0.00  0.00    +0.000 N 
ATOM      7  C   UNL     1       0.703  11.718  18.901  0.00  0.00    +0.000 C 
ATOM      8  O   UNL     1       1.820  12.168  19.111  0.00  0.00    +0.000 OA
ATOM      9  C   UNL     1       0.963   9.246  19.284  0.00  0.00    +0.000 A 
ATOM     10  C   UNL     1       1.527   8.807  18.089  0.00  0.00    +0.000 A 
ATOM     11  C   UNL     1       2.344   7.666  18.100  0.00  0.00    +0.000 A 
ATOM     12  C   UNL     1       2.602   6.971  19.292  0.00  0.00    +0.000 A 
ATOM     13  C   UNL     1       2.030   7.395  20.487  0.00  0.00    +0.000 A 
ATOM     14  C   UNL     1       1.214   8.513  20.442  0.00  0.00    +0.000 A 
ATOM     15  S   UNL     1       0.377   9.186  21.813  0.00  0.00    +0.000 S 
ATOM     16  O   UNL     1      -0.762   8.345  22.089  0.00  0.00    +0.000 OA
ATOM     17  O   UNL     1       1.353   9.574  22.805  0.00  0.00    +0.000 OA
ATOM     18  H   UNL     1      -0.082  13.217  17.678  0.00  0.00    +0.000 HD
ENDROOT
BRANCH   1  19
ATOM     19  C   UNL     1      -0.033  11.840  21.710  0.00  0.00    +0.000 C 
BRANCH  19  23
ATOM     20  C   UNL     1      -5.018  12.585  21.610  0.00  0.00    +0.000 C 
ATOM     21  C   UNL     1      -3.632  13.142  21.442  0.00  0.00    +0.000 A 
ATOM     22  C   UNL     1      -2.526  12.301  21.668  0.00  0.00    +0.000 A 
ATOM     23  C   UNL     1      -1.212  12.765  21.504  0.00  0.00    +0.000 A 
ATOM     24  C   UNL     1      -1.008  14.091  21.096  0.00  0.00    +0.000 A 
ATOM     25  C   UNL     1      -2.093  14.941  20.885  0.00  0.00    +0.000 A 
ATOM     26  C   UNL     1      -3.398  14.471  21.058  0.00  0.00    +0.000 A 
ATOM     27 BR   UNL     1      -4.819  15.692  20.742  0.00  0.00    +0.000 Br
ENDBRANCH  19  23
ENDBRANCH   1  19
TORSDOF 2
ENDMDL
MODEL 4
REMARK VINA RESULT:      -7.0      3.348      6.949
REMARK  Name = 
REMARK  3 active torsions:
REMARK  status: ('A' for Active; 'I' for Inactive)
REMARK    1  A    between atoms: C_1  and  C_2
REMARK    2  A    between atoms: C_4  and  C_5
REMARK    3  A    between atoms: C_5  and  N_6
REMARK                            x       y       z     vdW  Elec       q    Type
REMARK                         _______ _______ _______ _____ _____    ______ ____
ROOT
ATOM      1  N   UNL     1       0.957  10.139  20.122  0.00  0.00    +0.000 NA
ATOM      2  C   UNL     1       0.670  11.616  19.993  0.00  0.00    +0.000 C 
ATOM      3  C   UNL     1       2.017  12.360  20.017  0.00  0.00    +0.000 C 
ATOM      4  C   UNL     1       2.176  12.848  18.610  0.00  0.00    +0.000 C 
ATOM      5  O   UNL     1       3.198  13.299  18.125  0.00  0.00    +0.000 OA
ATOM      6  N   UNL     1       0.988  12.753  17.964  0.00  0.00    +0.000 N 
ATOM      7  C   UNL     1       0.066  12.037  18.658  0.00  0.00    +0.000 C 
ATOM      8  O   UNL     1      -1.042  11.753  18.230  0.00  0.00    +0.000 OA
ATOM      9  C   UNL     1      -0.224  12.017  21.157  0.00  0.00    +0.000 A 
ATOM     10  C   UNL     1      -0.802  13.258  21.409  0.00  0.00    +0.000 A 
ATOM     11  C   UNL     1      -1.635  13.407  22.530  0.00  0.00    +0.000 A 
ATOM     12  C   UNL     1      -1.893  12.327  23.388  0.00  0.00    +0.000 A 
ATOM     13  C   UNL     1      -1.306  11.088  23.151  0.00  0.00    +0.000 A 
ATOM     14  C   UNL     1      -0.476  10.977  22.048  0.00  0.00    +0.000 A 
ATOM     15  S   UNL     1       0.380   9.529  21.593  0.00  0.00    +0.000 S 
ATOM     16  O   UNL     1       1.509   9.390  22.480  0.00  0.00    +0.000 OA
ATOM     17  O   UNL     1      -0.583   8.483  21.342  0.00  0.00    +0.000 OA
ATOM     18  H   UNL     1       0.863  13.035  17.007  0.00  0.00    +0.000 HD
ENDROOT
BRANCH   1  19
ATOM     19  C   UNL     1       0.825   9.247  18.958  0.00  0.00    +0.000 C 
BRANCH  19  23
ATOM     20  C   UNL     1       4.684   6.997  16.621  0.00  0.00    +0.000 C 
ATOM     21  C   UNL     1       3.757   7.059  17.802  0.00  0.00    +0.000 A 
ATOM     22  C   UNL     1       2.790   8.080  17.859  0.00  0.00    +0.000 A 
ATOM     23  C   UNL     1       1.887   8.169  18.929  0.00  0.00    +0.000 A 
ATOM     24  C   UNL     1       1.950   7.211  19.951  0.00  0.00    +0.000 A 
ATOM     25  C   UNL     1       2.914   6.204  19.917  0.00  0.00    +0.000 A 
ATOM     26  C   UNL     1       3.813   6.128  18.851  0.00  0.00    +0.000 A 
ATOM     27 BR   UNL     1       5.089   4.720  18.877  0.00  0.00    +0.000 Br
ENDBRANCH  19  23
ENDBRANCH   1  19
TORSDOF 2
ENDMDL
MODEL 5
REMARK VINA RESULT:      -6.8      3.918      7.451
REMARK  Name = 
REMARK  3 active torsions:
REMARK  status: ('A' for Active; 'I' for Inactive)
REMARK    1  A    between atoms: C_1  and  C_2
REMARK    2  A    between atoms: C_4  and  C_5
REMARK    3  A    between atoms: C_5  and  N_6
REMARK                            x       y       z     vdW  Elec       q    Type
REMARK                         _______ _______ _______ _____ _____    ______ ____
ROOT
ATOM      1  N   UNL     1      -2.473  13.576  22.774  0.00  0.00    +0.000 NA
ATOM      2  C   UNL     1      -3.953  13.873  22.787  0.00  0.00    +0.000 C 
ATOM      3  C   UNL     1      -4.423  13.985  21.326  0.00  0.00    +0.000 C 
ATOM      4  C   UNL     1      -5.250  12.753  21.125  0.00  0.00    +0.000 C 
ATOM      5  O   UNL     1      -5.640  12.325  20.054  0.00  0.00    +0.000 OA
ATOM      6  N   UNL     1      -5.541  12.206  22.331  0.00  0.00    +0.000 N 
ATOM      7  C   UNL     1      -4.826  12.756  23.345  0.00  0.00    +0.000 C 
ATOM      8  O   UNL     1      -4.865  12.360  24.501  0.00  0.00    +0.000 OA
ATOM      9  C   UNL     1      -4.158  15.172  23.552  0.00  0.00    +0.000 A 
ATOM     10  C   UNL     1      -5.358  15.796  23.883  0.00  0.00    +0.000 A 
ATOM     11  C   UNL     1      -5.326  16.980  24.636  0.00  0.00    +0.000 A 
ATOM     12  C   UNL     1      -4.109  17.534  25.062  0.00  0.00    +0.000 A 
ATOM     13  C   UNL     1      -2.904  16.924  24.722  0.00  0.00    +0.000 A 
ATOM     14  C   UNL     1      -2.968  15.767  23.963  0.00  0.00    +0.000 A 
ATOM     15  S   UNL     1      -1.583  14.871  23.405  0.00  0.00    +0.000 S 
ATOM     16  O   UNL     1      -1.013  15.591  22.293  0.00  0.00    +0.000 OA
ATOM     17  O   UNL     1      -0.826  14.428  24.553  0.00  0.00    +0.000 OA
ATOM     18  H   UNL     1      -6.097  11.374  22.432  0.00  0.00    +0.000 HD
ENDROOT
BRANCH   1  19
ATOM     19  C   UNL     1      -1.977  12.230  23.106  0.00  0.00    +0.000 C 
BRANCH  19  23
ATOM     20  C   UNL     1       1.091   8.622  21.379  0.00  0.00    +0.000 C 
ATOM     21  C   UNL     1       0.254   9.839  21.101  0.00  0.00    +0.000 A 
ATOM     22  C   UNL     1      -0.464  10.431  22.157  0.00  0.00    +0.000 A 
ATOM     23  C   UNL     1      -1.243  11.580  21.954  0.00  0.00    +0.000 A 
ATOM     24  C   UNL     1      -1.291  12.149  20.674  0.00  0.00    +0.000 A 
ATOM     25  C   UNL     1      -0.598  11.564  19.614  0.00  0.00    +0.000 A 
ATOM     26  C   UNL     1       0.168  10.415  19.825  0.00  0.00    +0.000 A 
ATOM     27 BR   UNL     1       1.087   9.688  18.329  0.00  0.00    +0.000 Br
ENDBRANCH  19  23
ENDBRANCH   1  19
TORSDOF 2
ENDMDL
MODEL 6
REMARK VINA RESULT:      -6.7      3.374      6.713
REMARK  Name = 
REMARK  3 active torsions:
REMARK  status: ('A' for Active; 'I' for Inactive)
REMARK    1  A    between atoms: C_1  and  C_2
REMARK    2  A    between atoms: C_4  and  C_5
REMARK    3  A    between atoms: C_5  and  N_6
REMARK                            x       y       z     vdW  Elec       q    Type
REMARK                         _______ _______ _______ _____ _____    ______ ____
ROOT
ATOM      1  N   UNL     1       0.905  10.333  20.028  0.00  0.00    +0.000 NA
ATOM      2  C   UNL     1       0.690  11.826  19.969  0.00  0.00    +0.000 C 
ATOM      3  C   UNL     1       2.073  12.500  19.991  0.00  0.00    +0.000 C 
ATOM      4  C   UNL     1       2.223  13.041  18.602  0.00  0.00    +0.000 C 
ATOM      5  O   UNL     1       3.254  13.463  18.110  0.00  0.00    +0.000 OA
ATOM      6  N   UNL     1       1.017  13.034  17.984  0.00  0.00    +0.000 N 
ATOM      7  C   UNL     1       0.077  12.335  18.670  0.00  0.00    +0.000 C 
ATOM      8  O   UNL     1      -1.054  12.126  18.259  0.00  0.00    +0.000 OA
ATOM      9  C   UNL     1      -0.154  12.219  21.172  0.00  0.00    +0.000 A 
ATOM     10  C   UNL     1      -0.663  13.475  21.493  0.00  0.00    +0.000 A 
ATOM     11  C   UNL     1      -1.460  13.615  22.640  0.00  0.00    +0.000 A 
ATOM     12  C   UNL     1      -1.752  12.512  23.457  0.00  0.00    +0.000 A 
ATOM     13  C   UNL     1      -1.235  11.257  23.152  0.00  0.00    +0.000 A 
ATOM     14  C   UNL     1      -0.437  11.154  22.024  0.00  0.00    +0.000 A 
ATOM     15  S   UNL     1       0.333   9.687  21.486  0.00  0.00    +0.000 S 
ATOM     16  O   UNL     1       1.475   9.453  22.336  0.00  0.00    +0.000 OA
ATOM     17  O   UNL     1      -0.688   8.702  21.215  0.00  0.00    +0.000 OA
ATOM     18  H   UNL     1       0.884  13.364  17.043  0.00  0.00    +0.000 HD
ENDROOT
BRANCH   1  19
ATOM     19  C   UNL     1       0.701   9.500  18.830  0.00  0.00    +0.000 C 
BRANCH  19  23
ATOM     20  C   UNL     1       2.703   5.174  20.471  0.00  0.00    +0.000 C 
ATOM     21  C   UNL     1       2.729   6.311  19.488  0.00  0.00    +0.000 A 
ATOM     22  C   UNL     1       1.746   7.314  19.577  0.00  0.00    +0.000 A 
ATOM     23  C   UNL     1       1.739   8.407  18.698  0.00  0.00    +0.000 A 
ATOM     24  C   UNL     1       2.741   8.499  17.722  0.00  0.00    +0.000 A 
ATOM     25  C   UNL     1       3.712   7.504  17.611  0.00  0.00    +0.000 A 
ATOM     26  C   UNL     1       3.706   6.415  18.486  0.00  0.00    +0.000 A 
ATOM     27 BR   UNL     1       5.069   5.108  18.271  0.00  0.00    +0.000 Br
ENDBRANCH  19  23
ENDBRANCH   1  19
TORSDOF 2
ENDMDL
MODEL 7
REMARK VINA RESULT:      -6.7      3.960      7.561
REMARK  Name = 
REMARK  3 active torsions:
REMARK  status: ('A' for Active; 'I' for Inactive)
REMARK    1  A    between atoms: C_1  and  C_2
REMARK    2  A    between atoms: C_4  and  C_5
REMARK    3  A    between atoms: C_5  and  N_6
REMARK                            x       y       z     vdW  Elec       q    Type
REMARK                         _______ _______ _______ _____ _____    ______ ____
ROOT
ATOM      1  N   UNL     1      -2.568  13.682  22.737  0.00  0.00    +0.000 NA
ATOM      2  C   UNL     1      -4.055  13.934  22.804  0.00  0.00    +0.000 C 
ATOM      3  C   UNL     1      -4.580  14.034  21.361  0.00  0.00    +0.000 C 
ATOM      4  C   UNL     1      -5.377  12.778  21.188  0.00  0.00    +0.000 C 
ATOM      5  O   UNL     1      -5.793  12.339  20.131  0.00  0.00    +0.000 OA
ATOM      6  N   UNL     1      -5.609  12.222  22.402  0.00  0.00    +0.000 N 
ATOM      7  C   UNL     1      -4.874  12.792  23.392  0.00  0.00    +0.000 C 
ATOM      8  O   UNL     1      -4.859  12.395  24.547  0.00  0.00    +0.000 OA
ATOM      9  C   UNL     1      -4.269  15.226  23.578  0.00  0.00    +0.000 A 
ATOM     10  C   UNL     1      -5.474  15.815  23.953  0.00  0.00    +0.000 A 
ATOM     11  C   UNL     1      -5.449  16.999  24.707  0.00  0.00    +0.000 A 
ATOM     12  C   UNL     1      -4.234  17.588  25.089  0.00  0.00    +0.000 A 
ATOM     13  C   UNL     1      -3.026  17.014  24.705  0.00  0.00    +0.000 A 
ATOM     14  C   UNL     1      -3.083  15.857  23.947  0.00  0.00    +0.000 A 
ATOM     15  S   UNL     1      -1.693  15.001  23.338  0.00  0.00    +0.000 S 
ATOM     16  O   UNL     1      -1.185  15.738  22.206  0.00  0.00    +0.000 OA
ATOM     17  O   UNL     1      -0.883  14.581  24.456  0.00  0.00    +0.000 OA
ATOM     18  H   UNL     1      -6.136  11.374  22.523  0.00  0.00    +0.000 HD
ENDROOT
BRANCH   1  19
ATOM     19  C   UNL     1      -2.021  12.350  23.049  0.00  0.00    +0.000 C 
BRANCH  19  23
ATOM     20  C   UNL     1      -1.414  11.851  18.069  0.00  0.00    +0.000 C 
ATOM     21  C   UNL     1      -0.989  11.472  19.460  0.00  0.00    +0.000 A 
ATOM     22  C   UNL     1      -1.635  12.067  20.559  0.00  0.00    +0.000 A 
ATOM     23  C   UNL     1      -1.290  11.732  21.877  0.00  0.00    +0.000 A 
ATOM     24  C   UNL     1      -0.288  10.776  22.093  0.00  0.00    +0.000 A 
ATOM     25  C   UNL     1       0.373  10.189  21.014  0.00  0.00    +0.000 A 
ATOM     26  C   UNL     1       0.027  10.536  19.705  0.00  0.00    +0.000 A 
ATOM     27 BR   UNL     1       0.972   9.684  18.293  0.00  0.00    +0.000 Br
ENDBRANCH  19  23
ENDBRANCH   1  19
TORSDOF 2
ENDMDL
MODEL 8
REMARK VINA RESULT:      -6.5      3.496      6.441
REMARK  Name = 
REMARK  3 active torsions:
REMARK  status: ('A' for Active; 'I' for Inactive)
REMARK    1  A    between atoms: C_1  and  C_2
REMARK    2  A    between atoms: C_4  and  C_5
REMARK    3  A    between atoms: C_5  and  N_6
REMARK                            x       y       z     vdW  Elec       q    Type
REMARK                         _______ _______ _______ _____ _____    ______ ____
ROOT
ATOM      1  N   UNL     1      -1.414  13.043  20.721  0.00  0.00    +0.000 NA
ATOM      2  C   UNL     1      -1.975  13.423  22.070  0.00  0.00    +0.000 C 
ATOM      3  C   UNL     1      -3.440  13.846  21.867  0.00  0.00    +0.000 C 
ATOM      4  C   UNL     1      -4.219  12.730  22.493  0.00  0.00    +0.000 C 
ATOM      5  O   UNL     1      -5.416  12.543  22.372  0.00  0.00    +0.000 OA
ATOM      6  N   UNL     1      -3.392  11.979  23.260  0.00  0.00    +0.000 N 
ATOM      7  C   UNL     1      -2.081  12.275  23.067  0.00  0.00    +0.000 C 
ATOM      8  O   UNL     1      -1.159  11.666  23.588  0.00  0.00    +0.000 OA
ATOM      9  C   UNL     1      -1.125  14.559  22.620  0.00  0.00    +0.000 A 
ATOM     10  C   UNL     1      -1.220  15.181  23.862  0.00  0.00    +0.000 A 
ATOM     11  C   UNL     1      -0.303  16.192  24.190  0.00  0.00    +0.000 A 
ATOM     12  C   UNL     1       0.704  16.576  23.291  0.00  0.00    +0.000 A 
ATOM     13  C   UNL     1       0.795  15.969  22.042  0.00  0.00    +0.000 A 
ATOM     14  C   UNL     1      -0.135  14.988  21.740  0.00  0.00    +0.000 A 
ATOM     15  S   UNL     1      -0.216  14.132  20.225  0.00  0.00    +0.000 S 
ATOM     16  O   UNL     1      -0.808  15.017  19.252  0.00  0.00    +0.000 OA
ATOM     17  O   UNL     1       1.029  13.429  20.024  0.00  0.00    +0.000 OA
ATOM     18  H   UNL     1      -3.707  11.179  23.782  0.00  0.00    +0.000 HD
ENDROOT
BRANCH   1  19
ATOM     19  C   UNL     1      -1.181  11.629  20.379  0.00  0.00    +0.000 C 
BRANCH  19  23
ATOM     20  C   UNL     1      -4.916  11.896  17.003  0.00  0.00    +0.000 C 
ATOM     21  C   UNL     1      -3.560  11.368  17.380  0.00  0.00    +0.000 A 
ATOM     22  C   UNL     1      -3.003  11.738  18.619  0.00  0.00    +0.000 A 
ATOM     23  C   UNL     1      -1.751  11.256  19.028  0.00  0.00    +0.000 A 
ATOM     24  C   UNL     1      -1.052  10.381  18.183  0.00  0.00    +0.000 A 
ATOM     25  C   UNL     1      -1.584  10.019  16.946  0.00  0.00    +0.000 A 
ATOM     26  C   UNL     1      -2.829  10.510  16.545  0.00  0.00    +0.000 A 
ATOM     27 BR   UNL     1      -3.483   9.961  14.847  0.00  0.00    +0.000 Br
ENDBRANCH  19  23
ENDBRANCH   1  19
TORSDOF 2
ENDMDL
MODEL 9
REMARK VINA RESULT:      -6.5      3.549      6.723
REMARK  Name = 
REMARK  3 active torsions:
REMARK  status: ('A' for Active; 'I' for Inactive)
REMARK    1  A    between atoms: C_1  and  C_2
REMARK    2  A    between atoms: C_4  and  C_5
REMARK    3  A    between atoms: C_5  and  N_6
REMARK                            x       y       z     vdW  Elec       q    Type
REMARK                         _______ _______ _______ _____ _____    ______ ____
ROOT
ATOM      1  N   UNL     1      -1.882  13.266  21.201  0.00  0.00    +0.000 NA
ATOM      2  C   UNL     1      -3.007  13.704  22.108  0.00  0.00    +0.000 C 
ATOM      3  C   UNL     1      -4.126  14.281  21.223  0.00  0.00    +0.000 C 
ATOM      4  C   UNL     1      -5.213  13.255  21.315  0.00  0.00    +0.000 C 
ATOM      5  O   UNL     1      -6.199  13.196  20.602  0.00  0.00    +0.000 OA
ATOM      6  N   UNL     1      -4.956  12.419  22.351  0.00  0.00    +0.000 N 
ATOM      7  C   UNL     1      -3.705  12.574  22.855  0.00  0.00    +0.000 C 
ATOM      8  O   UNL     1      -3.230  11.870  23.733  0.00  0.00    +0.000 OA
ATOM      9  C   UNL     1      -2.448  14.742  23.069  0.00  0.00    +0.000 A 
ATOM     10  C   UNL     1      -3.097  15.370  24.129  0.00  0.00    +0.000 A 
ATOM     11  C   UNL     1      -2.380  16.277  24.926  0.00  0.00    +0.000 A 
ATOM     12  C   UNL     1      -1.027  16.552  24.671  0.00  0.00    +0.000 A 
ATOM     13  C   UNL     1      -0.377  15.940  23.604  0.00  0.00    +0.000 A 
ATOM     14  C   UNL     1      -1.115  15.063  22.826  0.00  0.00    +0.000 A 
ATOM     15  S   UNL     1      -0.503  14.221  21.430  0.00  0.00    +0.000 S 
ATOM     16  O   UNL     1      -0.441  15.165  20.340  0.00  0.00    +0.000 OA
ATOM     17  O   UNL     1       0.604  13.389  21.840  0.00  0.00    +0.000 OA
ATOM     18  H   UNL     1      -5.563  11.657  22.601  0.00  0.00    +0.000 HD
ENDROOT
BRANCH   1  19
ATOM     19  C   UNL     1      -1.641  11.836  20.945  0.00  0.00    +0.000 C 
BRANCH  19  23
ATOM     20  C   UNL     1      -4.836  11.852  17.046  0.00  0.00    +0.000 C 
ATOM     21  C   UNL     1      -3.515  11.427  17.623  0.00  0.00    +0.000 A 
ATOM     22  C   UNL     1      -3.181  11.824  18.931  0.00  0.00    +0.000 A 
ATOM     23  C   UNL     1      -1.970  11.436  19.524  0.00  0.00    +0.000 A 
ATOM     24  C   UNL     1      -1.087  10.627  18.795  0.00  0.00    +0.000 A 
ATOM     25  C   UNL     1      -1.397  10.238  17.491  0.00  0.00    +0.000 A 
ATOM     26  C   UNL     1      -2.602  10.637  16.907  0.00  0.00    +0.000 A 
ATOM     27 BR   UNL     1      -2.950  10.058  15.131  0.00  0.00    +0.000 Br
ENDBRANCH  19  23
ENDBRANCH   1  19
TORSDOF 2
ENDMDL
