MODEL 1
REMARK VINA RESULT:      -7.1      0.000      0.000
REMARK  Name = 
REMARK  7 active torsions:
REMARK  status: ('A' for Active; 'I' for Inactive)
REMARK    1  A    between atoms: C_1  and  C_2
REMARK    2  A    between atoms: C_2  and  C_3
REMARK    3  A    between atoms: C_2  and  N_12
REMARK    4  A    between atoms: C_3  and  O_4
REMARK    5  A    between atoms: C_3  and  C_5
REMARK    6  A    between atoms: C_15  and  C_16
REMARK    7  A    between atoms: C_16  and  C_17
REMARK                            x       y       z     vdW  Elec       q    Type
REMARK                         _______ _______ _______ _____ _____    ______ ____
ROOT
ATOM      1  N   UNL     1       4.389   4.991  17.382  0.00  0.00    +0.000 NA
ATOM      2  C   UNL     1       4.487   3.824  16.478  0.00  0.00    +0.000 C 
ATOM      3  C   UNL     1       5.920   3.515  16.052  0.00  0.00    +0.000 C 
ATOM      4  C   UNL     1       6.576   4.706  15.354  0.00  0.00    +0.000 C 
ATOM      5  C   UNL     1       6.508   5.885  16.331  0.00  0.00    +0.000 C 
ATOM      6  C   UNL     1       5.081   6.166  16.823  0.00  0.00    +0.000 C 
ENDROOT
BRANCH   1   8
ATOM      7  C   UNL     1       2.149   3.953  17.591  0.00  0.00    +0.000 C 
ATOM      8  C   UNL     1       2.954   5.265  17.753  0.00  0.00    +0.000 C 
BRANCH   8   9
ATOM      9  C   UNL     1       2.692   5.839  19.207  0.00  0.00    +0.000 C 
BRANCH   9  10
ATOM     10  C   UNL     1       2.159   7.265  19.290  0.00  0.00    +0.000 A 
ATOM     11  C   UNL     1       2.144   8.055  18.125  0.00  0.00    +0.000 A 
ATOM     12  C   UNL     1       1.623   9.350  18.146  0.00  0.00    +0.000 A 
ATOM     13  C   UNL     1       1.110   9.864  19.329  0.00  0.00    +0.000 A 
ATOM     14  F   UNL     1       0.609  11.107  19.350  0.00  0.00    +0.000 F 
ATOM     15  C   UNL     1       1.097   9.102  20.490  0.00  0.00    +0.000 A 
ATOM     16  C   UNL     1       1.607   7.802  20.468  0.00  0.00    +0.000 A 
ENDBRANCH   9  10
BRANCH   9  17
ATOM     17  O   UNL     1       3.883   5.878  20.001  0.00  0.00    +0.000 OA
ATOM     18  H   UNL     1       4.319   6.727  19.817  0.00  0.00    +0.000 HD
ENDBRANCH   9  17
ENDBRANCH   8   9
ENDBRANCH   1   8
BRANCH   4  19
ATOM     19  C   UNL     1       5.930   5.074  13.998  0.00  0.00    +0.000 C 
BRANCH  19  20
ATOM     20  C   UNL     1       5.991   4.002  12.936  0.00  0.00    +0.000 A 
ATOM     21  C   UNL     1       7.231   3.557  12.454  0.00  0.00    +0.000 A 
ATOM     22  C   UNL     1       7.301   2.537  11.504  0.00  0.00    +0.000 A 
ATOM     23  C   UNL     1       6.132   1.951  11.024  0.00  0.00    +0.000 A 
ATOM     24  C   UNL     1       4.894   2.389  11.491  0.00  0.00    +0.000 A 
ATOM     25  C   UNL     1       4.823   3.408  12.443  0.00  0.00    +0.000 A 
ENDBRANCH  19  20
ENDBRANCH   4  19
TORSDOF 6
ENDMDL
MODEL 2
REMARK VINA RESULT:      -7.1      4.708      8.725
REMARK  Name = 
REMARK  7 active torsions:
REMARK  status: ('A' for Active; 'I' for Inactive)
REMARK    1  A    between atoms: C_1  and  C_2
REMARK    2  A    between atoms: C_2  and  C_3
REMARK    3  A    between atoms: C_2  and  N_12
REMARK    4  A    between atoms: C_3  and  O_4
REMARK    5  A    between atoms: C_3  and  C_5
REMARK    6  A    between atoms: C_15  and  C_16
REMARK    7  A    between atoms: C_16  and  C_17
REMARK                            x       y       z     vdW  Elec       q    Type
REMARK                         _______ _______ _______ _____ _____    ______ ____
ROOT
ATOM      1  N   UNL     1       2.049   8.436  19.582  0.00  0.00    +0.000 NA
ATOM      2  C   UNL     1       1.466   8.779  18.266  0.00  0.00    +0.000 C 
ATOM      3  C   UNL     1       0.974  10.222  18.187  0.00  0.00    +0.000 C 
ATOM      4  C   UNL     1      -0.073  10.527  19.259  0.00  0.00    +0.000 C 
ATOM      5  C   UNL     1       0.573  10.212  20.612  0.00  0.00    +0.000 C 
ATOM      6  C   UNL     1       1.135   8.785  20.685  0.00  0.00    +0.000 C 
ENDROOT
BRANCH   1   8
ATOM      7  C   UNL     1       1.467   6.182  20.430  0.00  0.00    +0.000 C 
ATOM      8  C   UNL     1       2.497   6.997  19.613  0.00  0.00    +0.000 C 
BRANCH   8   9
ATOM      9  C   UNL     1       2.702   6.285  18.211  0.00  0.00    +0.000 C 
BRANCH   9  10
ATOM     10  C   UNL     1       2.975   4.785  18.242  0.00  0.00    +0.000 A 
ATOM     11  C   UNL     1       4.083   4.311  18.968  0.00  0.00    +0.000 A 
ATOM     12  C   UNL     1       4.344   2.942  19.060  0.00  0.00    +0.000 A 
ATOM     13  C   UNL     1       3.497   2.038  18.432  0.00  0.00    +0.000 A 
ATOM     14  F   UNL     1       3.746   0.725  18.522  0.00  0.00    +0.000 F 
ATOM     15  C   UNL     1       2.388   2.478  17.723  0.00  0.00    +0.000 A 
ATOM     16  C   UNL     1       2.119   3.845  17.639  0.00  0.00    +0.000 A 
ENDBRANCH   9  10
BRANCH   9  17
ATOM     17  O   UNL     1       3.819   6.816  17.488  0.00  0.00    +0.000 OA
ATOM     18  H   UNL     1       4.376   6.062  17.234  0.00  0.00    +0.000 HD
ENDBRANCH   9  17
ENDBRANCH   8   9
ENDBRANCH   1   8
BRANCH   4  19
ATOM     19  C   UNL     1      -1.397   9.746  19.084  0.00  0.00    +0.000 C 
BRANCH  19  20
ATOM     20  C   UNL     1      -2.268  10.192  17.934  0.00  0.00    +0.000 A 
ATOM     21  C   UNL     1      -3.304  11.114  18.152  0.00  0.00    +0.000 A 
ATOM     22  C   UNL     1      -4.089  11.565  17.090  0.00  0.00    +0.000 A 
ATOM     23  C   UNL     1      -3.849  11.100  15.799  0.00  0.00    +0.000 A 
ATOM     24  C   UNL     1      -2.827  10.179  15.572  0.00  0.00    +0.000 A 
ATOM     25  C   UNL     1      -2.039   9.728  16.634  0.00  0.00    +0.000 A 
ENDBRANCH  19  20
ENDBRANCH   4  19
TORSDOF 6
ENDMDL
MODEL 3
REMARK VINA RESULT:      -7.1      4.666      8.724
REMARK  Name = 
REMARK  7 active torsions:
REMARK  status: ('A' for Active; 'I' for Inactive)
REMARK    1  A    between atoms: C_1  and  C_2
REMARK    2  A    between atoms: C_2  and  C_3
REMARK    3  A    between atoms: C_2  and  N_12
REMARK    4  A    between atoms: C_3  and  O_4
REMARK    5  A    between atoms: C_3  and  C_5
REMARK    6  A    between atoms: C_15  and  C_16
REMARK    7  A    between atoms: C_16  and  C_17
REMARK                            x       y       z     vdW  Elec       q    Type
REMARK                         _______ _______ _______ _____ _____    ______ ____
ROOT
ATOM      1  N   UNL     1       1.852   8.622  19.790  0.00  0.00    +0.000 NA
ATOM      2  C   UNL     1       1.358   9.055  18.464  0.00  0.00    +0.000 C 
ATOM      3  C   UNL     1       0.779  10.467  18.473  0.00  0.00    +0.000 C 
ATOM      4  C   UNL     1      -0.372  10.605  19.470  0.00  0.00    +0.000 C 
ATOM      5  C   UNL     1       0.180  10.201  20.842  0.00  0.00    +0.000 C 
ATOM      6  C   UNL     1       0.828   8.809  20.834  0.00  0.00    +0.000 C 
ENDROOT
BRANCH   1   8
ATOM      7  C   UNL     1       1.459   6.299  20.556  0.00  0.00    +0.000 C 
ATOM      8  C   UNL     1       2.392   7.216  19.730  0.00  0.00    +0.000 C 
BRANCH   8   9
ATOM      9  C   UNL     1       2.569   6.583  18.287  0.00  0.00    +0.000 C 
BRANCH   9  10
ATOM     10  C   UNL     1       2.838   5.083  18.230  0.00  0.00    +0.000 A 
ATOM     11  C   UNL     1       4.044   4.587  18.762  0.00  0.00    +0.000 A 
ATOM     12  C   UNL     1       4.311   3.217  18.770  0.00  0.00    +0.000 A 
ATOM     13  C   UNL     1       3.374   2.332  18.254  0.00  0.00    +0.000 A 
ATOM     14  F   UNL     1       3.629   1.017  18.263  0.00  0.00    +0.000 F 
ATOM     15  C   UNL     1       2.169   2.792  17.738  0.00  0.00    +0.000 A 
ATOM     16  C   UNL     1       1.896   4.161  17.738  0.00  0.00    +0.000 A 
ENDBRANCH   9  10
BRANCH   9  17
ATOM     17  O   UNL     1       3.674   7.151  17.575  0.00  0.00    +0.000 OA
ATOM     18  H   UNL     1       3.901   7.984  18.020  0.00  0.00    +0.000 HD
ENDBRANCH   9  17
ENDBRANCH   8   9
ENDBRANCH   1   8
BRANCH   4  19
ATOM     19  C   UNL     1      -1.621   9.767  19.108  0.00  0.00    +0.000 C 
BRANCH  19  20
ATOM     20  C   UNL     1      -2.390  10.237  17.896  0.00  0.00    +0.000 A 
ATOM     21  C   UNL     1      -2.094   9.713  16.628  0.00  0.00    +0.000 A 
ATOM     22  C   UNL     1      -2.826  10.108  15.507  0.00  0.00    +0.000 A 
ATOM     23  C   UNL     1      -3.861  11.031  15.641  0.00  0.00    +0.000 A 
ATOM     24  C   UNL     1      -4.161  11.562  16.894  0.00  0.00    +0.000 A 
ATOM     25  C   UNL     1      -3.430  11.166  18.017  0.00  0.00    +0.000 A 
ENDBRANCH  19  20
ENDBRANCH   4  19
TORSDOF 6
ENDMDL
MODEL 4
REMARK VINA RESULT:      -7.1      4.702      8.678
REMARK  Name = 
REMARK  7 active torsions:
REMARK  status: ('A' for Active; 'I' for Inactive)
REMARK    1  A    between atoms: C_1  and  C_2
REMARK    2  A    between atoms: C_2  and  C_3
REMARK    3  A    between atoms: C_2  and  N_12
REMARK    4  A    between atoms: C_3  and  O_4
REMARK    5  A    between atoms: C_3  and  C_5
REMARK    6  A    between atoms: C_15  and  C_16
REMARK    7  A    between atoms: C_16  and  C_17
REMARK                            x       y       z     vdW  Elec       q    Type
REMARK                         _______ _______ _______ _____ _____    ______ ____
ROOT
ATOM      1  N   UNL     1       1.942   8.604  19.679  0.00  0.00    +0.000 NA
ATOM      2  C   UNL     1       1.455   8.938  18.323  0.00  0.00    +0.000 C 
ATOM      3  C   UNL     1       0.896  10.356  18.221  0.00  0.00    +0.000 C 
ATOM      4  C   UNL     1      -0.252  10.588  19.204  0.00  0.00    +0.000 C 
ATOM      5  C   UNL     1       0.294  10.284  20.603  0.00  0.00    +0.000 C 
ATOM      6  C   UNL     1       0.922   8.886  20.704  0.00  0.00    +0.000 C 
ENDROOT
BRANCH   1   8
ATOM      7  C   UNL     1       1.472   6.335  20.557  0.00  0.00    +0.000 C 
ATOM      8  C   UNL     1       2.461   7.189  19.729  0.00  0.00    +0.000 C 
BRANCH   8   9
ATOM      9  C   UNL     1       2.702   6.470  18.337  0.00  0.00    +0.000 C 
BRANCH   9  10
ATOM     10  C   UNL     1       2.963   4.968  18.382  0.00  0.00    +0.000 A 
ATOM     11  C   UNL     1       2.096   4.105  17.687  0.00  0.00    +0.000 A 
ATOM     12  C   UNL     1       2.324   2.728  17.665  0.00  0.00    +0.000 A 
ATOM     13  C   UNL     1       3.422   2.203  18.333  0.00  0.00    +0.000 A 
ATOM     14  F   UNL     1       3.642   0.882  18.311  0.00  0.00    +0.000 F 
ATOM     15  C   UNL     1       4.303   3.033  19.014  0.00  0.00    +0.000 A 
ATOM     16  C   UNL     1       4.083   4.411  19.028  0.00  0.00    +0.000 A 
ENDBRANCH   9  10
BRANCH   9  17
ATOM     17  O   UNL     1       3.844   6.989  17.645  0.00  0.00    +0.000 OA
ATOM     18  H   UNL     1       4.264   7.636  18.237  0.00  0.00    +0.000 HD
ENDBRANCH   9  17
ENDBRANCH   8   9
ENDBRANCH   1   8
BRANCH   4  19
ATOM     19  C   UNL     1      -1.514   9.743  18.908  0.00  0.00    +0.000 C 
BRANCH  19  20
ATOM     20  C   UNL     1      -2.357  10.218  17.749  0.00  0.00    +0.000 A 
ATOM     21  C   UNL     1      -2.112   9.732  16.455  0.00  0.00    +0.000 A 
ATOM     22  C   UNL     1      -2.912  10.132  15.382  0.00  0.00    +0.000 A 
ATOM     23  C   UNL     1      -3.964  11.021  15.591  0.00  0.00    +0.000 A 
ATOM     24  C   UNL     1      -4.213  11.514  16.870  0.00  0.00    +0.000 A 
ATOM     25  C   UNL     1      -3.414  11.114  17.945  0.00  0.00    +0.000 A 
ENDBRANCH  19  20
ENDBRANCH   4  19
TORSDOF 6
ENDMDL
MODEL 5
REMARK VINA RESULT:      -7.0      2.734      3.914
REMARK  Name = 
REMARK  7 active torsions:
REMARK  status: ('A' for Active; 'I' for Inactive)
REMARK    1  A    between atoms: C_1  and  C_2
REMARK    2  A    between atoms: C_2  and  C_3
REMARK    3  A    between atoms: C_2  and  N_12
REMARK    4  A    between atoms: C_3  and  O_4
REMARK    5  A    between atoms: C_3  and  C_5
REMARK    6  A    between atoms: C_15  and  C_16
REMARK    7  A    between atoms: C_16  and  C_17
REMARK                            x       y       z     vdW  Elec       q    Type
REMARK                         _______ _______ _______ _____ _____    ______ ____
ROOT
ATOM      1  N   UNL     1       4.509   6.726  18.163  0.00  0.00    +0.000 NA
ATOM      2  C   UNL     1       5.160   5.491  18.651  0.00  0.00    +0.000 C 
ATOM      3  C   UNL     1       6.640   5.410  18.283  0.00  0.00    +0.000 C 
ATOM      4  C   UNL     1       6.856   5.490  16.771  0.00  0.00    +0.000 C 
ATOM      5  C   UNL     1       6.218   6.801  16.301  0.00  0.00    +0.000 C 
ATOM      6  C   UNL     1       4.747   6.930  16.723  0.00  0.00    +0.000 C 
ENDROOT
BRANCH   1   8
ATOM      7  C   UNL     1       2.380   7.948  17.826  0.00  0.00    +0.000 C 
ATOM      8  C   UNL     1       3.047   6.745  18.534  0.00  0.00    +0.000 C 
BRANCH   8   9
ATOM      9  C   UNL     1       2.212   5.440  18.201  0.00  0.00    +0.000 C 
BRANCH   9  10
ATOM     10  C   UNL     1       1.939   4.492  19.364  0.00  0.00    +0.000 A 
ATOM     11  C   UNL     1       1.287   3.271  19.108  0.00  0.00    +0.000 A 
ATOM     12  C   UNL     1       1.057   2.354  20.136  0.00  0.00    +0.000 A 
ATOM     13  C   UNL     1       1.481   2.648  21.425  0.00  0.00    +0.000 A 
ATOM     14  F   UNL     1       1.262   1.768  22.411  0.00  0.00    +0.000 F 
ATOM     15  C   UNL     1       2.141   3.837  21.703  0.00  0.00    +0.000 A 
ATOM     16  C   UNL     1       2.381   4.751  20.674  0.00  0.00    +0.000 A 
ENDBRANCH   9  10
BRANCH   9  17
ATOM     17  O   UNL     1       2.863   4.607  17.234  0.00  0.00    +0.000 OA
ATOM     18  H   UNL     1       3.636   4.214  17.673  0.00  0.00    +0.000 HD
ENDBRANCH   9  17
ENDBRANCH   8   9
ENDBRANCH   1   8
BRANCH   4  19
ATOM     19  C   UNL     1       6.283   4.284  15.990  0.00  0.00    +0.000 C 
BRANCH  19  20
ATOM     20  C   UNL     1       6.538   4.293  14.501  0.00  0.00    +0.000 A 
ATOM     21  C   UNL     1       7.546   5.109  13.964  0.00  0.00    +0.000 A 
ATOM     22  C   UNL     1       7.819   5.095  12.595  0.00  0.00    +0.000 A 
ATOM     23  C   UNL     1       7.088   4.265  11.748  0.00  0.00    +0.000 A 
ATOM     24  C   UNL     1       6.080   3.455  12.269  0.00  0.00    +0.000 A 
ATOM     25  C   UNL     1       5.808   3.467  13.639  0.00  0.00    +0.000 A 
ENDBRANCH  19  20
ENDBRANCH   4  19
TORSDOF 6
ENDMDL
MODEL 6
REMARK VINA RESULT:      -7.0      1.303      1.914
REMARK  Name = 
REMARK  7 active torsions:
REMARK  status: ('A' for Active; 'I' for Inactive)
REMARK    1  A    between atoms: C_1  and  C_2
REMARK    2  A    between atoms: C_2  and  C_3
REMARK    3  A    between atoms: C_2  and  N_12
REMARK    4  A    between atoms: C_3  and  O_4
REMARK    5  A    between atoms: C_3  and  C_5
REMARK    6  A    between atoms: C_15  and  C_16
REMARK    7  A    between atoms: C_16  and  C_17
REMARK                            x       y       z     vdW  Elec       q    Type
REMARK                         _______ _______ _______ _____ _____    ______ ____
ROOT
ATOM      1  N   UNL     1       4.359   5.646  18.438  0.00  0.00    +0.000 NA
ATOM      2  C   UNL     1       5.681   5.212  18.941  0.00  0.00    +0.000 C 
ATOM      3  C   UNL     1       6.833   6.056  18.402  0.00  0.00    +0.000 C 
ATOM      4  C   UNL     1       6.884   6.042  16.874  0.00  0.00    +0.000 C 
ATOM      5  C   UNL     1       5.523   6.545  16.381  0.00  0.00    +0.000 C 
ATOM      6  C   UNL     1       4.348   5.749  16.967  0.00  0.00    +0.000 C 
ENDROOT
BRANCH   1   8
ATOM      7  C   UNL     1       3.912   3.612  19.780  0.00  0.00    +0.000 C 
ATOM      8  C   UNL     1       3.262   4.767  18.982  0.00  0.00    +0.000 C 
BRANCH   8   9
ATOM      9  C   UNL     1       2.179   5.467  19.903  0.00  0.00    +0.000 C 
BRANCH   9  10
ATOM     10  C   UNL     1       1.912   6.945  19.637  0.00  0.00    +0.000 A 
ATOM     11  C   UNL     1       2.011   7.427  18.318  0.00  0.00    +0.000 A 
ATOM     12  C   UNL     1       1.731   8.763  18.023  0.00  0.00    +0.000 A 
ATOM     13  C   UNL     1       1.346   9.625  19.042  0.00  0.00    +0.000 A 
ATOM     14  F   UNL     1       1.075  10.906  18.759  0.00  0.00    +0.000 F 
ATOM     15  C   UNL     1       1.224   9.172  20.348  0.00  0.00    +0.000 A 
ATOM     16  C   UNL     1       1.493   7.834  20.644  0.00  0.00    +0.000 A 
ENDBRANCH   9  10
BRANCH   9  17
ATOM     17  O   UNL     1       2.539   5.435  21.289  0.00  0.00    +0.000 OA
ATOM     18  H   UNL     1       3.341   5.974  21.386  0.00  0.00    +0.000 HD
ENDBRANCH   9  17
ENDBRANCH   8   9
ENDBRANCH   1   8
BRANCH   4  19
ATOM     19  C   UNL     1       7.215   4.658  16.269  0.00  0.00    +0.000 C 
BRANCH  19  20
ATOM     20  C   UNL     1       7.047   4.545  14.772  0.00  0.00    +0.000 A 
ATOM     21  C   UNL     1       7.877   5.282  13.913  0.00  0.00    +0.000 A 
ATOM     22  C   UNL     1       7.759   5.155  12.528  0.00  0.00    +0.000 A 
ATOM     23  C   UNL     1       6.811   4.290  11.987  0.00  0.00    +0.000 A 
ATOM     24  C   UNL     1       5.977   3.557  12.829  0.00  0.00    +0.000 A 
ATOM     25  C   UNL     1       6.096   3.683  14.216  0.00  0.00    +0.000 A 
ENDBRANCH  19  20
ENDBRANCH   4  19
TORSDOF 6
ENDMDL
MODEL 7
REMARK VINA RESULT:      -7.0      2.749      4.078
REMARK  Name = 
REMARK  7 active torsions:
REMARK  status: ('A' for Active; 'I' for Inactive)
REMARK    1  A    between atoms: C_1  and  C_2
REMARK    2  A    between atoms: C_2  and  C_3
REMARK    3  A    between atoms: C_2  and  N_12
REMARK    4  A    between atoms: C_3  and  O_4
REMARK    5  A    between atoms: C_3  and  C_5
REMARK    6  A    between atoms: C_15  and  C_16
REMARK    7  A    between atoms: C_16  and  C_17
REMARK                            x       y       z     vdW  Elec       q    Type
REMARK                         _______ _______ _______ _____ _____    ______ ____
ROOT
ATOM      1  N   UNL     1       4.554   6.640  18.229  0.00  0.00    +0.000 NA
ATOM      2  C   UNL     1       5.197   5.388  18.685  0.00  0.00    +0.000 C 
ATOM      3  C   UNL     1       6.673   5.299  18.303  0.00  0.00    +0.000 C 
ATOM      4  C   UNL     1       6.877   5.409  16.791  0.00  0.00    +0.000 C 
ATOM      5  C   UNL     1       6.248   6.736  16.354  0.00  0.00    +0.000 C 
ATOM      6  C   UNL     1       4.782   6.871  16.792  0.00  0.00    +0.000 C 
ENDROOT
BRANCH   1   8
ATOM      7  C   UNL     1       2.444   7.911  17.968  0.00  0.00    +0.000 C 
ATOM      8  C   UNL     1       3.096   6.665  18.613  0.00  0.00    +0.000 C 
BRANCH   8   9
ATOM      9  C   UNL     1       2.236   5.391  18.227  0.00  0.00    +0.000 C 
BRANCH   9  10
ATOM     10  C   UNL     1       1.984   4.377  19.339  0.00  0.00    +0.000 A 
ATOM     11  C   UNL     1       2.375   4.697  20.652  0.00  0.00    +0.000 A 
ATOM     12  C   UNL     1       2.123   3.818  21.707  0.00  0.00    +0.000 A 
ATOM     13  C   UNL     1       1.474   2.616  21.458  0.00  0.00    +0.000 A 
ATOM     14  F   UNL     1       1.230   1.772  22.470  0.00  0.00    +0.000 F 
ATOM     15  C   UNL     1       1.063   2.282  20.175  0.00  0.00    +0.000 A 
ATOM     16  C   UNL     1       1.305   3.165  19.120  0.00  0.00    +0.000 A 
ENDBRANCH   9  10
BRANCH   9  17
ATOM     17  O   UNL     1       2.850   4.611  17.194  0.00  0.00    +0.000 OA
ATOM     18  H   UNL     1       2.377   3.763  17.160  0.00  0.00    +0.000 HD
ENDBRANCH   9  17
ENDBRANCH   8   9
ENDBRANCH   1   8
BRANCH   4  19
ATOM     19  C   UNL     1       6.285   4.226  15.989  0.00  0.00    +0.000 C 
BRANCH  19  20
ATOM     20  C   UNL     1       6.575   4.235  14.507  0.00  0.00    +0.000 A 
ATOM     21  C   UNL     1       5.836   3.414  13.641  0.00  0.00    +0.000 A 
ATOM     22  C   UNL     1       6.067   3.443  12.264  0.00  0.00    +0.000 A 
ATOM     23  C   UNL     1       7.038   4.293  11.739  0.00  0.00    +0.000 A 
ATOM     24  C   UNL     1       7.781   5.108  12.590  0.00  0.00    +0.000 A 
ATOM     25  C   UNL     1       7.550   5.081  13.968  0.00  0.00    +0.000 A 
ENDBRANCH  19  20
ENDBRANCH   4  19
TORSDOF 6
ENDMDL
MODEL 8
REMARK VINA RESULT:      -7.0      0.208      1.408
REMARK  Name = 
REMARK  7 active torsions:
REMARK  status: ('A' for Active; 'I' for Inactive)
REMARK    1  A    between atoms: C_1  and  C_2
REMARK    2  A    between atoms: C_2  and  C_3
REMARK    3  A    between atoms: C_2  and  N_12
REMARK    4  A    between atoms: C_3  and  O_4
REMARK    5  A    between atoms: C_3  and  C_5
REMARK    6  A    between atoms: C_15  and  C_16
REMARK    7  A    between atoms: C_16  and  C_17
REMARK                            x       y       z     vdW  Elec       q    Type
REMARK                         _______ _______ _______ _____ _____    ______ ____
ROOT
ATOM      1  N   UNL     1       4.543   4.948  17.267  0.00  0.00    +0.000 NA
ATOM      2  C   UNL     1       4.706   3.757  16.404  0.00  0.00    +0.000 C 
ATOM      3  C   UNL     1       6.151   3.525  15.970  0.00  0.00    +0.000 C 
ATOM      4  C   UNL     1       6.721   4.730  15.221  0.00  0.00    +0.000 C 
ATOM      5  C   UNL     1       6.588   5.937  16.155  0.00  0.00    +0.000 C 
ATOM      6  C   UNL     1       5.151   6.144  16.656  0.00  0.00    +0.000 C 
ENDROOT
BRANCH   1   8
ATOM      7  C   UNL     1       2.367   3.787  17.499  0.00  0.00    +0.000 C 
ATOM      8  C   UNL     1       3.097   5.143  17.647  0.00  0.00    +0.000 C 
BRANCH   8   9
ATOM      9  C   UNL     1       2.814   5.711  19.099  0.00  0.00    +0.000 C 
BRANCH   9  10
ATOM     10  C   UNL     1       2.213   7.110  19.178  0.00  0.00    +0.000 A 
ATOM     11  C   UNL     1       1.672   7.551  20.400  0.00  0.00    +0.000 A 
ATOM     12  C   UNL     1       1.153   8.841  20.528  0.00  0.00    +0.000 A 
ATOM     13  C   UNL     1       1.175   9.701  19.438  0.00  0.00    +0.000 A 
ATOM     14  F   UNL     1       0.679  10.939  19.561  0.00  0.00    +0.000 F 
ATOM     15  C   UNL     1       1.718   9.298  18.225  0.00  0.00    +0.000 A 
ATOM     16  C   UNL     1       2.247   8.012  18.098  0.00  0.00    +0.000 A 
ENDBRANCH   9  10
BRANCH   9  17
ATOM     17  O   UNL     1       4.005   5.811  19.888  0.00  0.00    +0.000 OA
ATOM     18  H   UNL     1       4.742   5.955  19.271  0.00  0.00    +0.000 HD
ENDBRANCH   9  17
ENDBRANCH   8   9
ENDBRANCH   1   8
BRANCH   4  19
ATOM     19  C   UNL     1       6.038   5.006  13.861  0.00  0.00    +0.000 C 
BRANCH  19  20
ATOM     20  C   UNL     1       6.109   3.881  12.856  0.00  0.00    +0.000 A 
ATOM     21  C   UNL     1       4.931   3.277  12.390  0.00  0.00    +0.000 A 
ATOM     22  C   UNL     1       4.983   2.264  11.431  0.00  0.00    +0.000 A 
ATOM     23  C   UNL     1       6.211   1.845  10.927  0.00  0.00    +0.000 A 
ATOM     24  C   UNL     1       7.388   2.433  11.386  0.00  0.00    +0.000 A 
ATOM     25  C   UNL     1       7.338   3.448  12.345  0.00  0.00    +0.000 A 
ENDBRANCH  19  20
ENDBRANCH   4  19
TORSDOF 6
ENDMDL
MODEL 9
REMARK VINA RESULT:      -6.9      3.290      7.554
REMARK  Name = 
REMARK  7 active torsions:
REMARK  status: ('A' for Active; 'I' for Inactive)
REMARK    1  A    between atoms: C_1  and  C_2
REMARK    2  A    between atoms: C_2  and  C_3
REMARK    3  A    between atoms: C_2  and  N_12
REMARK    4  A    between atoms: C_3  and  O_4
REMARK    5  A    between atoms: C_3  and  C_5
REMARK    6  A    between atoms: C_15  and  C_16
REMARK    7  A    between atoms: C_16  and  C_17
REMARK                            x       y       z     vdW  Elec       q    Type
REMARK                         _______ _______ _______ _____ _____    ______ ____
ROOT
ATOM      1  N   UNL     1       5.780   6.118  17.760  0.00  0.00    +0.000 NA
ATOM      2  C   UNL     1       4.818   6.700  16.799  0.00  0.00    +0.000 C 
ATOM      3  C   UNL     1       3.716   7.513  17.473  0.00  0.00    +0.000 C 
ATOM      4  C   UNL     1       2.926   6.677  18.480  0.00  0.00    +0.000 C 
ATOM      5  C   UNL     1       3.937   6.129  19.492  0.00  0.00    +0.000 C 
ATOM      6  C   UNL     1       5.091   5.366  18.825  0.00  0.00    +0.000 C 
ENDROOT
BRANCH   1   8
ATOM      7  C   UNL     1       7.782   4.700  18.103  0.00  0.00    +0.000 C 
ATOM      8  C   UNL     1       6.832   5.309  17.045  0.00  0.00    +0.000 C 
BRANCH   8   9
ATOM      9  C   UNL     1       6.315   4.143  16.104  0.00  0.00    +0.000 C 
BRANCH   9  10
ATOM     10  C   UNL     1       6.568   4.311  14.610  0.00  0.00    +0.000 A 
ATOM     11  C   UNL     1       7.562   5.213  14.185  0.00  0.00    +0.000 A 
ATOM     12  C   UNL     1       7.857   5.364  12.829  0.00  0.00    +0.000 A 
ATOM     13  C   UNL     1       7.165   4.614  11.888  0.00  0.00    +0.000 A 
ATOM     14  F   UNL     1       7.449   4.758  10.586  0.00  0.00    +0.000 F 
ATOM     15  C   UNL     1       6.191   3.705  12.279  0.00  0.00    +0.000 A 
ATOM     16  C   UNL     1       5.902   3.544  13.636  0.00  0.00    +0.000 A 
ENDBRANCH   9  10
BRANCH   9  17
ATOM     17  O   UNL     1       4.896   3.964  16.187  0.00  0.00    +0.000 OA
ATOM     18  H   UNL     1       4.742   3.044  16.459  0.00  0.00    +0.000 HD
ENDBRANCH   9  17
ENDBRANCH   8   9
ENDBRANCH   1   8
BRANCH   4  19
ATOM     19  C   UNL     1       2.108   5.530  17.840  0.00  0.00    +0.000 C 
BRANCH  19  20
ATOM     20  C   UNL     1       1.862   4.333  18.727  0.00  0.00    +0.000 A 
ATOM     21  C   UNL     1       1.428   4.513  20.049  0.00  0.00    +0.000 A 
ATOM     22  C   UNL     1       1.157   3.414  20.865  0.00  0.00    +0.000 A 
ATOM     23  C   UNL     1       1.318   2.122  20.369  0.00  0.00    +0.000 A 
ATOM     24  C   UNL     1       1.754   1.930  19.060  0.00  0.00    +0.000 A 
ATOM     25  C   UNL     1       2.024   3.030  18.241  0.00  0.00    +0.000 A 
ENDBRANCH  19  20
ENDBRANCH   4  19
TORSDOF 6
ENDMDL
