MODEL 1
REMARK VINA RESULT:      -8.3      0.000      0.000
REMARK  Name = 
REMARK  4 active torsions:
REMARK  status: ('A' for Active; 'I' for Inactive)
REMARK    1  A    between atoms: C_2  and  C_16
REMARK    2  A    between atoms: N_3  and  C_4
REMARK    3  A    between atoms: C_4  and  C_5
REMARK    4  A    between atoms: N_20  and  C_21
REMARK                            x       y       z     vdW  Elec       q    Type
REMARK                         _______ _______ _______ _____ _____    ______ ____
ROOT
ATOM      1  O   UNL     1       3.196   5.804  19.823  0.00  0.00    +0.000 OA
ATOM      2  C   UNL     1       3.182   6.582  18.877  0.00  0.00    +0.000 C 
ATOM      3  N   UNL     1       3.914   6.430  17.723  0.00  0.00    +0.000 N 
ATOM      4  H   UNL     1       3.840   7.185  17.046  0.00  0.00    +0.000 HD
ENDROOT
BRANCH   2   5
ATOM      5  C   UNL     1       2.375   7.804  18.900  0.00  0.00    +0.000 A 
ATOM      6  C   UNL     1       2.334   8.721  17.868  0.00  0.00    +0.000 A 
ATOM      7  S   UNL     1       1.250   9.986  18.248  0.00  0.00    +0.000 S 
ATOM      8  C   UNL     1       0.889   9.222  19.751  0.00  0.00    +0.000 A 
ATOM      9  N   UNL     1      -0.032   9.761  20.580  0.00  0.00    +0.000 N 
ATOM     10  N   UNL     1       1.559   8.114  19.983  0.00  0.00    +0.000 NA
ATOM     11  H   UNL     1      -0.401  10.682  20.377  0.00  0.00    +0.000 HD
BRANCH   9  12
ATOM     12  C   UNL     1      -0.198   9.140  21.883  0.00  0.00    +0.000 C 
ATOM     13  C   UNL     1       0.710   9.474  23.031  0.00  0.00    +0.000 C 
ATOM     14  C   UNL     1      -0.712   9.949  23.043  0.00  0.00    +0.000 C 
ENDBRANCH   9  12
ENDBRANCH   2   5
BRANCH   3  15
ATOM     15  C   UNL     1       4.903   5.353  17.479  0.00  0.00    +0.000 C 
ATOM     16  C   UNL     1       6.214   5.622  18.262  0.00  0.00    +0.000 C 
ATOM     17  C   UNL     1       7.320   4.656  17.860  0.00  0.00    +0.000 C 
ATOM     18  O   UNL     1       7.547   4.700  16.453  0.00  0.00    +0.000 OA
ATOM     19  C   UNL     1       6.397   4.323  15.701  0.00  0.00    +0.000 C 
ATOM     20  C   UNL     1       5.240   5.276  15.969  0.00  0.00    +0.000 C 
BRANCH  15  21
ATOM     21  C   UNL     1       4.291   3.997  17.944  0.00  0.00    +0.000 A 
ATOM     22  N   UNL     1       3.274   3.471  17.227  0.00  0.00    +0.000 NA
ATOM     23  C   UNL     1       2.785   2.281  17.628  0.00  0.00    +0.000 A 
ATOM     24  C   UNL     1       3.246   1.606  18.728  0.00  0.00    +0.000 A 
ATOM     25  C   UNL     1       4.253   2.231  19.421  0.00  0.00    +0.000 A 
ATOM     26  N   UNL     1       4.782   3.417  19.062  0.00  0.00    +0.000 NA
ENDBRANCH  15  21
ENDBRANCH   3  15
TORSDOF 4
ENDMDL
MODEL 2
REMARK VINA RESULT:      -7.8      1.587      3.120
REMARK  Name = 
REMARK  4 active torsions:
REMARK  status: ('A' for Active; 'I' for Inactive)
REMARK    1  A    between atoms: C_2  and  C_16
REMARK    2  A    between atoms: N_3  and  C_4
REMARK    3  A    between atoms: C_4  and  C_5
REMARK    4  A    between atoms: N_20  and  C_21
REMARK                            x       y       z     vdW  Elec       q    Type
REMARK                         _______ _______ _______ _____ _____    ______ ____
ROOT
ATOM      1  O   UNL     1       3.672   7.211  17.281  0.00  0.00    +0.000 OA
ATOM      2  C   UNL     1       2.896   7.250  18.229  0.00  0.00    +0.000 C 
ATOM      3  N   UNL     1       2.621   6.193  19.064  0.00  0.00    +0.000 N 
ATOM      4  H   UNL     1       1.916   6.361  19.777  0.00  0.00    +0.000 HD
ENDROOT
BRANCH   2   5
ATOM      5  C   UNL     1       2.145   8.463  18.556  0.00  0.00    +0.000 A 
ATOM      6  C   UNL     1       2.081   9.575  17.740  0.00  0.00    +0.000 A 
ATOM      7  S   UNL     1       1.077  10.765  18.443  0.00  0.00    +0.000 S 
ATOM      8  C   UNL     1       0.774   9.717  19.778  0.00  0.00    +0.000 A 
ATOM      9  N   UNL     1      -0.071  10.100  20.761  0.00  0.00    +0.000 N 
ATOM     10  N   UNL     1       1.409   8.566  19.732  0.00  0.00    +0.000 NA
ATOM     11  H   UNL     1      -0.412  11.054  20.776  0.00  0.00    +0.000 HD
BRANCH   9  12
ATOM     12  C   UNL     1      -0.186   9.227  21.917  0.00  0.00    +0.000 C 
ATOM     13  C   UNL     1       0.735   9.365  23.095  0.00  0.00    +0.000 C 
ATOM     14  C   UNL     1      -0.704   9.769  23.221  0.00  0.00    +0.000 C 
ENDBRANCH   9  12
ENDBRANCH   2   5
BRANCH   3  15
ATOM     15  C   UNL     1       3.147   4.817  18.895  0.00  0.00    +0.000 C 
ATOM     16  C   UNL     1       2.439   4.100  17.717  0.00  0.00    +0.000 C 
ATOM     17  C   UNL     1       2.798   2.620  17.660  0.00  0.00    +0.000 C 
ATOM     18  O   UNL     1       2.503   1.978  18.898  0.00  0.00    +0.000 OA
ATOM     19  C   UNL     1       3.243   2.525  19.987  0.00  0.00    +0.000 C 
ATOM     20  C   UNL     1       2.903   3.996  20.186  0.00  0.00    +0.000 C 
BRANCH  15  21
ATOM     21  C   UNL     1       4.677   4.896  18.611  0.00  0.00    +0.000 A 
ATOM     22  N   UNL     1       5.130   4.475  17.410  0.00  0.00    +0.000 NA
ATOM     23  C   UNL     1       6.452   4.587  17.175  0.00  0.00    +0.000 A 
ATOM     24  C   UNL     1       7.346   5.074  18.094  0.00  0.00    +0.000 A 
ATOM     25  C   UNL     1       6.805   5.441  19.300  0.00  0.00    +0.000 A 
ATOM     26  N   UNL     1       5.492   5.356  19.587  0.00  0.00    +0.000 NA
ENDBRANCH  15  21
ENDBRANCH   3  15
TORSDOF 4
ENDMDL
MODEL 3
REMARK VINA RESULT:      -7.7      2.282      3.815
REMARK  Name = 
REMARK  4 active torsions:
REMARK  status: ('A' for Active; 'I' for Inactive)
REMARK    1  A    between atoms: C_2  and  C_16
REMARK    2  A    between atoms: N_3  and  C_4
REMARK    3  A    between atoms: C_4  and  C_5
REMARK    4  A    between atoms: N_20  and  C_21
REMARK                            x       y       z     vdW  Elec       q    Type
REMARK                         _______ _______ _______ _____ _____    ______ ____
ROOT
ATOM      1  O   UNL     1       2.351   7.493  17.834  0.00  0.00    +0.000 OA
ATOM      2  C   UNL     1       2.335   7.350  19.050  0.00  0.00    +0.000 C 
ATOM      3  N   UNL     1       2.931   6.312  19.727  0.00  0.00    +0.000 N 
ATOM      4  H   UNL     1       2.790   6.299  20.734  0.00  0.00    +0.000 HD
ENDROOT
BRANCH   2   5
ATOM      5  C   UNL     1       1.634   8.292  19.925  0.00  0.00    +0.000 A 
ATOM      6  C   UNL     1       1.404   8.073  21.268  0.00  0.00    +0.000 A 
ATOM      7  S   UNL     1       0.598   9.414  21.954  0.00  0.00    +0.000 S 
ATOM      8  C   UNL     1       0.625  10.209  20.425  0.00  0.00    +0.000 A 
ATOM      9  N   UNL     1       0.128  11.460  20.304  0.00  0.00    +0.000 N 
ATOM     10  N   UNL     1       1.163   9.511  19.449  0.00  0.00    +0.000 NA
ATOM     11  H   UNL     1      -0.381  11.867  21.079  0.00  0.00    +0.000 HD
BRANCH   9  12
ATOM     12  C   UNL     1       0.066  12.025  18.966  0.00  0.00    +0.000 C 
ATOM     13  C   UNL     1      -1.243  12.215  18.257  0.00  0.00    +0.000 C 
ATOM     14  C   UNL     1      -0.485  13.408  18.757  0.00  0.00    +0.000 C 
ENDBRANCH   9  12
ENDBRANCH   2   5
BRANCH   3  15
ATOM     15  C   UNL     1       3.605   5.156  19.090  0.00  0.00    +0.000 C 
ATOM     16  C   UNL     1       2.878   4.750  17.782  0.00  0.00    +0.000 C 
ATOM     17  C   UNL     1       3.411   3.436  17.225  0.00  0.00    +0.000 C 
ATOM     18  O   UNL     1       3.325   2.399  18.199  0.00  0.00    +0.000 OA
ATOM     19  C   UNL     1       4.097   2.678  19.365  0.00  0.00    +0.000 C 
ATOM     20  C   UNL     1       3.597   3.942  20.052  0.00  0.00    +0.000 C 
BRANCH  15  21
ATOM     21  C   UNL     1       5.077   5.552  18.764  0.00  0.00    +0.000 A 
ATOM     22  N   UNL     1       5.329   6.182  17.596  0.00  0.00    +0.000 NA
ATOM     23  C   UNL     1       6.603   6.546  17.352  0.00  0.00    +0.000 A 
ATOM     24  C   UNL     1       7.642   6.284  18.209  0.00  0.00    +0.000 A 
ATOM     25  C   UNL     1       7.302   5.605  19.352  0.00  0.00    +0.000 A 
ATOM     26  N   UNL     1       6.044   5.222  19.648  0.00  0.00    +0.000 NA
ENDBRANCH  15  21
ENDBRANCH   3  15
TORSDOF 4
ENDMDL
MODEL 4
REMARK VINA RESULT:      -7.5      2.291      3.934
REMARK  Name = 
REMARK  4 active torsions:
REMARK  status: ('A' for Active; 'I' for Inactive)
REMARK    1  A    between atoms: C_2  and  C_16
REMARK    2  A    between atoms: N_3  and  C_4
REMARK    3  A    between atoms: C_4  and  C_5
REMARK    4  A    between atoms: N_20  and  C_21
REMARK                            x       y       z     vdW  Elec       q    Type
REMARK                         _______ _______ _______ _____ _____    ______ ____
ROOT
ATOM      1  O   UNL     1       2.658   7.604  17.968  0.00  0.00    +0.000 OA
ATOM      2  C   UNL     1       2.290   7.331  19.104  0.00  0.00    +0.000 C 
ATOM      3  N   UNL     1       2.434   6.102  19.702  0.00  0.00    +0.000 N 
ATOM      4  H   UNL     1       2.033   6.009  20.632  0.00  0.00    +0.000 HD
ENDROOT
BRANCH   2   5
ATOM      5  C   UNL     1       1.615   8.317  19.950  0.00  0.00    +0.000 A 
ATOM      6  C   UNL     1       1.426   8.167  21.309  0.00  0.00    +0.000 A 
ATOM      7  S   UNL     1       0.639   9.542  21.949  0.00  0.00    +0.000 S 
ATOM      8  C   UNL     1       0.620  10.258  20.381  0.00  0.00    +0.000 A 
ATOM      9  N   UNL     1       0.119  11.501  20.211  0.00  0.00    +0.000 N 
ATOM     10  N   UNL     1       1.129   9.510  19.426  0.00  0.00    +0.000 NA
ATOM     11  H   UNL     1      -0.367  11.948  20.980  0.00  0.00    +0.000 HD
BRANCH   9  12
ATOM     12  C   UNL     1       0.017  11.997  18.849  0.00  0.00    +0.000 C 
ATOM     13  C   UNL     1      -1.299  12.037  18.128  0.00  0.00    +0.000 C 
ATOM     14  C   UNL     1      -0.655  13.315  18.576  0.00  0.00    +0.000 C 
ENDBRANCH   9  12
ENDBRANCH   2   5
BRANCH   3  15
ATOM     15  C   UNL     1       2.972   4.890  19.039  0.00  0.00    +0.000 C 
ATOM     16  C   UNL     1       2.128   4.527  17.790  0.00  0.00    +0.000 C 
ATOM     17  C   UNL     1       2.520   3.170  17.219  0.00  0.00    +0.000 C 
ATOM     18  O   UNL     1       2.423   2.153  18.214  0.00  0.00    +0.000 OA
ATOM     19  C   UNL     1       3.293   2.385  19.320  0.00  0.00    +0.000 C 
ATOM     20  C   UNL     1       2.939   3.691  20.019  0.00  0.00    +0.000 C 
BRANCH  15  21
ATOM     21  C   UNL     1       4.444   5.168  18.607  0.00  0.00    +0.000 A 
ATOM     22  N   UNL     1       5.377   5.329  19.571  0.00  0.00    +0.000 NA
ATOM     23  C   UNL     1       6.648   5.533  19.172  0.00  0.00    +0.000 A 
ATOM     24  C   UNL     1       7.025   5.610  17.856  0.00  0.00    +0.000 A 
ATOM     25  C   UNL     1       6.008   5.475  16.945  0.00  0.00    +0.000 A 
ATOM     26  N   UNL     1       4.722   5.265  17.287  0.00  0.00    +0.000 NA
ENDBRANCH  15  21
ENDBRANCH   3  15
TORSDOF 4
ENDMDL
MODEL 5
REMARK VINA RESULT:      -7.4      1.814      3.404
REMARK  Name = 
REMARK  4 active torsions:
REMARK  status: ('A' for Active; 'I' for Inactive)
REMARK    1  A    between atoms: C_2  and  C_16
REMARK    2  A    between atoms: N_3  and  C_4
REMARK    3  A    between atoms: C_4  and  C_5
REMARK    4  A    between atoms: N_20  and  C_21
REMARK                            x       y       z     vdW  Elec       q    Type
REMARK                         _______ _______ _______ _____ _____    ______ ____
ROOT
ATOM      1  O   UNL     1       2.643   7.253  17.141  0.00  0.00    +0.000 OA
ATOM      2  C   UNL     1       2.350   7.500  18.305  0.00  0.00    +0.000 C 
ATOM      3  N   UNL     1       2.428   6.601  19.343  0.00  0.00    +0.000 N 
ATOM      4  H   UNL     1       2.103   6.935  20.246  0.00  0.00    +0.000 HD
ENDROOT
BRANCH   2   5
ATOM      5  C   UNL     1       1.850   8.815  18.709  0.00  0.00    +0.000 A 
ATOM      6  C   UNL     1       2.093   9.981  18.010  0.00  0.00    +0.000 A 
ATOM      7  S   UNL     1       1.309  11.296  18.769  0.00  0.00    +0.000 S 
ATOM      8  C   UNL     1       0.679  10.228  19.966  0.00  0.00    +0.000 A 
ATOM      9  N   UNL     1      -0.145  10.699  20.927  0.00  0.00    +0.000 N 
ATOM     10  N   UNL     1       1.056   8.974  19.840  0.00  0.00    +0.000 NA
ATOM     11  H   UNL     1      -0.276  11.699  21.020  0.00  0.00    +0.000 HD
BRANCH   9  12
ATOM     12  C   UNL     1      -0.540   9.775  21.977  0.00  0.00    +0.000 C 
ATOM     13  C   UNL     1       0.303   9.578  23.204  0.00  0.00    +0.000 C 
ATOM     14  C   UNL     1      -1.007  10.301  23.306  0.00  0.00    +0.000 C 
ENDBRANCH   9  12
ENDBRANCH   2   5
BRANCH   3  15
ATOM     15  C   UNL     1       2.788   5.169  19.202  0.00  0.00    +0.000 C 
ATOM     16  C   UNL     1       1.888   4.478  18.146  0.00  0.00    +0.000 C 
ATOM     17  C   UNL     1       2.084   2.968  18.139  0.00  0.00    +0.000 C 
ATOM     18  O   UNL     1       1.859   2.421  19.437  0.00  0.00    +0.000 OA
ATOM     19  C   UNL     1       2.764   2.935  20.411  0.00  0.00    +0.000 C 
ATOM     20  C   UNL     1       2.600   4.442  20.557  0.00  0.00    +0.000 C 
BRANCH  15  21
ATOM     21  C   UNL     1       4.279   5.069  18.760  0.00  0.00    +0.000 A 
ATOM     22  N   UNL     1       5.235   5.464  19.629  0.00  0.00    +0.000 NA
ATOM     23  C   UNL     1       6.517   5.334  19.238  0.00  0.00    +0.000 A 
ATOM     24  C   UNL     1       6.889   4.854  18.008  0.00  0.00    +0.000 A 
ATOM     25  C   UNL     1       5.853   4.514  17.174  0.00  0.00    +0.000 A 
ATOM     26  N   UNL     1       4.554   4.619  17.516  0.00  0.00    +0.000 NA
ENDBRANCH  15  21
ENDBRANCH   3  15
TORSDOF 4
ENDMDL
MODEL 6
REMARK VINA RESULT:      -7.4      1.640      2.433
REMARK  Name = 
REMARK  4 active torsions:
REMARK  status: ('A' for Active; 'I' for Inactive)
REMARK    1  A    between atoms: C_2  and  C_16
REMARK    2  A    between atoms: N_3  and  C_4
REMARK    3  A    between atoms: C_4  and  C_5
REMARK    4  A    between atoms: N_20  and  C_21
REMARK                            x       y       z     vdW  Elec       q    Type
REMARK                         _______ _______ _______ _____ _____    ______ ____
ROOT
ATOM      1  O   UNL     1       2.152   5.765  17.717  0.00  0.00    +0.000 OA
ATOM      2  C   UNL     1       2.777   6.421  18.543  0.00  0.00    +0.000 C 
ATOM      3  N   UNL     1       4.134   6.341  18.746  0.00  0.00    +0.000 N 
ATOM      4  H   UNL     1       4.505   6.909  19.503  0.00  0.00    +0.000 HD
ENDROOT
BRANCH   2   5
ATOM      5  C   UNL     1       2.107   7.367  19.437  0.00  0.00    +0.000 A 
ATOM      6  C   UNL     1       1.725   7.068  20.730  0.00  0.00    +0.000 A 
ATOM      7  S   UNL     1       1.015   8.437  21.465  0.00  0.00    +0.000 S 
ATOM      8  C   UNL     1       1.281   9.346  20.025  0.00  0.00    +0.000 A 
ATOM      9  N   UNL     1       0.945  10.654  19.978  0.00  0.00    +0.000 N 
ATOM     10  N   UNL     1       1.827   8.669  19.038  0.00  0.00    +0.000 NA
ATOM     11  H   UNL     1       0.413  11.055  20.741  0.00  0.00    +0.000 HD
BRANCH   9  12
ATOM     12  C   UNL     1       1.077  11.330  18.699  0.00  0.00    +0.000 C 
ATOM     13  C   UNL     1       0.658  12.760  18.523  0.00  0.00    +0.000 C 
ATOM     14  C   UNL     1       2.115  12.404  18.519  0.00  0.00    +0.000 C 
ENDBRANCH   9  12
ENDBRANCH   2   5
BRANCH   3  15
ATOM     15  C   UNL     1       5.041   5.384  18.067  0.00  0.00    +0.000 C 
ATOM     16  C   UNL     1       6.496   5.553  18.573  0.00  0.00    +0.000 C 
ATOM     17  C   UNL     1       7.481   4.742  17.740  0.00  0.00    +0.000 C 
ATOM     18  O   UNL     1       7.379   5.083  16.359  0.00  0.00    +0.000 OA
ATOM     19  C   UNL     1       6.086   4.810  15.823  0.00  0.00    +0.000 C 
ATOM     20  C   UNL     1       5.022   5.633  16.537  0.00  0.00    +0.000 C 
BRANCH  15  21
ATOM     21  C   UNL     1       4.552   3.934  18.364  0.00  0.00    +0.000 A 
ATOM     22  N   UNL     1       4.835   3.396  19.570  0.00  0.00    +0.000 NA
ATOM     23  C   UNL     1       4.372   2.155  19.816  0.00  0.00    +0.000 A 
ATOM     24  C   UNL     1       3.663   1.416  18.904  0.00  0.00    +0.000 A 
ATOM     25  C   UNL     1       3.456   2.024  17.691  0.00  0.00    +0.000 A 
ATOM     26  N   UNL     1       3.892   3.264  17.393  0.00  0.00    +0.000 NA
ENDBRANCH  15  21
ENDBRANCH   3  15
TORSDOF 4
ENDMDL
MODEL 7
REMARK VINA RESULT:      -7.4      1.601      3.108
REMARK  Name = 
REMARK  4 active torsions:
REMARK  status: ('A' for Active; 'I' for Inactive)
REMARK    1  A    between atoms: C_2  and  C_16
REMARK    2  A    between atoms: N_3  and  C_4
REMARK    3  A    between atoms: C_4  and  C_5
REMARK    4  A    between atoms: N_20  and  C_21
REMARK                            x       y       z     vdW  Elec       q    Type
REMARK                         _______ _______ _______ _____ _____    ______ ____
ROOT
ATOM      1  O   UNL     1       2.014   5.726  20.225  0.00  0.00    +0.000 OA
ATOM      2  C   UNL     1       2.360   6.348  19.228  0.00  0.00    +0.000 C 
ATOM      3  N   UNL     1       3.087   5.823  18.187  0.00  0.00    +0.000 N 
ATOM      4  H   UNL     1       3.345   6.475  17.450  0.00  0.00    +0.000 HD
ENDROOT
BRANCH   2   5
ATOM      5  C   UNL     1       2.041   7.767  19.061  0.00  0.00    +0.000 A 
ATOM      6  C   UNL     1       2.543   8.556  18.045  0.00  0.00    +0.000 A 
ATOM      7  S   UNL     1       1.909  10.139  18.161  0.00  0.00    +0.000 S 
ATOM      8  C   UNL     1       0.991   9.668  19.541  0.00  0.00    +0.000 A 
ATOM      9  N   UNL     1       0.158  10.552  20.134  0.00  0.00    +0.000 N 
ATOM     10  N   UNL     1       1.170   8.422  19.925  0.00  0.00    +0.000 NA
ATOM     11  H   UNL     1       0.183  11.523  19.848  0.00  0.00    +0.000 HD
BRANCH   9  12
ATOM     12  C   UNL     1      -0.490  10.132  21.365  0.00  0.00    +0.000 C 
ATOM     13  C   UNL     1       0.274  10.017  22.651  0.00  0.00    +0.000 C 
ATOM     14  C   UNL     1      -0.719  11.125  22.471  0.00  0.00    +0.000 C 
ENDBRANCH   9  12
ENDBRANCH   2   5
BRANCH   3  15
ATOM     15  C   UNL     1       3.646   4.450  18.147  0.00  0.00    +0.000 C 
ATOM     16  C   UNL     1       2.612   3.453  17.563  0.00  0.00    +0.000 C 
ATOM     17  C   UNL     1       3.073   2.009  17.714  0.00  0.00    +0.000 C 
ATOM     18  O   UNL     1       3.359   1.707  19.077  0.00  0.00    +0.000 OA
ATOM     19  C   UNL     1       4.406   2.516  19.609  0.00  0.00    +0.000 C 
ATOM     20  C   UNL     1       4.018   3.988  19.578  0.00  0.00    +0.000 C 
BRANCH  15  21
ATOM     21  C   UNL     1       4.923   4.455  17.253  0.00  0.00    +0.000 A 
ATOM     22  N   UNL     1       6.114   4.707  17.838  0.00  0.00    +0.000 NA
ATOM     23  C   UNL     1       7.208   4.671  17.052  0.00  0.00    +0.000 A 
ATOM     24  C   UNL     1       7.163   4.422  15.704  0.00  0.00    +0.000 A 
ATOM     25  C   UNL     1       5.909   4.217  15.187  0.00  0.00    +0.000 A 
ATOM     26  N   UNL     1       4.783   4.236  15.927  0.00  0.00    +0.000 NA
ENDBRANCH  15  21
ENDBRANCH   3  15
TORSDOF 4
ENDMDL
MODEL 8
REMARK VINA RESULT:      -7.3      1.605      2.985
REMARK  Name = 
REMARK  4 active torsions:
REMARK  status: ('A' for Active; 'I' for Inactive)
REMARK    1  A    between atoms: C_2  and  C_16
REMARK    2  A    between atoms: N_3  and  C_4
REMARK    3  A    between atoms: C_4  and  C_5
REMARK    4  A    between atoms: N_20  and  C_21
REMARK                            x       y       z     vdW  Elec       q    Type
REMARK                         _______ _______ _______ _____ _____    ______ ____
ROOT
ATOM      1  O   UNL     1       1.709   5.460  20.032  0.00  0.00    +0.000 OA
ATOM      2  C   UNL     1       2.241   6.171  19.188  0.00  0.00    +0.000 C 
ATOM      3  N   UNL     1       3.162   5.740  18.264  0.00  0.00    +0.000 N 
ATOM      4  H   UNL     1       3.556   6.456  17.660  0.00  0.00    +0.000 HD
ENDROOT
BRANCH   2   5
ATOM      5  C   UNL     1       1.953   7.604  19.100  0.00  0.00    +0.000 A 
ATOM      6  C   UNL     1       2.111   8.354  17.952  0.00  0.00    +0.000 A 
ATOM      7  S   UNL     1       1.633   9.970  18.233  0.00  0.00    +0.000 S 
ATOM      8  C   UNL     1       1.225   9.564  19.858  0.00  0.00    +0.000 A 
ATOM      9  N   UNL     1       0.691  10.498  20.675  0.00  0.00    +0.000 N 
ATOM     10  N   UNL     1       1.465   8.314  20.192  0.00  0.00    +0.000 NA
ATOM     11  H   UNL     1       0.663  11.464  20.371  0.00  0.00    +0.000 HD
BRANCH   9  12
ATOM     12  C   UNL     1       0.487  10.127  22.066  0.00  0.00    +0.000 C 
ATOM     13  C   UNL     1      -0.684  10.646  22.849  0.00  0.00    +0.000 C 
ATOM     14  C   UNL     1      -0.639   9.203  22.441  0.00  0.00    +0.000 C 
ENDBRANCH   9  12
ENDBRANCH   2   5
BRANCH   3  15
ATOM     15  C   UNL     1       3.727   4.370  18.201  0.00  0.00    +0.000 C 
ATOM     16  C   UNL     1       2.685   3.372  17.632  0.00  0.00    +0.000 C 
ATOM     17  C   UNL     1       3.156   1.930  17.761  0.00  0.00    +0.000 C 
ATOM     18  O   UNL     1       3.473   1.618  19.116  0.00  0.00    +0.000 OA
ATOM     19  C   UNL     1       4.528   2.428  19.631  0.00  0.00    +0.000 C 
ATOM     20  C   UNL     1       4.132   3.899  19.620  0.00  0.00    +0.000 C 
BRANCH  15  21
ATOM     21  C   UNL     1       4.984   4.388  17.280  0.00  0.00    +0.000 A 
ATOM     22  N   UNL     1       4.815   4.163  15.958  0.00  0.00    +0.000 NA
ATOM     23  C   UNL     1       5.912   4.219  15.178  0.00  0.00    +0.000 A 
ATOM     24  C   UNL     1       7.173   4.463  15.659  0.00  0.00    +0.000 A 
ATOM     25  C   UNL     1       7.257   4.641  17.017  0.00  0.00    +0.000 A 
ATOM     26  N   UNL     1       6.194   4.600  17.844  0.00  0.00    +0.000 NA
ENDBRANCH  15  21
ENDBRANCH   3  15
TORSDOF 4
ENDMDL
MODEL 9
REMARK VINA RESULT:      -7.3      3.048      7.532
REMARK  Name = 
REMARK  4 active torsions:
REMARK  status: ('A' for Active; 'I' for Inactive)
REMARK    1  A    between atoms: C_2  and  C_16
REMARK    2  A    between atoms: N_3  and  C_4
REMARK    3  A    between atoms: C_4  and  C_5
REMARK    4  A    between atoms: N_20  and  C_21
REMARK                            x       y       z     vdW  Elec       q    Type
REMARK                         _______ _______ _______ _____ _____    ______ ____
ROOT
ATOM      1  O   UNL     1       2.310   9.437  17.118  0.00  0.00    +0.000 OA
ATOM      2  C   UNL     1       2.150   8.710  18.091  0.00  0.00    +0.000 C 
ATOM      3  N   UNL     1       1.299   8.974  19.138  0.00  0.00    +0.000 N 
ATOM      4  H   UNL     1       1.310   8.303  19.902  0.00  0.00    +0.000 HD
ENDROOT
BRANCH   2   5
ATOM      5  C   UNL     1       2.895   7.459  18.246  0.00  0.00    +0.000 A 
ATOM      6  C   UNL     1       4.002   7.122  17.494  0.00  0.00    +0.000 A 
ATOM      7  S   UNL     1       4.617   5.609  17.996  0.00  0.00    +0.000 S 
ATOM      8  C   UNL     1       3.383   5.509  19.196  0.00  0.00    +0.000 A 
ATOM      9  N   UNL     1       3.349   4.457  20.044  0.00  0.00    +0.000 N 
ATOM     10  N   UNL     1       2.537   6.516  19.204  0.00  0.00    +0.000 NA
ATOM     11  H   UNL     1       3.963   3.668  19.880  0.00  0.00    +0.000 HD
BRANCH   9  12
ATOM     12  C   UNL     1       2.214   4.369  20.948  0.00  0.00    +0.000 C 
ATOM     13  C   UNL     1       0.990   3.575  20.591  0.00  0.00    +0.000 C 
ATOM     14  C   UNL     1       1.917   3.077  21.659  0.00  0.00    +0.000 C 
ENDBRANCH   9  12
ENDBRANCH   2   5
BRANCH   3  15
ATOM     15  C   UNL     1       0.513  10.221  19.301  0.00  0.00    +0.000 C 
ATOM     16  C   UNL     1      -0.684  10.248  18.316  0.00  0.00    +0.000 C 
ATOM     17  C   UNL     1      -1.376  11.605  18.306  0.00  0.00    +0.000 C 
ATOM     18  O   UNL     1      -0.448  12.646  18.010  0.00  0.00    +0.000 OA
ATOM     19  C   UNL     1       0.597  12.740  18.975  0.00  0.00    +0.000 C 
ATOM     20  C   UNL     1       1.409  11.453  19.017  0.00  0.00    +0.000 C 
BRANCH  15  21
ATOM     21  C   UNL     1      -0.018  10.291  20.765  0.00  0.00    +0.000 A 
ATOM     22  N   UNL     1      -0.334  11.501  21.277  0.00  0.00    +0.000 NA
ATOM     23  C   UNL     1      -0.824  11.531  22.531  0.00  0.00    +0.000 A 
ATOM     24  C   UNL     1      -0.986  10.413  23.308  0.00  0.00    +0.000 A 
ATOM     25  C   UNL     1      -0.603   9.232  22.724  0.00  0.00    +0.000 A 
ATOM     26  N   UNL     1      -0.112   9.143  21.472  0.00  0.00    +0.000 NA
ENDBRANCH  15  21
ENDBRANCH   3  15
TORSDOF 4
ENDMDL
