MODEL 1
REMARK VINA RESULT:      -8.3      0.000      0.000
REMARK  Name = 
REMARK  5 active torsions:
REMARK  status: ('A' for Active; 'I' for Inactive)
REMARK    1  A    between atoms: C_1  and  C_2
REMARK    2  A    between atoms: C_7  and  N_8
REMARK    3  A    between atoms: C_9  and  C_11
REMARK    4  A    between atoms: C_22  and  C_23
REMARK    5  A    between atoms: C_25  and  C_26
REMARK                            x       y       z     vdW  Elec       q    Type
REMARK                         _______ _______ _______ _____ _____    ______ ____
ROOT
ATOM      1  C   UNL     1       2.373   7.911  18.630  0.00  0.00    +0.000 A 
ATOM      2  C   UNL     1       3.261   7.574  17.672  0.00  0.00    +0.000 A 
ATOM      3  N   UNL     1       3.808   6.299  17.650  0.00  0.00    +0.000 N 
ATOM      4  C   UNL     1       3.547   5.337  18.613  0.00  0.00    +0.000 A 
ATOM      5  N   UNL     1       4.188   4.215  18.355  0.00  0.00    +0.000 NA
ATOM      6  C   UNL     1       4.853   4.436  17.174  0.00  0.00    +0.000 A 
ATOM      7  C   UNL     1       5.661   3.562  16.434  0.00  0.00    +0.000 A 
ATOM      8  C   UNL     1       6.207   4.010  15.225  0.00  0.00    +0.000 A 
ATOM      9  C   UNL     1       5.959   5.304  14.764  0.00  0.00    +0.000 A 
ATOM     10  C   UNL     1       5.169   6.195  15.496  0.00  0.00    +0.000 A 
ATOM     11  C   UNL     1       4.632   5.727  16.704  0.00  0.00    +0.000 A 
ATOM     12  C   UNL     1       2.670   5.704  19.678  0.00  0.00    +0.000 A 
ATOM     13  C   UNL     1       2.090   6.931  19.711  0.00  0.00    +0.000 A 
ATOM     14  C   UNL     1       1.167   7.350  20.836  0.00  0.00    +0.000 C 
ENDROOT
BRANCH   1  16
ATOM     15  N   UNL     1       0.546   9.385  19.262  0.00  0.00    +0.000 N 
ATOM     16  C   UNL     1       1.758   9.287  18.597  0.00  0.00    +0.000 C 
ATOM     17  O   UNL     1       2.348  10.191  18.018  0.00  0.00    +0.000 OA
ATOM     18  H   UNL     1       0.169   8.550  19.684  0.00  0.00    +0.000 HD
BRANCH  15  25
ATOM     19  C   UNL     1      -1.624   9.927  17.356  0.00  0.00    +0.000 C 
ATOM     20  C   UNL     1      -1.296  10.815  18.525  0.00  0.00    +0.000 A 
ATOM     21  C   UNL     1      -2.082  11.966  18.712  0.00  0.00    +0.000 A 
ATOM     22  C   UNL     1      -1.844  12.836  19.772  0.00  0.00    +0.000 A 
ATOM     23  C   UNL     1      -0.814  12.573  20.662  0.00  0.00    +0.000 A 
ATOM     24  C   UNL     1      -0.020  11.442  20.493  0.00  0.00    +0.000 A 
ATOM     25  C   UNL     1      -0.242  10.550  19.433  0.00  0.00    +0.000 A 
ENDBRANCH  15  25
ENDBRANCH   1  16
BRANCH  12  26
ATOM     26  C   UNL     1       2.443   4.692  20.789  0.00  0.00    +0.000 C 
ATOM     27  N   UNL     1       2.255   3.854  21.711  0.00  0.00    +0.000 NA
ENDBRANCH  12  26
TORSDOF 3
ENDMDL
MODEL 2
REMARK VINA RESULT:      -8.0      0.383      1.341
REMARK  Name = 
REMARK  5 active torsions:
REMARK  status: ('A' for Active; 'I' for Inactive)
REMARK    1  A    between atoms: C_1  and  C_2
REMARK    2  A    between atoms: C_7  and  N_8
REMARK    3  A    between atoms: C_9  and  C_11
REMARK    4  A    between atoms: C_22  and  C_23
REMARK    5  A    between atoms: C_25  and  C_26
REMARK                            x       y       z     vdW  Elec       q    Type
REMARK                         _______ _______ _______ _____ _____    ______ ____
ROOT
ATOM      1  C   UNL     1       2.364   7.825  18.633  0.00  0.00    +0.000 A 
ATOM      2  C   UNL     1       3.256   7.509  17.673  0.00  0.00    +0.000 A 
ATOM      3  N   UNL     1       3.836   6.249  17.651  0.00  0.00    +0.000 N 
ATOM      4  C   UNL     1       3.604   5.282  18.617  0.00  0.00    +0.000 A 
ATOM      5  N   UNL     1       4.273   4.177  18.358  0.00  0.00    +0.000 NA
ATOM      6  C   UNL     1       4.927   4.412  17.175  0.00  0.00    +0.000 A 
ATOM      7  C   UNL     1       5.754   3.557  16.433  0.00  0.00    +0.000 A 
ATOM      8  C   UNL     1       6.284   4.017  15.221  0.00  0.00    +0.000 A 
ATOM      9  C   UNL     1       6.000   5.303  14.758  0.00  0.00    +0.000 A 
ATOM     10  C   UNL     1       5.190   6.175  15.492  0.00  0.00    +0.000 A 
ATOM     11  C   UNL     1       4.670   5.695  16.702  0.00  0.00    +0.000 A 
ATOM     12  C   UNL     1       2.722   5.628  19.685  0.00  0.00    +0.000 A 
ATOM     13  C   UNL     1       2.110   6.840  19.717  0.00  0.00    +0.000 A 
ATOM     14  C   UNL     1       1.181   7.238  20.845  0.00  0.00    +0.000 C 
ENDROOT
BRANCH   1  16
ATOM     15  N   UNL     1       0.420   9.209  19.097  0.00  0.00    +0.000 N 
ATOM     16  C   UNL     1       1.714   9.184  18.600  0.00  0.00    +0.000 C 
ATOM     17  O   UNL     1       2.346  10.139  18.164  0.00  0.00    +0.000 OA
ATOM     18  H   UNL     1       0.018   8.340  19.412  0.00  0.00    +0.000 HD
BRANCH  15  25
ATOM     19  C   UNL     1       0.318  10.614  21.676  0.00  0.00    +0.000 C 
ATOM     20  C   UNL     1      -0.471  11.029  20.465  0.00  0.00    +0.000 A 
ATOM     21  C   UNL     1      -1.299  12.161  20.582  0.00  0.00    +0.000 A 
ATOM     22  C   UNL     1      -2.059  12.611  19.506  0.00  0.00    +0.000 A 
ATOM     23  C   UNL     1      -2.007  11.937  18.295  0.00  0.00    +0.000 A 
ATOM     24  C   UNL     1      -1.198  10.812  18.159  0.00  0.00    +0.000 A 
ATOM     25  C   UNL     1      -0.423  10.341  19.229  0.00  0.00    +0.000 A 
ENDBRANCH  15  25
ENDBRANCH   1  16
BRANCH  12  26
ATOM     26  C   UNL     1       2.526   4.614  20.799  0.00  0.00    +0.000 C 
ATOM     27  N   UNL     1       2.362   3.773  21.724  0.00  0.00    +0.000 NA
ENDBRANCH  12  26
TORSDOF 3
ENDMDL
MODEL 3
REMARK VINA RESULT:      -7.9      2.568      7.777
REMARK  Name = 
REMARK  5 active torsions:
REMARK  status: ('A' for Active; 'I' for Inactive)
REMARK    1  A    between atoms: C_1  and  C_2
REMARK    2  A    between atoms: C_7  and  N_8
REMARK    3  A    between atoms: C_9  and  C_11
REMARK    4  A    between atoms: C_22  and  C_23
REMARK    5  A    between atoms: C_25  and  C_26
REMARK                            x       y       z     vdW  Elec       q    Type
REMARK                         _______ _______ _______ _____ _____    ______ ____
ROOT
ATOM      1  C   UNL     1       3.839   4.509  17.795  0.00  0.00    +0.000 A 
ATOM      2  C   UNL     1       3.368   5.763  17.640  0.00  0.00    +0.000 A 
ATOM      3  N   UNL     1       2.662   6.372  18.668  0.00  0.00    +0.000 N 
ATOM      4  C   UNL     1       2.340   5.737  19.856  0.00  0.00    +0.000 A 
ATOM      5  N   UNL     1       1.671   6.538  20.661  0.00  0.00    +0.000 NA
ATOM      6  C   UNL     1       1.587   7.737  19.999  0.00  0.00    +0.000 A 
ATOM      7  C   UNL     1       1.007   8.943  20.416  0.00  0.00    +0.000 A 
ATOM      8  C   UNL     1       1.082  10.056  19.570  0.00  0.00    +0.000 A 
ATOM      9  C   UNL     1       1.718   9.970  18.330  0.00  0.00    +0.000 A 
ATOM     10  C   UNL     1       2.289   8.772  17.890  0.00  0.00    +0.000 A 
ATOM     11  C   UNL     1       2.203   7.670  18.753  0.00  0.00    +0.000 A 
ATOM     12  C   UNL     1       2.762   4.381  20.005  0.00  0.00    +0.000 A 
ATOM     13  C   UNL     1       3.486   3.767  19.034  0.00  0.00    +0.000 A 
ATOM     14  C   UNL     1       3.935   2.327  19.161  0.00  0.00    +0.000 C 
ENDROOT
BRANCH   1  16
ATOM     15  N   UNL     1       4.803   4.713  15.573  0.00  0.00    +0.000 N 
ATOM     16  C   UNL     1       4.646   3.894  16.681  0.00  0.00    +0.000 C 
ATOM     17  O   UNL     1       5.098   2.765  16.823  0.00  0.00    +0.000 OA
ATOM     18  H   UNL     1       4.361   5.619  15.588  0.00  0.00    +0.000 HD
BRANCH  15  25
ATOM     19  C   UNL     1       7.567   5.683  15.350  0.00  0.00    +0.000 C 
ATOM     20  C   UNL     1       6.874   4.881  14.284  0.00  0.00    +0.000 A 
ATOM     21  C   UNL     1       7.601   4.577  13.119  0.00  0.00    +0.000 A 
ATOM     22  C   UNL     1       7.031   3.837  12.087  0.00  0.00    +0.000 A 
ATOM     23  C   UNL     1       5.723   3.389  12.201  0.00  0.00    +0.000 A 
ATOM     24  C   UNL     1       4.984   3.681  13.344  0.00  0.00    +0.000 A 
ATOM     25  C   UNL     1       5.538   4.425  14.396  0.00  0.00    +0.000 A 
ENDBRANCH  15  25
ENDBRANCH   1  16
BRANCH  12  26
ATOM     26  C   UNL     1       2.341   3.642  21.264  0.00  0.00    +0.000 C 
ATOM     27  N   UNL     1       1.992   3.029  22.309  0.00  0.00    +0.000 NA
ENDBRANCH  12  26
TORSDOF 3
ENDMDL
MODEL 4
REMARK VINA RESULT:      -7.8      1.441      1.723
REMARK  Name = 
REMARK  5 active torsions:
REMARK  status: ('A' for Active; 'I' for Inactive)
REMARK    1  A    between atoms: C_1  and  C_2
REMARK    2  A    between atoms: C_7  and  N_8
REMARK    3  A    between atoms: C_9  and  C_11
REMARK    4  A    between atoms: C_22  and  C_23
REMARK    5  A    between atoms: C_25  and  C_26
REMARK                            x       y       z     vdW  Elec       q    Type
REMARK                         _______ _______ _______ _____ _____    ______ ____
ROOT
ATOM      1  C   UNL     1       2.169   7.693  19.081  0.00  0.00    +0.000 A 
ATOM      2  C   UNL     1       3.069   7.468  18.102  0.00  0.00    +0.000 A 
ATOM      3  N   UNL     1       3.675   6.225  17.988  0.00  0.00    +0.000 N 
ATOM      4  C   UNL     1       3.463   5.186  18.879  0.00  0.00    +0.000 A 
ATOM      5  N   UNL     1       4.155   4.116  18.541  0.00  0.00    +0.000 NA
ATOM      6  C   UNL     1       4.806   4.452  17.380  0.00  0.00    +0.000 A 
ATOM      7  C   UNL     1       5.652   3.673  16.579  0.00  0.00    +0.000 A 
ATOM      8  C   UNL     1       6.172   4.232  15.406  0.00  0.00    +0.000 A 
ATOM      9  C   UNL     1       5.862   5.542  15.039  0.00  0.00    +0.000 A 
ATOM     10  C   UNL     1       5.033   6.340  15.833  0.00  0.00    +0.000 A 
ATOM     11  C   UNL     1       4.522   5.762  17.004  0.00  0.00    +0.000 A 
ATOM     12  C   UNL     1       2.573   5.433  19.968  0.00  0.00    +0.000 A 
ATOM     13  C   UNL     1       1.935   6.626  20.088  0.00  0.00    +0.000 A 
ATOM     14  C   UNL     1       0.997   6.919  21.240  0.00  0.00    +0.000 C 
ENDROOT
BRANCH   1  16
ATOM     15  N   UNL     1       1.364   9.549  20.429  0.00  0.00    +0.000 N 
ATOM     16  C   UNL     1       1.490   9.037  19.147  0.00  0.00    +0.000 C 
ATOM     17  O   UNL     1       1.117   9.570  18.109  0.00  0.00    +0.000 OA
ATOM     18  H   UNL     1       1.705   8.992  21.196  0.00  0.00    +0.000 HD
BRANCH  15  25
ATOM     19  C   UNL     1      -0.523   9.660  22.678  0.00  0.00    +0.000 C 
ATOM     20  C   UNL     1      -0.094  10.864  21.886  0.00  0.00    +0.000 A 
ATOM     21  C   UNL     1      -0.628  12.112  22.255  0.00  0.00    +0.000 A 
ATOM     22  C   UNL     1      -0.279  13.274  21.573  0.00  0.00    +0.000 A 
ATOM     23  C   UNL     1       0.609  13.210  20.509  0.00  0.00    +0.000 A 
ATOM     24  C   UNL     1       1.146  11.984  20.124  0.00  0.00    +0.000 A 
ATOM     25  C   UNL     1       0.809  10.800  20.798  0.00  0.00    +0.000 A 
ENDBRANCH  15  25
ENDBRANCH   1  16
BRANCH  12  26
ATOM     26  C   UNL     1       2.397   4.334  21.003  0.00  0.00    +0.000 C 
ATOM     27  N   UNL     1       2.250   3.423  21.861  0.00  0.00    +0.000 NA
ENDBRANCH  12  26
TORSDOF 3
ENDMDL
MODEL 5
REMARK VINA RESULT:      -7.7      1.453      1.881
REMARK  Name = 
REMARK  5 active torsions:
REMARK  status: ('A' for Active; 'I' for Inactive)
REMARK    1  A    between atoms: C_1  and  C_2
REMARK    2  A    between atoms: C_7  and  N_8
REMARK    3  A    between atoms: C_9  and  C_11
REMARK    4  A    between atoms: C_22  and  C_23
REMARK    5  A    between atoms: C_25  and  C_26
REMARK                            x       y       z     vdW  Elec       q    Type
REMARK                         _______ _______ _______ _____ _____    ______ ____
ROOT
ATOM      1  C   UNL     1       2.244   7.995  18.519  0.00  0.00    +0.000 A 
ATOM      2  C   UNL     1       3.167   7.666  17.593  0.00  0.00    +0.000 A 
ATOM      3  N   UNL     1       3.784   6.424  17.639  0.00  0.00    +0.000 N 
ATOM      4  C   UNL     1       3.557   5.493  18.641  0.00  0.00    +0.000 A 
ATOM      5  N   UNL     1       4.265   4.398  18.445  0.00  0.00    +0.000 NA
ATOM      6  C   UNL     1       4.940   4.602  17.268  0.00  0.00    +0.000 A 
ATOM      7  C   UNL     1       5.809   3.742  16.582  0.00  0.00    +0.000 A 
ATOM      8  C   UNL     1       6.353   4.165  15.363  0.00  0.00    +0.000 A 
ATOM      9  C   UNL     1       6.043   5.421  14.839  0.00  0.00    +0.000 A 
ATOM     10  C   UNL     1       5.191   6.299  15.516  0.00  0.00    +0.000 A 
ATOM     11  C   UNL     1       4.657   5.856  16.734  0.00  0.00    +0.000 A 
ATOM     12  C   UNL     1       2.642   5.857  19.673  0.00  0.00    +0.000 A 
ATOM     13  C   UNL     1       1.994   7.051  19.639  0.00  0.00    +0.000 A 
ATOM     14  C   UNL     1       1.027   7.468  20.728  0.00  0.00    +0.000 C 
ENDROOT
BRANCH   1  16
ATOM     15  N   UNL     1       2.203  10.361  19.077  0.00  0.00    +0.000 N 
ATOM     16  C   UNL     1       1.555   9.331  18.413  0.00  0.00    +0.000 C 
ATOM     17  O   UNL     1       0.517   9.419  17.767  0.00  0.00    +0.000 OA
ATOM     18  H   UNL     1       3.047  10.140  19.583  0.00  0.00    +0.000 HD
BRANCH  15  25
ATOM     19  C   UNL     1       0.223  11.215  21.074  0.00  0.00    +0.000 C 
ATOM     20  C   UNL     1       0.872  12.146  20.087  0.00  0.00    +0.000 A 
ATOM     21  C   UNL     1       0.507  13.504  20.134  0.00  0.00    +0.000 A 
ATOM     22  C   UNL     1       1.064  14.430  19.257  0.00  0.00    +0.000 A 
ATOM     23  C   UNL     1       1.994  14.015  18.314  0.00  0.00    +0.000 A 
ATOM     24  C   UNL     1       2.366  12.674  18.247  0.00  0.00    +0.000 A 
ATOM     25  C   UNL     1       1.818  11.724  19.122  0.00  0.00    +0.000 A 
ENDBRANCH  15  25
ENDBRANCH   1  16
BRANCH  12  26
ATOM     26  C   UNL     1       2.448   4.886  20.825  0.00  0.00    +0.000 C 
ATOM     27  N   UNL     1       2.288   4.079  21.780  0.00  0.00    +0.000 NA
ENDBRANCH  12  26
TORSDOF 3
ENDMDL
MODEL 6
REMARK VINA RESULT:      -7.6      1.316      1.343
REMARK  Name = 
REMARK  5 active torsions:
REMARK  status: ('A' for Active; 'I' for Inactive)
REMARK    1  A    between atoms: C_1  and  C_2
REMARK    2  A    between atoms: C_7  and  N_8
REMARK    3  A    between atoms: C_9  and  C_11
REMARK    4  A    between atoms: C_22  and  C_23
REMARK    5  A    between atoms: C_25  and  C_26
REMARK                            x       y       z     vdW  Elec       q    Type
REMARK                         _______ _______ _______ _____ _____    ______ ____
ROOT
ATOM      1  C   UNL     1       2.376   7.226  19.150  0.00  0.00    +0.000 A 
ATOM      2  C   UNL     1       3.280   7.139  18.152  0.00  0.00    +0.000 A 
ATOM      3  N   UNL     1       3.790   5.902  17.784  0.00  0.00    +0.000 N 
ATOM      4  C   UNL     1       3.475   4.719  18.434  0.00  0.00    +0.000 A 
ATOM      5  N   UNL     1       4.090   3.692  17.884  0.00  0.00    +0.000 NA
ATOM      6  C   UNL     1       4.793   4.209  16.825  0.00  0.00    +0.000 A 
ATOM      7  C   UNL     1       5.595   3.548  15.884  0.00  0.00    +0.000 A 
ATOM      8  C   UNL     1       6.187   4.296  14.858  0.00  0.00    +0.000 A 
ATOM      9  C   UNL     1       5.989   5.676  14.774  0.00  0.00    +0.000 A 
ATOM     10  C   UNL     1       5.205   6.354  15.711  0.00  0.00    +0.000 A 
ATOM     11  C   UNL     1       4.622   5.587  16.730  0.00  0.00    +0.000 A 
ATOM     12  C   UNL     1       2.581   4.805  19.543  0.00  0.00    +0.000 A 
ATOM     13  C   UNL     1       2.035   5.994  19.907  0.00  0.00    +0.000 A 
ATOM     14  C   UNL     1       1.095   6.115  21.088  0.00  0.00    +0.000 C 
ENDROOT
BRANCH   1  16
ATOM     15  N   UNL     1       1.509   9.366  18.391  0.00  0.00    +0.000 N 
ATOM     16  C   UNL     1       1.803   8.577  19.492  0.00  0.00    +0.000 C 
ATOM     17  O   UNL     1       1.634   8.874  20.668  0.00  0.00    +0.000 OA
ATOM     18  H   UNL     1       1.715   8.997  17.476  0.00  0.00    +0.000 HD
BRANCH  15  25
ATOM     19  C   UNL     1      -1.377   9.632  17.909  0.00  0.00    +0.000 C 
ATOM     20  C   UNL     1      -0.463  10.796  18.176  0.00  0.00    +0.000 A 
ATOM     21  C   UNL     1      -1.033  12.082  18.200  0.00  0.00    +0.000 A 
ATOM     22  C   UNL     1      -0.255  13.210  18.443  0.00  0.00    +0.000 A 
ATOM     23  C   UNL     1       1.108  13.073  18.663  0.00  0.00    +0.000 A 
ATOM     24  C   UNL     1       1.694  11.810  18.639  0.00  0.00    +0.000 A 
ATOM     25  C   UNL     1       0.928  10.659  18.398  0.00  0.00    +0.000 A 
ENDBRANCH  15  25
ENDBRANCH   1  16
BRANCH  12  26
ATOM     26  C   UNL     1       2.294   3.532  20.323  0.00  0.00    +0.000 C 
ATOM     27  N   UNL     1       2.056   2.476  20.968  0.00  0.00    +0.000 NA
ENDBRANCH  12  26
TORSDOF 3
ENDMDL
MODEL 7
REMARK VINA RESULT:      -7.5      2.407      7.733
REMARK  Name = 
REMARK  5 active torsions:
REMARK  status: ('A' for Active; 'I' for Inactive)
REMARK    1  A    between atoms: C_1  and  C_2
REMARK    2  A    between atoms: C_7  and  N_8
REMARK    3  A    between atoms: C_9  and  C_11
REMARK    4  A    between atoms: C_22  and  C_23
REMARK    5  A    between atoms: C_25  and  C_26
REMARK                            x       y       z     vdW  Elec       q    Type
REMARK                         _______ _______ _______ _____ _____    ______ ____
ROOT
ATOM      1  C   UNL     1       1.754   9.156  19.003  0.00  0.00    +0.000 A 
ATOM      2  C   UNL     1       1.845  10.423  18.551  0.00  0.00    +0.000 A 
ATOM      3  N   UNL     1       1.590  11.486  19.406  0.00  0.00    +0.000 N 
ATOM      4  C   UNL     1       1.170  11.330  20.717  0.00  0.00    +0.000 A 
ATOM      5  N   UNL     1       1.003  12.496  21.308  0.00  0.00    +0.000 NA
ATOM      6  C   UNL     1       1.360  13.435  20.374  0.00  0.00    +0.000 A 
ATOM      7  C   UNL     1       1.399  14.832  20.489  0.00  0.00    +0.000 A 
ATOM      8  C   UNL     1       1.840  15.587  19.395  0.00  0.00    +0.000 A 
ATOM      9  C   UNL     1       2.229  14.965  18.208  0.00  0.00    +0.000 A 
ATOM     10  C   UNL     1       2.182  13.575  18.069  0.00  0.00    +0.000 A 
ATOM     11  C   UNL     1       1.738  12.838  19.175  0.00  0.00    +0.000 A 
ATOM     12  C   UNL     1       0.991   9.994  21.189  0.00  0.00    +0.000 A 
ATOM     13  C   UNL     1       1.267   8.931  20.390  0.00  0.00    +0.000 A 
ATOM     14  C   UNL     1       1.074   7.505  20.860  0.00  0.00    +0.000 C 
ENDROOT
BRANCH   1  16
ATOM     15  N   UNL     1       3.383   7.548  18.185  0.00  0.00    +0.000 N 
ATOM     16  C   UNL     1       2.087   8.025  18.065  0.00  0.00    +0.000 C 
ATOM     17  O   UNL     1       1.226   7.613  17.296  0.00  0.00    +0.000 OA
ATOM     18  H   UNL     1       3.991   7.995  18.854  0.00  0.00    +0.000 HD
BRANCH  15  25
ATOM     19  C   UNL     1       2.678   4.794  18.928  0.00  0.00    +0.000 C 
ATOM     20  C   UNL     1       3.627   5.144  17.814  0.00  0.00    +0.000 A 
ATOM     21  C   UNL     1       4.200   4.084  17.088  0.00  0.00    +0.000 A 
ATOM     22  C   UNL     1       5.084   4.325  16.041  0.00  0.00    +0.000 A 
ATOM     23  C   UNL     1       5.415   5.629  15.702  0.00  0.00    +0.000 A 
ATOM     24  C   UNL     1       4.862   6.693  16.411  0.00  0.00    +0.000 A 
ATOM     25  C   UNL     1       3.967   6.474  17.469  0.00  0.00    +0.000 A 
ENDBRANCH  15  25
ENDBRANCH   1  16
BRANCH  12  26
ATOM     26  C   UNL     1       0.447   9.806  22.595  0.00  0.00    +0.000 C 
ATOM     27  N   UNL     1      -0.006   9.649  23.761  0.00  0.00    +0.000 NA
ENDBRANCH  12  26
TORSDOF 3
ENDMDL
MODEL 8
REMARK VINA RESULT:      -7.5      1.568      1.964
REMARK  Name = 
REMARK  5 active torsions:
REMARK  status: ('A' for Active; 'I' for Inactive)
REMARK    1  A    between atoms: C_1  and  C_2
REMARK    2  A    between atoms: C_7  and  N_8
REMARK    3  A    between atoms: C_9  and  C_11
REMARK    4  A    between atoms: C_22  and  C_23
REMARK    5  A    between atoms: C_25  and  C_26
REMARK                            x       y       z     vdW  Elec       q    Type
REMARK                         _______ _______ _______ _____ _____    ______ ____
ROOT
ATOM      1  C   UNL     1       2.483   6.567  19.122  0.00  0.00    +0.000 A 
ATOM      2  C   UNL     1       3.499   6.662  18.240  0.00  0.00    +0.000 A 
ATOM      3  N   UNL     1       3.989   5.521  17.620  0.00  0.00    +0.000 N 
ATOM      4  C   UNL     1       3.537   4.242  17.902  0.00  0.00    +0.000 A 
ATOM      5  N   UNL     1       4.165   3.341  17.173  0.00  0.00    +0.000 NA
ATOM      6  C   UNL     1       5.020   4.051  16.368  0.00  0.00    +0.000 A 
ATOM      7  C   UNL     1       5.900   3.587  15.380  0.00  0.00    +0.000 A 
ATOM      8  C   UNL     1       6.651   4.520  14.655  0.00  0.00    +0.000 A 
ATOM      9  C   UNL     1       6.533   5.887  14.911  0.00  0.00    +0.000 A 
ATOM     10  C   UNL     1       5.673   6.367  15.902  0.00  0.00    +0.000 A 
ATOM     11  C   UNL     1       4.930   5.417  16.617  0.00  0.00    +0.000 A 
ATOM     12  C   UNL     1       2.517   4.116  18.892  0.00  0.00    +0.000 A 
ATOM     13  C   UNL     1       1.989   5.215  19.492  0.00  0.00    +0.000 A 
ATOM     14  C   UNL     1       0.916   5.108  20.554  0.00  0.00    +0.000 C 
ENDROOT
BRANCH   1  16
ATOM     15  N   UNL     1       1.362   8.704  18.833  0.00  0.00    +0.000 N 
ATOM     16  C   UNL     1       1.939   7.829  19.740  0.00  0.00    +0.000 C 
ATOM     17  O   UNL     1       2.030   7.989  20.951  0.00  0.00    +0.000 OA
ATOM     18  H   UNL     1       1.369   8.447  17.857  0.00  0.00    +0.000 HD
BRANCH  15  25
ATOM     19  C   UNL     1       2.581  11.182  17.828  0.00  0.00    +0.000 C 
ATOM     20  C   UNL     1       1.311  11.140  18.633  0.00  0.00    +0.000 A 
ATOM     21  C   UNL     1       0.674  12.364  18.911  0.00  0.00    +0.000 A 
ATOM     22  C   UNL     1      -0.506  12.410  19.647  0.00  0.00    +0.000 A 
ATOM     23  C   UNL     1      -1.069  11.234  20.122  0.00  0.00    +0.000 A 
ATOM     24  C   UNL     1      -0.454  10.013  19.862  0.00  0.00    +0.000 A 
ATOM     25  C   UNL     1       0.736   9.942  19.121  0.00  0.00    +0.000 A 
ENDBRANCH  15  25
ENDBRANCH   1  16
BRANCH  12  26
ATOM     26  C   UNL     1       2.072   2.715  19.278  0.00  0.00    +0.000 C 
ATOM     27  N   UNL     1       1.705   1.553  19.598  0.00  0.00    +0.000 NA
ENDBRANCH  12  26
TORSDOF 3
ENDMDL
MODEL 9
REMARK VINA RESULT:      -7.5      1.983      2.689
REMARK  Name = 
REMARK  5 active torsions:
REMARK  status: ('A' for Active; 'I' for Inactive)
REMARK    1  A    between atoms: C_1  and  C_2
REMARK    2  A    between atoms: C_7  and  N_8
REMARK    3  A    between atoms: C_9  and  C_11
REMARK    4  A    between atoms: C_22  and  C_23
REMARK    5  A    between atoms: C_25  and  C_26
REMARK                            x       y       z     vdW  Elec       q    Type
REMARK                         _______ _______ _______ _____ _____    ______ ____
ROOT
ATOM      1  C   UNL     1       2.619   5.601  19.839  0.00  0.00    +0.000 A 
ATOM      2  C   UNL     1       3.255   6.031  18.730  0.00  0.00    +0.000 A 
ATOM      3  N   UNL     1       4.235   5.243  18.143  0.00  0.00    +0.000 N 
ATOM      4  C   UNL     1       4.665   4.036  18.671  0.00  0.00    +0.000 A 
ATOM      5  N   UNL     1       5.599   3.490  17.918  0.00  0.00    +0.000 NA
ATOM      6  C   UNL     1       5.755   4.341  16.852  0.00  0.00    +0.000 A 
ATOM      7  C   UNL     1       6.598   4.223  15.738  0.00  0.00    +0.000 A 
ATOM      8  C   UNL     1       6.552   5.214  14.750  0.00  0.00    +0.000 A 
ATOM      9  C   UNL     1       5.687   6.304  14.870  0.00  0.00    +0.000 A 
ATOM     10  C   UNL     1       4.851   6.446  15.981  0.00  0.00    +0.000 A 
ATOM     11  C   UNL     1       4.913   5.443  16.959  0.00  0.00    +0.000 A 
ATOM     12  C   UNL     1       4.058   3.604  19.888  0.00  0.00    +0.000 A 
ATOM     13  C   UNL     1       3.070   4.333  20.470  0.00  0.00    +0.000 A 
ATOM     14  C   UNL     1       2.418   3.905  21.768  0.00  0.00    +0.000 C 
ENDROOT
BRANCH   1  16
ATOM     15  N   UNL     1       1.871   7.788  20.593  0.00  0.00    +0.000 N 
ATOM     16  C   UNL     1       1.524   6.456  20.424  0.00  0.00    +0.000 C 
ATOM     17  O   UNL     1       0.445   5.944  20.693  0.00  0.00    +0.000 OA
ATOM     18  H   UNL     1       2.805   8.069  20.340  0.00  0.00    +0.000 HD
BRANCH  15  25
ATOM     19  C   UNL     1       0.837   9.785  18.702  0.00  0.00    +0.000 C 
ATOM     20  C   UNL     1       0.533   9.792  20.175  0.00  0.00    +0.000 A 
ATOM     21  C   UNL     1      -0.300  10.814  20.665  0.00  0.00    +0.000 A 
ATOM     22  C   UNL     1      -0.630  10.887  22.015  0.00  0.00    +0.000 A 
ATOM     23  C   UNL     1      -0.132   9.942  22.900  0.00  0.00    +0.000 A 
ATOM     24  C   UNL     1       0.698   8.925  22.437  0.00  0.00    +0.000 A 
ATOM     25  C   UNL     1       1.043   8.830  21.080  0.00  0.00    +0.000 A 
ENDBRANCH  15  25
ENDBRANCH   1  16
BRANCH  12  26
ATOM     26  C   UNL     1       4.579   2.328  20.527  0.00  0.00    +0.000 C 
ATOM     27  N   UNL     1       5.012   1.269  21.056  0.00  0.00    +0.000 NA
ENDBRANCH  12  26
TORSDOF 3
ENDMDL
