MODEL 1
REMARK VINA RESULT:      -8.2      0.000      0.000
REMARK  Name = 
REMARK  4 active torsions:
REMARK  status: ('A' for Active; 'I' for Inactive)
REMARK    1  A    between atoms: C_7  and  N_8
REMARK    2  A    between atoms: N_8  and  S_9
REMARK    3  A    between atoms: S_9  and  C_12
REMARK    4  A    between atoms: N_22  and  O_23
REMARK                            x       y       z     vdW  Elec       q    Type
REMARK                         _______ _______ _______ _____ _____    ______ ____
ROOT
ATOM      1  O   UNL     1       0.858   8.578  21.740  0.00  0.00    +0.000 OA
ATOM      2  C   UNL     1       1.445   8.133  20.753  0.00  0.00    +0.000 A 
ATOM      3  N   UNL     1       2.031   6.890  20.824  0.00  0.00    +0.000 N 
ATOM      4  C   UNL     1       2.680   6.278  19.749  0.00  0.00    +0.000 A 
ATOM      5  C   UNL     1       3.194   4.993  19.899  0.00  0.00    +0.000 A 
ATOM      6  C   UNL     1       3.804   4.366  18.809  0.00  0.00    +0.000 A 
ATOM      7  C   UNL     1       3.919   5.027  17.582  0.00  0.00    +0.000 A 
ATOM      8  C   UNL     1       3.430   6.325  17.436  0.00  0.00    +0.000 A 
ATOM      9  C   UNL     1       2.794   6.939  18.524  0.00  0.00    +0.000 A 
ATOM     10  C   UNL     1       2.183   8.278  18.393  0.00  0.00    +0.000 A 
ATOM     11  O   UNL     1       2.197   8.887  17.324  0.00  0.00    +0.000 OA
ATOM     12  N   UNL     1       1.571   8.769  19.531  0.00  0.00    +0.000 N 
ATOM     13  H   UNL     1       1.939   6.421  21.719  0.00  0.00    +0.000 HD
ENDROOT
BRANCH   7  14
ATOM     14  N   UNL     1       4.520   4.339  16.495  0.00  0.00    +0.000 N 
ATOM     15  H   UNL     1       3.907   3.845  15.845  0.00  0.00    +0.000 HD
BRANCH  14  16
ATOM     16  S   UNL     1       5.817   5.049  15.676  0.00  0.00    +0.000 S 
ATOM     17  O   UNL     1       6.572   3.953  15.104  0.00  0.00    +0.000 OA
ATOM     18  O   UNL     1       5.314   6.120  14.846  0.00  0.00    +0.000 OA
BRANCH  16  19
ATOM     19  C   UNL     1       6.788   5.752  16.987  0.00  0.00    +0.000 A 
ATOM     20  C   UNL     1       7.290   4.943  18.009  0.00  0.00    +0.000 A 
ATOM     21  C   UNL     1       8.040   5.523  19.034  0.00  0.00    +0.000 A 
ATOM     22  C   UNL     1       8.289   6.897  19.028  0.00  0.00    +0.000 A 
ATOM     23  C   UNL     1       7.811   7.696  17.988  0.00  0.00    +0.000 A 
ATOM     24  C   UNL     1       7.069   7.122  16.957  0.00  0.00    +0.000 A 
ENDBRANCH  16  19
ENDBRANCH  14  16
ENDBRANCH   7  14
BRANCH  12  25
ATOM     25  O   UNL     1       0.929  10.020  19.394  0.00  0.00    +0.000 OA
ATOM     26  H   UNL     1       1.680  10.641  19.482  0.00  0.00    +0.000 HD
ENDBRANCH  12  25
TORSDOF 4
ENDMDL
MODEL 2
REMARK VINA RESULT:      -8.1      0.058      1.013
REMARK  Name = 
REMARK  4 active torsions:
REMARK  status: ('A' for Active; 'I' for Inactive)
REMARK    1  A    between atoms: C_7  and  N_8
REMARK    2  A    between atoms: N_8  and  S_9
REMARK    3  A    between atoms: S_9  and  C_12
REMARK    4  A    between atoms: N_22  and  O_23
REMARK                            x       y       z     vdW  Elec       q    Type
REMARK                         _______ _______ _______ _____ _____    ______ ____
ROOT
ATOM      1  O   UNL     1       0.895   8.606  21.739  0.00  0.00    +0.000 OA
ATOM      2  C   UNL     1       1.472   8.157  20.750  0.00  0.00    +0.000 A 
ATOM      3  N   UNL     1       2.046   6.907  20.817  0.00  0.00    +0.000 N 
ATOM      4  C   UNL     1       2.684   6.290  19.739  0.00  0.00    +0.000 A 
ATOM      5  C   UNL     1       3.184   4.999  19.885  0.00  0.00    +0.000 A 
ATOM      6  C   UNL     1       3.783   4.366  18.792  0.00  0.00    +0.000 A 
ATOM      7  C   UNL     1       3.900   5.028  17.566  0.00  0.00    +0.000 A 
ATOM      8  C   UNL     1       3.425   6.331  17.423  0.00  0.00    +0.000 A 
ATOM      9  C   UNL     1       2.800   6.951  18.514  0.00  0.00    +0.000 A 
ATOM     10  C   UNL     1       2.203   8.296  18.387  0.00  0.00    +0.000 A 
ATOM     11  O   UNL     1       2.219   8.906  17.319  0.00  0.00    +0.000 OA
ATOM     12  N   UNL     1       1.600   8.792  19.528  0.00  0.00    +0.000 N 
ATOM     13  H   UNL     1       1.952   6.438  21.712  0.00  0.00    +0.000 HD
ENDROOT
BRANCH   7  14
ATOM     14  N   UNL     1       4.490   4.334  16.475  0.00  0.00    +0.000 N 
ATOM     15  H   UNL     1       3.869   3.847  15.827  0.00  0.00    +0.000 HD
BRANCH  14  16
ATOM     16  S   UNL     1       5.791   5.031  15.651  0.00  0.00    +0.000 S 
ATOM     17  O   UNL     1       6.533   3.928  15.077  0.00  0.00    +0.000 OA
ATOM     18  O   UNL     1       5.296   6.107  14.823  0.00  0.00    +0.000 OA
BRANCH  16  19
ATOM     19  C   UNL     1       6.773   5.724  16.959  0.00  0.00    +0.000 A 
ATOM     20  C   UNL     1       7.038   7.095  16.995  0.00  0.00    +0.000 A 
ATOM     21  C   UNL     1       7.823   7.612  18.028  0.00  0.00    +0.000 A 
ATOM     22  C   UNL     1       8.329   6.764  19.016  0.00  0.00    +0.000 A 
ATOM     23  C   UNL     1       8.036   5.401  18.991  0.00  0.00    +0.000 A 
ATOM     24  C   UNL     1       7.246   4.878  17.968  0.00  0.00    +0.000 A 
ENDBRANCH  16  19
ENDBRANCH  14  16
ENDBRANCH   7  14
BRANCH  12  25
ATOM     25  O   UNL     1       0.972  10.050  19.394  0.00  0.00    +0.000 OA
ATOM     26  H   UNL     1       1.503  10.466  18.685  0.00  0.00    +0.000 HD
ENDBRANCH  12  25
TORSDOF 4
ENDMDL
MODEL 3
REMARK VINA RESULT:      -7.9      2.252      3.092
REMARK  Name = 
REMARK  4 active torsions:
REMARK  status: ('A' for Active; 'I' for Inactive)
REMARK    1  A    between atoms: C_7  and  N_8
REMARK    2  A    between atoms: N_8  and  S_9
REMARK    3  A    between atoms: S_9  and  C_12
REMARK    4  A    between atoms: N_22  and  O_23
REMARK                            x       y       z     vdW  Elec       q    Type
REMARK                         _______ _______ _______ _____ _____    ______ ____
ROOT
ATOM      1  O   UNL     1       0.504   8.893  21.689  0.00  0.00    +0.000 OA
ATOM      2  C   UNL     1       1.158   8.515  20.718  0.00  0.00    +0.000 A 
ATOM      3  N   UNL     1       1.829   7.315  20.785  0.00  0.00    +0.000 N 
ATOM      4  C   UNL     1       2.561   6.777  19.724  0.00  0.00    +0.000 A 
ATOM      5  C   UNL     1       3.158   5.528  19.866  0.00  0.00    +0.000 A 
ATOM      6  C   UNL     1       3.853   4.972  18.789  0.00  0.00    +0.000 A 
ATOM      7  C   UNL     1       3.967   5.669  17.582  0.00  0.00    +0.000 A 
ATOM      8  C   UNL     1       3.393   6.932  17.444  0.00  0.00    +0.000 A 
ATOM      9  C   UNL     1       2.673   7.474  18.519  0.00  0.00    +0.000 A 
ATOM     10  C   UNL     1       1.974   8.769  18.392  0.00  0.00    +0.000 A 
ATOM     11  O   UNL     1       1.985   9.403  17.338  0.00  0.00    +0.000 OA
ATOM     12  N   UNL     1       1.285   9.187  19.515  0.00  0.00    +0.000 N 
ATOM     13  H   UNL     1       1.736   6.820  21.665  0.00  0.00    +0.000 HD
ENDROOT
BRANCH   7  14
ATOM     14  N   UNL     1       4.657   5.051  16.505  0.00  0.00    +0.000 N 
ATOM     15  H   UNL     1       4.193   5.018  15.596  0.00  0.00    +0.000 HD
BRANCH  14  16
ATOM     16  S   UNL     1       6.317   5.311  16.321  0.00  0.00    +0.000 S 
ATOM     17  O   UNL     1       6.507   6.743  16.428  0.00  0.00    +0.000 OA
ATOM     18  O   UNL     1       7.030   4.398  17.186  0.00  0.00    +0.000 OA
BRANCH  16  19
ATOM     19  C   UNL     1       6.616   4.847  14.633  0.00  0.00    +0.000 A 
ATOM     20  C   UNL     1       7.636   5.459  13.900  0.00  0.00    +0.000 A 
ATOM     21  C   UNL     1       7.841   5.084  12.571  0.00  0.00    +0.000 A 
ATOM     22  C   UNL     1       7.038   4.102  11.987  0.00  0.00    +0.000 A 
ATOM     23  C   UNL     1       6.041   3.473  12.733  0.00  0.00    +0.000 A 
ATOM     24  C   UNL     1       5.835   3.835  14.063  0.00  0.00    +0.000 A 
ENDBRANCH  16  19
ENDBRANCH  14  16
ENDBRANCH   7  14
BRANCH  12  25
ATOM     25  O   UNL     1       0.562  10.393  19.379  0.00  0.00    +0.000 OA
ATOM     26  H   UNL     1      -0.293  10.164  19.797  0.00  0.00    +0.000 HD
ENDBRANCH  12  25
TORSDOF 4
ENDMDL
MODEL 4
REMARK VINA RESULT:      -7.8      3.627      4.748
REMARK  Name = 
REMARK  4 active torsions:
REMARK  status: ('A' for Active; 'I' for Inactive)
REMARK    1  A    between atoms: C_7  and  N_8
REMARK    2  A    between atoms: N_8  and  S_9
REMARK    3  A    between atoms: S_9  and  C_12
REMARK    4  A    between atoms: N_22  and  O_23
REMARK                            x       y       z     vdW  Elec       q    Type
REMARK                         _______ _______ _______ _____ _____    ______ ____
ROOT
ATOM      1  O   UNL     1       1.082   2.577  21.627  0.00  0.00    +0.000 OA
ATOM      2  C   UNL     1       1.638   2.952  20.595  0.00  0.00    +0.000 A 
ATOM      3  N   UNL     1       2.385   4.109  20.617  0.00  0.00    +0.000 N 
ATOM      4  C   UNL     1       3.089   4.595  19.514  0.00  0.00    +0.000 A 
ATOM      5  C   UNL     1       3.865   5.743  19.647  0.00  0.00    +0.000 A 
ATOM      6  C   UNL     1       4.604   6.204  18.554  0.00  0.00    +0.000 A 
ATOM      7  C   UNL     1       4.552   5.532  17.328  0.00  0.00    +0.000 A 
ATOM      8  C   UNL     1       3.755   4.397  17.183  0.00  0.00    +0.000 A 
ATOM      9  C   UNL     1       3.038   3.923  18.290  0.00  0.00    +0.000 A 
ATOM     10  C   UNL     1       2.248   2.677  18.210  0.00  0.00    +0.000 A 
ATOM     11  O   UNL     1       2.210   2.008  17.179  0.00  0.00    +0.000 OA
ATOM     12  N   UNL     1       1.600   2.305  19.373  0.00  0.00    +0.000 N 
ATOM     13  H   UNL     1       2.415   4.584  21.512  0.00  0.00    +0.000 HD
ENDROOT
BRANCH   7  14
ATOM     14  N   UNL     1       5.344   6.020  16.254  0.00  0.00    +0.000 N 
ATOM     15  H   UNL     1       5.313   7.020  16.053  0.00  0.00    +0.000 HD
BRANCH  14  16
ATOM     16  S   UNL     1       6.904   5.410  16.027  0.00  0.00    +0.000 S 
ATOM     17  O   UNL     1       7.788   6.556  16.069  0.00  0.00    +0.000 OA
ATOM     18  O   UNL     1       7.098   4.285  16.914  0.00  0.00    +0.000 OA
BRANCH  16  19
ATOM     19  C   UNL     1       6.866   4.814  14.354  0.00  0.00    +0.000 A 
ATOM     20  C   UNL     1       5.920   3.865  13.961  0.00  0.00    +0.000 A 
ATOM     21  C   UNL     1       5.920   3.405  12.642  0.00  0.00    +0.000 A 
ATOM     22  C   UNL     1       6.853   3.898  11.728  0.00  0.00    +0.000 A 
ATOM     23  C   UNL     1       7.777   4.869  12.118  0.00  0.00    +0.000 A 
ATOM     24  C   UNL     1       7.777   5.339  13.430  0.00  0.00    +0.000 A 
ENDBRANCH  16  19
ENDBRANCH  14  16
ENDBRANCH   7  14
BRANCH  12  25
ATOM     25  O   UNL     1       0.897   1.081  19.321  0.00  0.00    +0.000 OA
ATOM     26  H   UNL     1       0.911   0.882  18.364  0.00  0.00    +0.000 HD
ENDBRANCH  12  25
TORSDOF 4
ENDMDL
MODEL 5
REMARK VINA RESULT:      -7.8      3.522      4.509
REMARK  Name = 
REMARK  4 active torsions:
REMARK  status: ('A' for Active; 'I' for Inactive)
REMARK    1  A    between atoms: C_7  and  N_8
REMARK    2  A    between atoms: N_8  and  S_9
REMARK    3  A    between atoms: S_9  and  C_12
REMARK    4  A    between atoms: N_22  and  O_23
REMARK                            x       y       z     vdW  Elec       q    Type
REMARK                         _______ _______ _______ _____ _____    ______ ____
ROOT
ATOM      1  O   UNL     1       1.175   2.931  22.063  0.00  0.00    +0.000 OA
ATOM      2  C   UNL     1       1.613   3.349  20.992  0.00  0.00    +0.000 A 
ATOM      3  N   UNL     1       2.802   4.043  20.977  0.00  0.00    +0.000 N 
ATOM      4  C   UNL     1       3.404   4.519  19.810  0.00  0.00    +0.000 A 
ATOM      5  C   UNL     1       4.638   5.160  19.888  0.00  0.00    +0.000 A 
ATOM      6  C   UNL     1       5.260   5.597  18.715  0.00  0.00    +0.000 A 
ATOM      7  C   UNL     1       4.643   5.413  17.474  0.00  0.00    +0.000 A 
ATOM      8  C   UNL     1       3.396   4.796  17.394  0.00  0.00    +0.000 A 
ATOM      9  C   UNL     1       2.789   4.334  18.570  0.00  0.00    +0.000 A 
ATOM     10  C   UNL     1       1.508   3.597  18.529  0.00  0.00    +0.000 A 
ATOM     11  O   UNL     1       0.945   3.350  17.464  0.00  0.00    +0.000 OA
ATOM     12  N   UNL     1       1.021   3.179  19.753  0.00  0.00    +0.000 N 
ATOM     13  H   UNL     1       3.238   4.167  21.883  0.00  0.00    +0.000 HD
ENDROOT
BRANCH   7  14
ATOM     14  N   UNL     1       5.327   5.847  16.306  0.00  0.00    +0.000 N 
ATOM     15  H   UNL     1       5.202   6.816  16.011  0.00  0.00    +0.000 HD
BRANCH  14  16
ATOM     16  S   UNL     1       6.917   5.338  16.036  0.00  0.00    +0.000 S 
ATOM     17  O   UNL     1       7.735   6.530  16.123  0.00  0.00    +0.000 OA
ATOM     18  O   UNL     1       7.185   4.187  16.869  0.00  0.00    +0.000 OA
BRANCH  16  19
ATOM     19  C   UNL     1       6.892   4.819  14.338  0.00  0.00    +0.000 A 
ATOM     20  C   UNL     1       7.784   5.371  13.415  0.00  0.00    +0.000 A 
ATOM     21  C   UNL     1       7.735   4.953  12.083  0.00  0.00    +0.000 A 
ATOM     22  C   UNL     1       6.808   3.987  11.685  0.00  0.00    +0.000 A 
ATOM     23  C   UNL     1       5.941   3.417  12.617  0.00  0.00    +0.000 A 
ATOM     24  C   UNL     1       5.989   3.822  13.950  0.00  0.00    +0.000 A 
ENDBRANCH  16  19
ENDBRANCH  14  16
ENDBRANCH   7  14
BRANCH  12  25
ATOM     25  O   UNL     1      -0.169   2.418  19.714  0.00  0.00    +0.000 OA
ATOM     26  H   UNL     1       0.054   1.730  19.055  0.00  0.00    +0.000 HD
ENDBRANCH  12  25
TORSDOF 4
ENDMDL
MODEL 6
REMARK VINA RESULT:      -7.7      2.667      3.856
REMARK  Name = 
REMARK  4 active torsions:
REMARK  status: ('A' for Active; 'I' for Inactive)
REMARK    1  A    between atoms: C_7  and  N_8
REMARK    2  A    between atoms: N_8  and  S_9
REMARK    3  A    between atoms: S_9  and  C_12
REMARK    4  A    between atoms: N_22  and  O_23
REMARK                            x       y       z     vdW  Elec       q    Type
REMARK                         _______ _______ _______ _____ _____    ______ ____
ROOT
ATOM      1  O   UNL     1      -0.567  12.247  18.525  0.00  0.00    +0.000 OA
ATOM      2  C   UNL     1      -0.085  11.203  18.965  0.00  0.00    +0.000 A 
ATOM      3  N   UNL     1       0.752  10.460  18.163  0.00  0.00    +0.000 N 
ATOM      4  C   UNL     1       1.383   9.286  18.582  0.00  0.00    +0.000 A 
ATOM      5  C   UNL     1       2.259   8.633  17.719  0.00  0.00    +0.000 A 
ATOM      6  C   UNL     1       2.923   7.484  18.155  0.00  0.00    +0.000 A 
ATOM      7  C   UNL     1       2.698   6.978  19.440  0.00  0.00    +0.000 A 
ATOM      8  C   UNL     1       1.802   7.614  20.297  0.00  0.00    +0.000 A 
ATOM      9  C   UNL     1       1.159   8.783  19.865  0.00  0.00    +0.000 A 
ATOM     10  C   UNL     1       0.267   9.540  20.767  0.00  0.00    +0.000 A 
ATOM     11  O   UNL     1       0.074   9.181  21.928  0.00  0.00    +0.000 OA
ATOM     12  N   UNL     1      -0.294  10.684  20.230  0.00  0.00    +0.000 N 
ATOM     13  H   UNL     1       0.907  10.839  17.236  0.00  0.00    +0.000 HD
ENDROOT
BRANCH   7  14
ATOM     14  N   UNL     1       3.419   5.824  19.850  0.00  0.00    +0.000 N 
ATOM     15  H   UNL     1       3.474   5.625  20.850  0.00  0.00    +0.000 HD
BRANCH  14  16
ATOM     16  S   UNL     1       3.276   4.394  18.960  0.00  0.00    +0.000 S 
ATOM     17  O   UNL     1       3.426   3.316  19.916  0.00  0.00    +0.000 OA
ATOM     18  O   UNL     1       2.106   4.486  18.116  0.00  0.00    +0.000 OA
BRANCH  16  19
ATOM     19  C   UNL     1       4.723   4.412  17.930  0.00  0.00    +0.000 A 
ATOM     20  C   UNL     1       5.971   4.737  18.467  0.00  0.00    +0.000 A 
ATOM     21  C   UNL     1       7.091   4.755  17.632  0.00  0.00    +0.000 A 
ATOM     22  C   UNL     1       6.960   4.442  16.277  0.00  0.00    +0.000 A 
ATOM     23  C   UNL     1       5.716   4.088  15.753  0.00  0.00    +0.000 A 
ATOM     24  C   UNL     1       4.596   4.060  16.582  0.00  0.00    +0.000 A 
ENDBRANCH  16  19
ENDBRANCH  14  16
ENDBRANCH   7  14
BRANCH  12  25
ATOM     25  O   UNL     1      -1.096  11.447  21.108  0.00  0.00    +0.000 OA
ATOM     26  H   UNL     1      -1.614  11.993  20.483  0.00  0.00    +0.000 HD
ENDBRANCH  12  25
TORSDOF 4
ENDMDL
MODEL 7
REMARK VINA RESULT:      -7.6      2.415      3.113
REMARK  Name = 
REMARK  4 active torsions:
REMARK  status: ('A' for Active; 'I' for Inactive)
REMARK    1  A    between atoms: C_7  and  N_8
REMARK    2  A    between atoms: N_8  and  S_9
REMARK    3  A    between atoms: S_9  and  C_12
REMARK    4  A    between atoms: N_22  and  O_23
REMARK                            x       y       z     vdW  Elec       q    Type
REMARK                         _______ _______ _______ _____ _____    ______ ____
ROOT
ATOM      1  O   UNL     1      -0.003  11.300  20.542  0.00  0.00    +0.000 OA
ATOM      2  C   UNL     1       0.629  10.365  20.051  0.00  0.00    +0.000 A 
ATOM      3  N   UNL     1       0.734   9.184  20.752  0.00  0.00    +0.000 N 
ATOM      4  C   UNL     1       1.390   8.052  20.264  0.00  0.00    +0.000 A 
ATOM      5  C   UNL     1       1.395   6.883  21.021  0.00  0.00    +0.000 A 
ATOM      6  C   UNL     1       2.014   5.738  20.512  0.00  0.00    +0.000 A 
ATOM      7  C   UNL     1       2.642   5.766  19.263  0.00  0.00    +0.000 A 
ATOM      8  C   UNL     1       2.663   6.942  18.514  0.00  0.00    +0.000 A 
ATOM      9  C   UNL     1       2.016   8.081  19.016  0.00  0.00    +0.000 A 
ATOM     10  C   UNL     1       1.936   9.324  18.223  0.00  0.00    +0.000 A 
ATOM     11  O   UNL     1       2.416   9.395  17.092  0.00  0.00    +0.000 OA
ATOM     12  N   UNL     1       1.258  10.370  18.820  0.00  0.00    +0.000 N 
ATOM     13  H   UNL     1       0.272   9.178  21.655  0.00  0.00    +0.000 HD
ENDROOT
BRANCH   7  14
ATOM     14  N   UNL     1       3.232   4.570  18.774  0.00  0.00    +0.000 N 
ATOM     15  H   UNL     1       2.941   4.235  17.855  0.00  0.00    +0.000 HD
BRANCH  14  16
ATOM     16  S   UNL     1       4.882   4.296  19.019  0.00  0.00    +0.000 S 
ATOM     17  O   UNL     1       5.368   5.441  19.759  0.00  0.00    +0.000 OA
ATOM     18  O   UNL     1       5.062   2.952  19.522  0.00  0.00    +0.000 OA
BRANCH  16  19
ATOM     19  C   UNL     1       5.555   4.383  17.378  0.00  0.00    +0.000 A 
ATOM     20  C   UNL     1       4.742   4.152  16.265  0.00  0.00    +0.000 A 
ATOM     21  C   UNL     1       5.300   4.216  14.986  0.00  0.00    +0.000 A 
ATOM     22  C   UNL     1       6.654   4.516  14.826  0.00  0.00    +0.000 A 
ATOM     23  C   UNL     1       7.454   4.777  15.939  0.00  0.00    +0.000 A 
ATOM     24  C   UNL     1       6.903   4.723  17.218  0.00  0.00    +0.000 A 
ENDBRANCH  16  19
ENDBRANCH  14  16
ENDBRANCH   7  14
BRANCH  12  25
ATOM     25  O   UNL     1       1.122  11.540  18.039  0.00  0.00    +0.000 OA
ATOM     26  H   UNL     1       0.215  11.829  18.266  0.00  0.00    +0.000 HD
ENDBRANCH  12  25
TORSDOF 4
ENDMDL
MODEL 8
REMARK VINA RESULT:      -7.6      2.693      3.986
REMARK  Name = 
REMARK  4 active torsions:
REMARK  status: ('A' for Active; 'I' for Inactive)
REMARK    1  A    between atoms: C_7  and  N_8
REMARK    2  A    between atoms: N_8  and  S_9
REMARK    3  A    between atoms: S_9  and  C_12
REMARK    4  A    between atoms: N_22  and  O_23
REMARK                            x       y       z     vdW  Elec       q    Type
REMARK                         _______ _______ _______ _____ _____    ______ ____
ROOT
ATOM      1  O   UNL     1      -0.797  12.390  18.759  0.00  0.00    +0.000 OA
ATOM      2  C   UNL     1      -0.295  11.342  19.165  0.00  0.00    +0.000 A 
ATOM      3  N   UNL     1       0.556  10.641  18.339  0.00  0.00    +0.000 N 
ATOM      4  C   UNL     1       1.210   9.467  18.720  0.00  0.00    +0.000 A 
ATOM      5  C   UNL     1       2.098   8.859  17.836  0.00  0.00    +0.000 A 
ATOM      6  C   UNL     1       2.785   7.710  18.234  0.00  0.00    +0.000 A 
ATOM      7  C   UNL     1       2.571   7.158  19.502  0.00  0.00    +0.000 A 
ATOM      8  C   UNL     1       1.663   7.749  20.380  0.00  0.00    +0.000 A 
ATOM      9  C   UNL     1       0.997   8.918  19.986  0.00  0.00    +0.000 A 
ATOM     10  C   UNL     1       0.091   9.629  20.912  0.00  0.00    +0.000 A 
ATOM     11  O   UNL     1      -0.093   9.229  22.061  0.00  0.00    +0.000 OA
ATOM     12  N   UNL     1      -0.491  10.778  20.412  0.00  0.00    +0.000 N 
ATOM     13  H   UNL     1       0.703  11.053  17.424  0.00  0.00    +0.000 HD
ENDROOT
BRANCH   7  14
ATOM     14  N   UNL     1       3.314   6.006  19.874  0.00  0.00    +0.000 N 
ATOM     15  H   UNL     1       3.424   5.809  20.870  0.00  0.00    +0.000 HD
BRANCH  14  16
ATOM     16  S   UNL     1       3.124   4.574  18.996  0.00  0.00    +0.000 S 
ATOM     17  O   UNL     1       3.230   3.500  19.962  0.00  0.00    +0.000 OA
ATOM     18  O   UNL     1       1.963   4.700  18.145  0.00  0.00    +0.000 OA
BRANCH  16  19
ATOM     19  C   UNL     1       4.577   4.531  17.974  0.00  0.00    +0.000 A 
ATOM     20  C   UNL     1       4.489   4.149  16.633  0.00  0.00    +0.000 A 
ATOM     21  C   UNL     1       5.648   4.111  15.856  0.00  0.00    +0.000 A 
ATOM     22  C   UNL     1       6.879   4.461  16.415  0.00  0.00    +0.000 A 
ATOM     23  C   UNL     1       6.956   4.871  17.746  0.00  0.00    +0.000 A 
ATOM     24  C   UNL     1       5.802   4.919  18.527  0.00  0.00    +0.000 A 
ENDBRANCH  16  19
ENDBRANCH  14  16
ENDBRANCH   7  14
BRANCH  12  25
ATOM     25  O   UNL     1      -1.307  11.497  21.315  0.00  0.00    +0.000 OA
ATOM     26  H   UNL     1      -1.483  10.826  22.005  0.00  0.00    +0.000 HD
ENDBRANCH  12  25
TORSDOF 4
ENDMDL
MODEL 9
REMARK VINA RESULT:      -7.6      3.757      4.931
REMARK  Name = 
REMARK  4 active torsions:
REMARK  status: ('A' for Active; 'I' for Inactive)
REMARK    1  A    between atoms: C_7  and  N_8
REMARK    2  A    between atoms: N_8  and  S_9
REMARK    3  A    between atoms: S_9  and  C_12
REMARK    4  A    between atoms: N_22  and  O_23
REMARK                            x       y       z     vdW  Elec       q    Type
REMARK                         _______ _______ _______ _____ _____    ______ ____
ROOT
ATOM      1  O   UNL     1       1.484   4.810  21.216  0.00  0.00    +0.000 OA
ATOM      2  C   UNL     1       2.143   4.574  20.204  0.00  0.00    +0.000 A 
ATOM      3  N   UNL     1       3.382   5.158  20.059  0.00  0.00    +0.000 N 
ATOM      4  C   UNL     1       4.226   4.920  18.972  0.00  0.00    +0.000 A 
ATOM      5  C   UNL     1       5.486   5.511  18.940  0.00  0.00    +0.000 A 
ATOM      6  C   UNL     1       6.346   5.238  17.873  0.00  0.00    +0.000 A 
ATOM      7  C   UNL     1       5.941   4.395  16.833  0.00  0.00    +0.000 A 
ATOM      8  C   UNL     1       4.670   3.822  16.848  0.00  0.00    +0.000 A 
ATOM      9  C   UNL     1       3.821   4.077  17.934  0.00  0.00    +0.000 A 
ATOM     10  C   UNL     1       2.499   3.426  18.038  0.00  0.00    +0.000 A 
ATOM     11  O   UNL     1       2.109   2.628  17.187  0.00  0.00    +0.000 OA
ATOM     12  N   UNL     1       1.764   3.745  19.165  0.00  0.00    +0.000 N 
ATOM     13  H   UNL     1       3.663   5.765  20.821  0.00  0.00    +0.000 HD
ENDROOT
BRANCH   7  14
ATOM     14  N   UNL     1       6.861   4.122  15.784  0.00  0.00    +0.000 N 
ATOM     15  H   UNL     1       7.033   3.146  15.542  0.00  0.00    +0.000 HD
BRANCH  14  16
ATOM     16  S   UNL     1       6.855   5.092  14.400  0.00  0.00    +0.000 S 
ATOM     17  O   UNL     1       5.824   6.086  14.617  0.00  0.00    +0.000 OA
ATOM     18  O   UNL     1       8.214   5.482  14.099  0.00  0.00    +0.000 OA
BRANCH  16  19
ATOM     19  C   UNL     1       6.286   3.986  13.133  0.00  0.00    +0.000 A 
ATOM     20  C   UNL     1       4.930   3.928  12.799  0.00  0.00    +0.000 A 
ATOM     21  C   UNL     1       4.508   3.041  11.806  0.00  0.00    +0.000 A 
ATOM     22  C   UNL     1       5.436   2.228  11.152  0.00  0.00    +0.000 A 
ATOM     23  C   UNL     1       6.792   2.312  11.468  0.00  0.00    +0.000 A 
ATOM     24  C   UNL     1       7.223   3.201  12.451  0.00  0.00    +0.000 A 
ENDBRANCH  16  19
ENDBRANCH  14  16
ENDBRANCH   7  14
BRANCH  12  25
ATOM     25  O   UNL     1       0.527   3.076  19.301  0.00  0.00    +0.000 OA
ATOM     26  H   UNL     1       0.813   2.175  19.553  0.00  0.00    +0.000 HD
ENDBRANCH  12  25
TORSDOF 4
ENDMDL
