MODEL 1
REMARK VINA RESULT:      -8.4      0.000      0.000
REMARK  Name = 
REMARK  4 active torsions:
REMARK  status: ('A' for Active; 'I' for Inactive)
REMARK    1  A    between atoms: C_1  and  C_2
REMARK    2  A    between atoms: C_10  and  C_11
REMARK    3  A    between atoms: C_17  and  C_18
REMARK    4  A    between atoms: C_18  and  N_19
REMARK                            x       y       z     vdW  Elec       q    Type
REMARK                         _______ _______ _______ _____ _____    ______ ____
ROOT
ATOM      1  C   UNL     1       0.604   3.588  20.274  0.00  0.00    +0.000 C 
ATOM      2  C   UNL     1       1.581   3.219  19.220  0.00  0.00    +0.000 A 
ATOM      3  N   UNL     1       1.365   2.048  18.588  0.00  0.00    +0.000 NA
ATOM      4  N   UNL     1       2.376   1.969  17.715  0.00  0.00    +0.000 N 
ATOM      5  C   UNL     1       3.221   3.030  17.756  0.00  0.00    +0.000 A 
ATOM      6  N   UNL     1       4.302   3.145  16.981  0.00  0.00    +0.000 NA
ATOM      7  C   UNL     1       5.024   4.236  17.199  0.00  0.00    +0.000 A 
ATOM      8  C   UNL     1       6.167   4.350  16.423  0.00  0.00    +0.000 A 
ATOM      9  C   UNL     1       7.039   5.429  16.539  0.00  0.00    +0.000 A 
ATOM     10  C   UNL     1       6.775   6.432  17.467  0.00  0.00    +0.000 A 
ATOM     11  C   UNL     1       5.628   6.319  18.263  0.00  0.00    +0.000 A 
ATOM     12  C   UNL     1       4.708   5.239  18.150  0.00  0.00    +0.000 A 
ATOM     13  C   UNL     1       3.503   5.100  18.935  0.00  0.00    +0.000 A 
ATOM     14  C   UNL     1       2.746   3.904  18.725  0.00  0.00    +0.000 A 
ATOM     15  H   UNL     1       2.453   1.161  17.113  0.00  0.00    +0.000 HD
ENDROOT
BRANCH  10  16
ATOM     16  C   UNL     1       7.694   7.619  17.617  0.00  0.00    +0.000 C 
ATOM     17  F   UNL     1       8.513   7.809  16.546  0.00  0.00    +0.000 F 
ATOM     18  F   UNL     1       7.014   8.788  17.778  0.00  0.00    +0.000 F 
ATOM     19  F   UNL     1       8.514   7.510  18.698  0.00  0.00    +0.000 F 
ENDBRANCH  10  16
BRANCH  13  20
ATOM     20  C   UNL     1       3.152   6.159  19.980  0.00  0.00    +0.000 C 
BRANCH  20  21
ATOM     21  N   UNL     1       2.031   7.069  19.597  0.00  0.00    +0.000 NA
ATOM     22  C   UNL     1       1.590   7.855  20.757  0.00  0.00    +0.000 C 
ATOM     23  C   UNL     1       0.461   8.865  20.535  0.00  0.00    +0.000 C 
ATOM     24  C   UNL     1       0.882  10.182  19.890  0.00  0.00    +0.000 C 
ATOM     25  O   UNL     1       1.659  10.111  18.706  0.00  0.00    +0.000 OA
ATOM     26  C   UNL     1       1.453   8.946  17.920  0.00  0.00    +0.000 C 
ATOM     27  C   UNL     1       2.406   7.839  18.393  0.00  0.00    +0.000 C 
ENDBRANCH  20  21
ENDBRANCH  13  20
TORSDOF 3
ENDMDL
MODEL 2
REMARK VINA RESULT:      -7.9      3.562      6.036
REMARK  Name = 
REMARK  4 active torsions:
REMARK  status: ('A' for Active; 'I' for Inactive)
REMARK    1  A    between atoms: C_1  and  C_2
REMARK    2  A    between atoms: C_10  and  C_11
REMARK    3  A    between atoms: C_17  and  C_18
REMARK    4  A    between atoms: C_18  and  N_19
REMARK                            x       y       z     vdW  Elec       q    Type
REMARK                         _______ _______ _______ _____ _____    ______ ____
ROOT
ATOM      1  C   UNL     1       6.727   4.213  17.090  0.00  0.00    +0.000 C 
ATOM      2  C   UNL     1       5.892   5.361  16.659  0.00  0.00    +0.000 A 
ATOM      3  N   UNL     1       6.141   5.853  15.429  0.00  0.00    +0.000 NA
ATOM      4  N   UNL     1       5.268   6.859  15.308  0.00  0.00    +0.000 N 
ATOM      5  C   UNL     1       4.474   7.031  16.395  0.00  0.00    +0.000 A 
ATOM      6  N   UNL     1       3.547   7.986  16.491  0.00  0.00    +0.000 NA
ATOM      7  C   UNL     1       2.902   8.016  17.650  0.00  0.00    +0.000 A 
ATOM      8  C   UNL     1       1.959   9.025  17.772  0.00  0.00    +0.000 A 
ATOM      9  C   UNL     1       1.206   9.201  18.930  0.00  0.00    +0.000 A 
ATOM     10  C   UNL     1       1.400   8.351  20.014  0.00  0.00    +0.000 A 
ATOM     11  C   UNL     1       2.359   7.335  19.903  0.00  0.00    +0.000 A 
ATOM     12  C   UNL     1       3.126   7.119  18.724  0.00  0.00    +0.000 A 
ATOM     13  C   UNL     1       4.105   6.068  18.561  0.00  0.00    +0.000 A 
ATOM     14  C   UNL     1       4.826   6.062  17.326  0.00  0.00    +0.000 A 
ATOM     15  H   UNL     1       5.257   7.412  14.461  0.00  0.00    +0.000 HD
ENDROOT
BRANCH  10  16
ATOM     16  C   UNL     1       0.599   8.507  21.283  0.00  0.00    +0.000 C 
ATOM     17  F   UNL     1      -0.287   7.494  21.493  0.00  0.00    +0.000 F 
ATOM     18  F   UNL     1       1.386   8.551  22.394  0.00  0.00    +0.000 F 
ATOM     19  F   UNL     1      -0.135   9.653  21.298  0.00  0.00    +0.000 F 
ENDBRANCH  10  16
BRANCH  13  20
ATOM     20  C   UNL     1       4.378   5.101  19.713  0.00  0.00    +0.000 C 
BRANCH  20  21
ATOM     21  N   UNL     1       3.585   3.837  19.670  0.00  0.00    +0.000 NA
ATOM     22  C   UNL     1       2.437   3.920  20.584  0.00  0.00    +0.000 C 
ATOM     23  C   UNL     1       1.497   2.713  20.644  0.00  0.00    +0.000 C 
ATOM     24  C   UNL     1       0.491   2.613  19.500  0.00  0.00    +0.000 C 
ATOM     25  O   UNL     1       0.991   2.726  18.178  0.00  0.00    +0.000 OA
ATOM     26  C   UNL     1       2.338   2.305  18.006  0.00  0.00    +0.000 C 
ATOM     27  C   UNL     1       3.277   3.491  18.267  0.00  0.00    +0.000 C 
ENDBRANCH  20  21
ENDBRANCH  13  20
TORSDOF 3
ENDMDL
MODEL 3
REMARK VINA RESULT:      -7.8      2.978      5.822
REMARK  Name = 
REMARK  4 active torsions:
REMARK  status: ('A' for Active; 'I' for Inactive)
REMARK    1  A    between atoms: C_1  and  C_2
REMARK    2  A    between atoms: C_10  and  C_11
REMARK    3  A    between atoms: C_17  and  C_18
REMARK    4  A    between atoms: C_18  and  N_19
REMARK                            x       y       z     vdW  Elec       q    Type
REMARK                         _______ _______ _______ _____ _____    ______ ____
ROOT
ATOM      1  C   UNL     1       3.750   2.209  18.487  0.00  0.00    +0.000 C 
ATOM      2  C   UNL     1       3.117   3.029  19.549  0.00  0.00    +0.000 A 
ATOM      3  N   UNL     1       2.811   2.390  20.696  0.00  0.00    +0.000 NA
ATOM      4  N   UNL     1       2.262   3.346  21.453  0.00  0.00    +0.000 N 
ATOM      5  C   UNL     1       2.206   4.560  20.850  0.00  0.00    +0.000 A 
ATOM      6  N   UNL     1       1.683   5.647  21.422  0.00  0.00    +0.000 NA
ATOM      7  C   UNL     1       1.683   6.729  20.655  0.00  0.00    +0.000 A 
ATOM      8  C   UNL     1       1.113   7.856  21.227  0.00  0.00    +0.000 A 
ATOM      9  C   UNL     1       1.023   9.069  20.550  0.00  0.00    +0.000 A 
ATOM     10  C   UNL     1       1.509   9.169  19.249  0.00  0.00    +0.000 A 
ATOM     11  C   UNL     1       2.078   8.032  18.660  0.00  0.00    +0.000 A 
ATOM     12  C   UNL     1       2.202   6.787  19.337  0.00  0.00    +0.000 A 
ATOM     13  C   UNL     1       2.804   5.601  18.773  0.00  0.00    +0.000 A 
ATOM     14  C   UNL     1       2.768   4.425  19.587  0.00  0.00    +0.000 A 
ATOM     15  H   UNL     1       1.929   3.118  22.380  0.00  0.00    +0.000 HD
ENDROOT
BRANCH  10  16
ATOM     16  C   UNL     1       1.435  10.468  18.485  0.00  0.00    +0.000 C 
ATOM     17  F   UNL     1       0.200  10.724  17.971  0.00  0.00    +0.000 F 
ATOM     18  F   UNL     1       1.748  11.545  19.257  0.00  0.00    +0.000 F 
ATOM     19  F   UNL     1       2.293  10.502  17.429  0.00  0.00    +0.000 F 
ENDBRANCH  10  16
BRANCH  13  20
ATOM     20  C   UNL     1       3.353   5.634  17.347  0.00  0.00    +0.000 C 
BRANCH  20  21
ATOM     21  N   UNL     1       4.763   5.163  17.208  0.00  0.00    +0.000 NA
ATOM     22  C   UNL     1       4.934   4.418  15.952  0.00  0.00    +0.000 C 
ATOM     23  C   UNL     1       6.334   3.885  15.635  0.00  0.00    +0.000 C 
ATOM     24  C   UNL     1       7.313   4.914  15.077  0.00  0.00    +0.000 C 
ATOM     25  O   UNL     1       7.448   6.137  15.783  0.00  0.00    +0.000 OA
ATOM     26  C   UNL     1       7.185   6.059  17.177  0.00  0.00    +0.000 C 
ATOM     27  C   UNL     1       5.688   6.295  17.425  0.00  0.00    +0.000 C 
ENDBRANCH  20  21
ENDBRANCH  13  20
TORSDOF 3
ENDMDL
MODEL 4
REMARK VINA RESULT:      -7.8      4.331      6.035
REMARK  Name = 
REMARK  4 active torsions:
REMARK  status: ('A' for Active; 'I' for Inactive)
REMARK    1  A    between atoms: C_1  and  C_2
REMARK    2  A    between atoms: C_10  and  C_11
REMARK    3  A    between atoms: C_17  and  C_18
REMARK    4  A    between atoms: C_18  and  N_19
REMARK                            x       y       z     vdW  Elec       q    Type
REMARK                         _______ _______ _______ _____ _____    ______ ____
ROOT
ATOM      1  C   UNL     1       4.876   5.441  19.562  0.00  0.00    +0.000 C 
ATOM      2  C   UNL     1       5.910   5.474  18.498  0.00  0.00    +0.000 A 
ATOM      3  N   UNL     1       7.110   5.983  18.844  0.00  0.00    +0.000 NA
ATOM      4  N   UNL     1       7.827   5.897  17.718  0.00  0.00    +0.000 N 
ATOM      5  C   UNL     1       7.147   5.358  16.675  0.00  0.00    +0.000 A 
ATOM      6  N   UNL     1       7.669   5.195  15.457  0.00  0.00    +0.000 NA
ATOM      7  C   UNL     1       6.834   4.689  14.560  0.00  0.00    +0.000 A 
ATOM      8  C   UNL     1       7.355   4.546  13.284  0.00  0.00    +0.000 A 
ATOM      9  C   UNL     1       6.604   4.042  12.226  0.00  0.00    +0.000 A 
ATOM     10  C   UNL     1       5.279   3.671  12.438  0.00  0.00    +0.000 A 
ATOM     11  C   UNL     1       4.740   3.822  13.722  0.00  0.00    +0.000 A 
ATOM     12  C   UNL     1       5.492   4.314  14.826  0.00  0.00    +0.000 A 
ATOM     13  C   UNL     1       4.981   4.461  16.169  0.00  0.00    +0.000 A 
ATOM     14  C   UNL     1       5.872   5.043  17.125  0.00  0.00    +0.000 A 
ATOM     15  H   UNL     1       8.781   6.231  17.708  0.00  0.00    +0.000 HD
ENDROOT
BRANCH  10  16
ATOM     16  C   UNL     1       4.435   3.115  11.318  0.00  0.00    +0.000 C 
ATOM     17  F   UNL     1       4.275   3.981  10.278  0.00  0.00    +0.000 F 
ATOM     18  F   UNL     1       4.963   1.981  10.780  0.00  0.00    +0.000 F 
ATOM     19  F   UNL     1       3.178   2.787  11.725  0.00  0.00    +0.000 F 
ENDBRANCH  10  16
BRANCH  13  20
ATOM     20  C   UNL     1       3.532   4.082  16.475  0.00  0.00    +0.000 C 
BRANCH  20  21
ATOM     21  N   UNL     1       3.238   3.843  17.919  0.00  0.00    +0.000 NA
ATOM     22  C   UNL     1       1.925   4.398  18.275  0.00  0.00    +0.000 C 
ATOM     23  C   UNL     1       1.452   4.215  19.719  0.00  0.00    +0.000 C 
ATOM     24  C   UNL     1       0.882   2.839  20.050  0.00  0.00    +0.000 C 
ATOM     25  O   UNL     1       1.655   1.707  19.685  0.00  0.00    +0.000 OA
ATOM     26  C   UNL     1       3.058   1.926  19.641  0.00  0.00    +0.000 C 
ATOM     27  C   UNL     1       3.451   2.416  18.239  0.00  0.00    +0.000 C 
ENDBRANCH  20  21
ENDBRANCH  13  20
TORSDOF 3
ENDMDL
MODEL 5
REMARK VINA RESULT:      -7.6      3.100      5.724
REMARK  Name = 
REMARK  4 active torsions:
REMARK  status: ('A' for Active; 'I' for Inactive)
REMARK    1  A    between atoms: C_1  and  C_2
REMARK    2  A    between atoms: C_10  and  C_11
REMARK    3  A    between atoms: C_17  and  C_18
REMARK    4  A    between atoms: C_18  and  N_19
REMARK                            x       y       z     vdW  Elec       q    Type
REMARK                         _______ _______ _______ _____ _____    ______ ____
ROOT
ATOM      1  C   UNL     1       3.782   2.244  18.398  0.00  0.00    +0.000 C 
ATOM      2  C   UNL     1       3.116   3.040  19.458  0.00  0.00    +0.000 A 
ATOM      3  N   UNL     1       2.773   2.375  20.579  0.00  0.00    +0.000 NA
ATOM      4  N   UNL     1       2.200   3.313  21.341  0.00  0.00    +0.000 N 
ATOM      5  C   UNL     1       2.163   4.541  20.764  0.00  0.00    +0.000 A 
ATOM      6  N   UNL     1       1.622   5.615  21.344  0.00  0.00    +0.000 NA
ATOM      7  C   UNL     1       1.647   6.715  20.604  0.00  0.00    +0.000 A 
ATOM      8  C   UNL     1       1.059   7.828  21.183  0.00  0.00    +0.000 A 
ATOM      9  C   UNL     1       0.990   9.056  20.532  0.00  0.00    +0.000 A 
ATOM     10  C   UNL     1       1.519   9.187  19.251  0.00  0.00    +0.000 A 
ATOM     11  C   UNL     1       2.106   8.064  18.653  0.00  0.00    +0.000 A 
ATOM     12  C   UNL     1       2.208   6.803  19.305  0.00  0.00    +0.000 A 
ATOM     13  C   UNL     1       2.828   5.630  18.733  0.00  0.00    +0.000 A 
ATOM     14  C   UNL     1       2.765   4.435  19.517  0.00  0.00    +0.000 A 
ATOM     15  H   UNL     1       1.837   3.064  22.251  0.00  0.00    +0.000 HD
ENDROOT
BRANCH  10  16
ATOM     16  C   UNL     1       1.469  10.503  18.515  0.00  0.00    +0.000 C 
ATOM     17  F   UNL     1       1.787  11.573  19.297  0.00  0.00    +0.000 F 
ATOM     18  F   UNL     1       2.329  10.544  17.460  0.00  0.00    +0.000 F 
ATOM     19  F   UNL     1       0.236  10.769  18.004  0.00  0.00    +0.000 F 
ENDBRANCH  10  16
BRANCH  13  20
ATOM     20  C   UNL     1       3.423   5.695  17.326  0.00  0.00    +0.000 C 
BRANCH  20  21
ATOM     21  N   UNL     1       4.890   5.969  17.279  0.00  0.00    +0.000 NA
ATOM     22  C   UNL     1       5.526   5.581  18.546  0.00  0.00    +0.000 C 
ATOM     23  C   UNL     1       7.041   5.769  18.659  0.00  0.00    +0.000 C 
ATOM     24  C   UNL     1       7.884   4.691  17.985  0.00  0.00    +0.000 C 
ATOM     25  O   UNL     1       7.573   4.363  16.641  0.00  0.00    +0.000 OA
ATOM     26  C   UNL     1       6.992   5.415  15.884  0.00  0.00    +0.000 C 
ATOM     27  C   UNL     1       5.466   5.379  16.053  0.00  0.00    +0.000 C 
ENDBRANCH  20  21
ENDBRANCH  13  20
TORSDOF 3
ENDMDL
MODEL 6
REMARK VINA RESULT:      -7.3      7.018     10.651
REMARK  Name = 
REMARK  4 active torsions:
REMARK  status: ('A' for Active; 'I' for Inactive)
REMARK    1  A    between atoms: C_1  and  C_2
REMARK    2  A    between atoms: C_10  and  C_11
REMARK    3  A    between atoms: C_17  and  C_18
REMARK    4  A    between atoms: C_18  and  N_19
REMARK                            x       y       z     vdW  Elec       q    Type
REMARK                         _______ _______ _______ _____ _____    ______ ____
ROOT
ATOM      1  C   UNL     1      -2.266  14.268  23.806  0.00  0.00    +0.000 C 
ATOM      2  C   UNL     1      -3.428  14.077  22.902  0.00  0.00    +0.000 A 
ATOM      3  N   UNL     1      -4.608  14.567  23.333  0.00  0.00    +0.000 NA
ATOM      4  N   UNL     1      -5.457  14.257  22.347  0.00  0.00    +0.000 N 
ATOM      5  C   UNL     1      -4.879  13.598  21.311  0.00  0.00    +0.000 A 
ATOM      6  N   UNL     1      -5.548  13.181  20.234  0.00  0.00    +0.000 NA
ATOM      7  C   UNL     1      -4.814  12.520  19.349  0.00  0.00    +0.000 A 
ATOM      8  C   UNL     1      -5.505  12.055  18.241  0.00  0.00    +0.000 A 
ATOM      9  C   UNL     1      -4.883  11.331  17.228  0.00  0.00    +0.000 A 
ATOM     10  C   UNL     1      -3.523  11.048  17.318  0.00  0.00    +0.000 A 
ATOM     11  C   UNL     1      -2.819  11.505  18.440  0.00  0.00    +0.000 A 
ATOM     12  C   UNL     1      -3.425  12.265  19.478  0.00  0.00    +0.000 A 
ATOM     13  C   UNL     1      -2.728  12.776  20.637  0.00  0.00    +0.000 A 
ATOM     14  C   UNL     1      -3.530  13.455  21.608  0.00  0.00    +0.000 A 
ATOM     15  H   UNL     1      -6.432  14.509  22.431  0.00  0.00    +0.000 HD
ENDROOT
BRANCH  10  16
ATOM     16  C   UNL     1      -2.813  10.271  16.237  0.00  0.00    +0.000 C 
ATOM     17  F   UNL     1      -3.559   9.253  15.722  0.00  0.00    +0.000 F 
ATOM     18  F   UNL     1      -2.466  11.051  15.176  0.00  0.00    +0.000 F 
ATOM     19  F   UNL     1      -1.658   9.700  16.677  0.00  0.00    +0.000 F 
ENDBRANCH  10  16
BRANCH  13  20
ATOM     20  C   UNL     1      -1.235  12.497  20.808  0.00  0.00    +0.000 C 
BRANCH  20  21
ATOM     21  N   UNL     1      -0.902  11.101  21.218  0.00  0.00    +0.000 NA
ATOM     22  C   UNL     1       0.345  10.662  20.576  0.00  0.00    +0.000 C 
ATOM     23  C   UNL     1       0.852   9.256  20.910  0.00  0.00    +0.000 C 
ATOM     24  C   UNL     1       1.574   9.123  22.248  0.00  0.00    +0.000 C 
ATOM     25  O   UNL     1       0.928   9.651  23.395  0.00  0.00    +0.000 OA
ATOM     26  C   UNL     1      -0.492   9.671  23.329  0.00  0.00    +0.000 C 
ATOM     27  C   UNL     1      -0.952  10.990  22.690  0.00  0.00    +0.000 C 
ENDBRANCH  20  21
ENDBRANCH  13  20
TORSDOF 3
ENDMDL
MODEL 7
REMARK VINA RESULT:      -7.3      3.810      6.371
REMARK  Name = 
REMARK  4 active torsions:
REMARK  status: ('A' for Active; 'I' for Inactive)
REMARK    1  A    between atoms: C_1  and  C_2
REMARK    2  A    between atoms: C_10  and  C_11
REMARK    3  A    between atoms: C_17  and  C_18
REMARK    4  A    between atoms: C_18  and  N_19
REMARK                            x       y       z     vdW  Elec       q    Type
REMARK                         _______ _______ _______ _____ _____    ______ ____
ROOT
ATOM      1  C   UNL     1       6.415   4.414  17.441  0.00  0.00    +0.000 C 
ATOM      2  C   UNL     1       5.601   5.562  16.969  0.00  0.00    +0.000 A 
ATOM      3  N   UNL     1       5.886   6.032  15.738  0.00  0.00    +0.000 NA
ATOM      4  N   UNL     1       5.026   7.044  15.579  0.00  0.00    +0.000 N 
ATOM      5  C   UNL     1       4.207   7.241  16.643  0.00  0.00    +0.000 A 
ATOM      6  N   UNL     1       3.286   8.206  16.699  0.00  0.00    +0.000 NA
ATOM      7  C   UNL     1       2.613   8.261  17.840  0.00  0.00    +0.000 A 
ATOM      8  C   UNL     1       1.676   9.279  17.923  0.00  0.00    +0.000 A 
ATOM      9  C   UNL     1       0.896   9.482  19.058  0.00  0.00    +0.000 A 
ATOM     10  C   UNL     1       1.055   8.648  20.160  0.00  0.00    +0.000 A 
ATOM     11  C   UNL     1       2.007   7.623  20.090  0.00  0.00    +0.000 A 
ATOM     12  C   UNL     1       2.801   7.380  18.935  0.00  0.00    +0.000 A 
ATOM     13  C   UNL     1       3.774   6.318  18.814  0.00  0.00    +0.000 A 
ATOM     14  C   UNL     1       4.526   6.284  17.598  0.00  0.00    +0.000 A 
ATOM     15  H   UNL     1       5.041   7.582  14.723  0.00  0.00    +0.000 HD
ENDROOT
BRANCH  10  16
ATOM     16  C   UNL     1       0.224   8.833  21.406  0.00  0.00    +0.000 C 
ATOM     17  F   UNL     1      -0.475  10.002  21.423  0.00  0.00    +0.000 F 
ATOM     18  F   UNL     1      -0.699   7.845  21.568  0.00  0.00    +0.000 F 
ATOM     19  F   UNL     1       0.976   8.833  22.540  0.00  0.00    +0.000 F 
ENDBRANCH  10  16
BRANCH  13  20
ATOM     20  C   UNL     1       4.009   5.367  19.988  0.00  0.00    +0.000 C 
BRANCH  20  21
ATOM     21  N   UNL     1       3.346   4.036  19.858  0.00  0.00    +0.000 NA
ATOM     22  C   UNL     1       2.224   4.111  18.912  0.00  0.00    +0.000 C 
ATOM     23  C   UNL     1       1.447   2.821  18.637  0.00  0.00    +0.000 C 
ATOM     24  C   UNL     1       2.113   1.854  17.663  0.00  0.00    +0.000 C 
ATOM     25  O   UNL     1       3.470   1.518  17.901  0.00  0.00    +0.000 OA
ATOM     26  C   UNL     1       3.875   1.579  19.261  0.00  0.00    +0.000 C 
ATOM     27  C   UNL     1       4.363   3.000  19.582  0.00  0.00    +0.000 C 
ENDBRANCH  20  21
ENDBRANCH  13  20
TORSDOF 3
ENDMDL
MODEL 8
REMARK VINA RESULT:      -7.2      0.529      1.427
REMARK  Name = 
REMARK  4 active torsions:
REMARK  status: ('A' for Active; 'I' for Inactive)
REMARK    1  A    between atoms: C_1  and  C_2
REMARK    2  A    between atoms: C_10  and  C_11
REMARK    3  A    between atoms: C_17  and  C_18
REMARK    4  A    between atoms: C_18  and  N_19
REMARK                            x       y       z     vdW  Elec       q    Type
REMARK                         _______ _______ _______ _____ _____    ______ ____
ROOT
ATOM      1  C   UNL     1       0.517   3.437  20.153  0.00  0.00    +0.000 C 
ATOM      2  C   UNL     1       1.474   3.146  19.057  0.00  0.00    +0.000 A 
ATOM      3  N   UNL     1       1.237   2.032  18.336  0.00  0.00    +0.000 NA
ATOM      4  N   UNL     1       2.234   2.016  17.443  0.00  0.00    +0.000 N 
ATOM      5  C   UNL     1       3.090   3.063  17.557  0.00  0.00    +0.000 A 
ATOM      6  N   UNL     1       4.160   3.231  16.778  0.00  0.00    +0.000 NA
ATOM      7  C   UNL     1       4.896   4.294  17.072  0.00  0.00    +0.000 A 
ATOM      8  C   UNL     1       6.028   4.462  16.289  0.00  0.00    +0.000 A 
ATOM      9  C   UNL     1       6.913   5.520  16.479  0.00  0.00    +0.000 A 
ATOM     10  C   UNL     1       6.672   6.446  17.489  0.00  0.00    +0.000 A 
ATOM     11  C   UNL     1       5.536   6.279  18.292  0.00  0.00    +0.000 A 
ATOM     12  C   UNL     1       4.604   5.220  18.105  0.00  0.00    +0.000 A 
ATOM     13  C   UNL     1       3.409   5.028  18.895  0.00  0.00    +0.000 A 
ATOM     14  C   UNL     1       2.638   3.859  18.601  0.00  0.00    +0.000 A 
ATOM     15  H   UNL     1       2.294   1.258  16.777  0.00  0.00    +0.000 HD
ENDROOT
BRANCH  10  16
ATOM     16  C   UNL     1       7.605   7.610  17.720  0.00  0.00    +0.000 C 
ATOM     17  F   UNL     1       6.957   8.785  17.955  0.00  0.00    +0.000 F 
ATOM     18  F   UNL     1       8.425   7.416  18.790  0.00  0.00    +0.000 F 
ATOM     19  F   UNL     1       8.424   7.841  16.658  0.00  0.00    +0.000 F 
ENDBRANCH  10  16
BRANCH  13  20
ATOM     20  C   UNL     1       3.084   6.001  20.028  0.00  0.00    +0.000 C 
BRANCH  20  21
ATOM     21  N   UNL     1       2.773   7.394  19.587  0.00  0.00    +0.000 NA
ATOM     22  C   UNL     1       2.370   7.407  18.174  0.00  0.00    +0.000 C 
ATOM     23  C   UNL     1       1.986   8.758  17.564  0.00  0.00    +0.000 C 
ATOM     24  C   UNL     1       0.581   9.249  17.898  0.00  0.00    +0.000 C 
ATOM     25  O   UNL     1       0.196   9.248  19.263  0.00  0.00    +0.000 OA
ATOM     26  C   UNL     1       1.263   9.400  20.189  0.00  0.00    +0.000 C 
ATOM     27  C   UNL     1       1.832   8.017  20.540  0.00  0.00    +0.000 C 
ENDBRANCH  20  21
ENDBRANCH  13  20
TORSDOF 3
ENDMDL
MODEL 9
REMARK VINA RESULT:      -7.2      4.472      6.300
REMARK  Name = 
REMARK  4 active torsions:
REMARK  status: ('A' for Active; 'I' for Inactive)
REMARK    1  A    between atoms: C_1  and  C_2
REMARK    2  A    between atoms: C_10  and  C_11
REMARK    3  A    between atoms: C_17  and  C_18
REMARK    4  A    between atoms: C_18  and  N_19
REMARK                            x       y       z     vdW  Elec       q    Type
REMARK                         _______ _______ _______ _____ _____    ______ ____
ROOT
ATOM      1  C   UNL     1       5.501   5.073  19.373  0.00  0.00    +0.000 C 
ATOM      2  C   UNL     1       6.272   5.534  18.192  0.00  0.00    +0.000 A 
ATOM      3  N   UNL     1       7.042   6.626  18.369  0.00  0.00    +0.000 NA
ATOM      4  N   UNL     1       7.603   6.814  17.169  0.00  0.00    +0.000 N 
ATOM      5  C   UNL     1       7.233   5.898  16.240  0.00  0.00    +0.000 A 
ATOM      6  N   UNL     1       7.663   5.910  14.976  0.00  0.00    +0.000 NA
ATOM      7  C   UNL     1       7.155   4.954  14.210  0.00  0.00    +0.000 A 
ATOM      8  C   UNL     1       7.570   4.977  12.888  0.00  0.00    +0.000 A 
ATOM      9  C   UNL     1       7.120   4.051  11.951  0.00  0.00    +0.000 A 
ATOM     10  C   UNL     1       6.215   3.066  12.337  0.00  0.00    +0.000 A 
ATOM     11  C   UNL     1       5.782   3.042  13.669  0.00  0.00    +0.000 A 
ATOM     12  C   UNL     1       6.243   3.963  14.651  0.00  0.00    +0.000 A 
ATOM     13  C   UNL     1       5.841   3.955  16.039  0.00  0.00    +0.000 A 
ATOM     14  C   UNL     1       6.359   5.010  16.854  0.00  0.00    +0.000 A 
ATOM     15  H   UNL     1       8.230   7.595  17.029  0.00  0.00    +0.000 HD
ENDROOT
BRANCH  10  16
ATOM     16  C   UNL     1       5.709   2.041  11.352  0.00  0.00    +0.000 C 
ATOM     17  F   UNL     1       5.586   0.793  11.884  0.00  0.00    +0.000 F 
ATOM     18  F   UNL     1       4.480   2.357  10.856  0.00  0.00    +0.000 F 
ATOM     19  F   UNL     1       6.526   1.907  10.272  0.00  0.00    +0.000 F 
ENDBRANCH  10  16
BRANCH  13  20
ATOM     20  C   UNL     1       4.843   2.907  16.533  0.00  0.00    +0.000 C 
BRANCH  20  21
ATOM     21  N   UNL     1       3.956   3.363  17.645  0.00  0.00    +0.000 NA
ATOM     22  C   UNL     1       2.697   3.899  17.110  0.00  0.00    +0.000 C 
ATOM     23  C   UNL     1       1.655   4.387  18.120  0.00  0.00    +0.000 C 
ATOM     24  C   UNL     1       0.826   3.292  18.784  0.00  0.00    +0.000 C 
ATOM     25  O   UNL     1       1.526   2.199  19.355  0.00  0.00    +0.000 OA
ATOM     26  C   UNL     1       2.840   2.496  19.807  0.00  0.00    +0.000 C 
ATOM     27  C   UNL     1       3.832   2.289  18.652  0.00  0.00    +0.000 C 
ENDBRANCH  20  21
ENDBRANCH  13  20
TORSDOF 3
ENDMDL
