MODEL 1
REMARK VINA RESULT:      -7.6      0.000      0.000
REMARK  Name = 
REMARK  10 active torsions:
REMARK  status: ('A' for Active; 'I' for Inactive)
REMARK    1  A    between atoms: C_1  and  C_2
REMARK    2  A    between atoms: C_2  and  C_3
REMARK    3  A    between atoms: C_3  and  O_4
REMARK    4  A    between atoms: C_3  and  C_5
REMARK    5  A    between atoms: C_5  and  N_6
REMARK    6  A    between atoms: C_7  and  C_9
REMARK    7  A    between atoms: C_17  and  C_18
REMARK    8  A    between atoms: C_20  and  C_21
REMARK    9  A    between atoms: C_23  and  C_24
REMARK   10  A    between atoms: C_26  and  C_27
REMARK                            x       y       z     vdW  Elec       q    Type
REMARK                         _______ _______ _______ _____ _____    ______ ____
ROOT
ATOM      1  C   UNL     1       0.745  10.429  19.418  0.00  0.00    +0.000 A 
ATOM      2  C   UNL     1       1.119  10.177  18.075  0.00  0.00    +0.000 A 
ATOM      3  N   UNL     1       1.761   9.030  17.897  0.00  0.00    +0.000 NA
ATOM      4  N   UNL     1       1.752   8.443  19.129  0.00  0.00    +0.000 N 
ATOM      5  C   UNL     1       2.276   7.107  19.297  0.00  0.00    +0.000 A 
ATOM      6  N   UNL     1       1.792   6.335  20.295  0.00  0.00    +0.000 NA
ATOM      7  C   UNL     1       2.297   5.093  20.405  0.00  0.00    +0.000 A 
ATOM      8  C   UNL     1       3.288   4.605  19.589  0.00  0.00    +0.000 A 
ATOM      9  C   UNL     1       3.745   5.464  18.614  0.00  0.00    +0.000 A 
ATOM     10  N   UNL     1       3.227   6.694  18.441  0.00  0.00    +0.000 NA
ATOM     11  C   UNL     1       1.176   9.283  20.094  0.00  0.00    +0.000 A 
ENDROOT
BRANCH   9  12
ATOM     12  C   UNL     1       4.859   5.091  17.735  0.00  0.00    +0.000 A 
ATOM     13  C   UNL     1       4.757   4.615  16.379  0.00  0.00    +0.000 A 
ATOM     14  C   UNL     1       5.980   4.339  15.807  0.00  0.00    +0.000 A 
ATOM     15  C   UNL     1       6.277   3.841  14.434  0.00  0.00    +0.000 C 
ATOM     16  S   UNL     1       7.258   4.630  16.894  0.00  0.00    +0.000 S 
ATOM     17  C   UNL     1       6.189   5.122  18.143  0.00  0.00    +0.000 A 
ATOM     18  C   UNL     1       6.771   5.520  19.466  0.00  0.00    +0.000 C 
ENDBRANCH   9  12
BRANCH   1  20
ATOM     19  N   UNL     1      -1.186  11.598  20.278  0.00  0.00    +0.000 N 
ATOM     20  C   UNL     1       0.143  11.665  19.905  0.00  0.00    +0.000 C 
ATOM     21  O   UNL     1       0.734  12.744  19.962  0.00  0.00    +0.000 OA
ATOM     22  H   UNL     1      -1.696  10.729  20.214  0.00  0.00    +0.000 HD
BRANCH  19  23
ATOM     23  C   UNL     1      -1.895  12.810  20.664  0.00  0.00    +0.000 C 
BRANCH  23  24
ATOM     24  C   UNL     1      -1.847  13.086  22.185  0.00  0.00    +0.000 C 
BRANCH  24  26
ATOM     25  C   UNL     1      -3.462  12.287  23.980  0.00  0.00    +0.000 C 
ATOM     26  C   UNL     1      -2.400  11.888  22.964  0.00  0.00    +0.000 C 
ENDBRANCH  24  26
BRANCH  24  27
ATOM     27  O   UNL     1      -0.518  13.352  22.637  0.00  0.00    +0.000 OA
ATOM     28  H   UNL     1      -0.567  13.632  23.573  0.00  0.00    +0.000 HD
ENDBRANCH  24  27
ENDBRANCH  23  24
ENDBRANCH  19  23
ENDBRANCH   1  20
BRANCH  11  29
ATOM     29  C   UNL     1       1.131   8.903  21.584  0.00  0.00    +0.000 C 
ATOM     30  C   UNL     1       0.597   9.765  22.691  0.00  0.00    +0.000 C 
ATOM     31  C   UNL     1      -0.208   8.602  22.213  0.00  0.00    +0.000 C 
ENDBRANCH  11  29
TORSDOF 7
ENDMDL
MODEL 2
REMARK VINA RESULT:      -7.4      1.569      2.285
REMARK  Name = 
REMARK  10 active torsions:
REMARK  status: ('A' for Active; 'I' for Inactive)
REMARK    1  A    between atoms: C_1  and  C_2
REMARK    2  A    between atoms: C_2  and  C_3
REMARK    3  A    between atoms: C_3  and  O_4
REMARK    4  A    between atoms: C_3  and  C_5
REMARK    5  A    between atoms: C_5  and  N_6
REMARK    6  A    between atoms: C_7  and  C_9
REMARK    7  A    between atoms: C_17  and  C_18
REMARK    8  A    between atoms: C_20  and  C_21
REMARK    9  A    between atoms: C_23  and  C_24
REMARK   10  A    between atoms: C_26  and  C_27
REMARK                            x       y       z     vdW  Elec       q    Type
REMARK                         _______ _______ _______ _____ _____    ______ ____
ROOT
ATOM      1  C   UNL     1       0.654  10.295  19.446  0.00  0.00    +0.000 A 
ATOM      2  C   UNL     1       1.022  10.055  18.099  0.00  0.00    +0.000 A 
ATOM      3  N   UNL     1       1.691   8.926  17.912  0.00  0.00    +0.000 NA
ATOM      4  N   UNL     1       1.710   8.336  19.142  0.00  0.00    +0.000 N 
ATOM      5  C   UNL     1       2.270   7.014  19.302  0.00  0.00    +0.000 A 
ATOM      6  N   UNL     1       1.815   6.227  20.303  0.00  0.00    +0.000 NA
ATOM      7  C   UNL     1       2.354   4.998  20.405  0.00  0.00    +0.000 A 
ATOM      8  C   UNL     1       3.349   4.539  19.579  0.00  0.00    +0.000 A 
ATOM      9  C   UNL     1       3.775   5.411  18.601  0.00  0.00    +0.000 A 
ATOM     10  N   UNL     1       3.223   6.628  18.437  0.00  0.00    +0.000 NA
ATOM     11  C   UNL     1       1.121   9.158  20.115  0.00  0.00    +0.000 A 
ENDROOT
BRANCH   9  12
ATOM     12  C   UNL     1       4.890   5.069  17.711  0.00  0.00    +0.000 A 
ATOM     13  C   UNL     1       4.788   4.613  16.349  0.00  0.00    +0.000 A 
ATOM     14  C   UNL     1       6.012   4.364  15.766  0.00  0.00    +0.000 A 
ATOM     15  C   UNL     1       6.309   3.892  14.385  0.00  0.00    +0.000 C 
ATOM     16  S   UNL     1       7.291   4.660  16.851  0.00  0.00    +0.000 S 
ATOM     17  C   UNL     1       6.221   5.116  18.112  0.00  0.00    +0.000 A 
ATOM     18  C   UNL     1       6.804   5.502  19.438  0.00  0.00    +0.000 C 
ENDBRANCH   9  12
BRANCH   1  20
ATOM     19  N   UNL     1       0.873  12.492  20.424  0.00  0.00    +0.000 N 
ATOM     20  C   UNL     1       0.025  11.513  19.941  0.00  0.00    +0.000 C 
ATOM     21  O   UNL     1      -1.193  11.692  19.985  0.00  0.00    +0.000 OA
ATOM     22  H   UNL     1       1.873  12.354  20.423  0.00  0.00    +0.000 HD
BRANCH  19  23
ATOM     23  C   UNL     1       0.323  13.690  21.044  0.00  0.00    +0.000 C 
BRANCH  23  24
ATOM     24  C   UNL     1       0.158  14.867  20.056  0.00  0.00    +0.000 C 
BRANCH  24  26
ATOM     25  C   UNL     1       1.495  16.388  18.518  0.00  0.00    +0.000 C 
ATOM     26  C   UNL     1       1.421  15.031  19.204  0.00  0.00    +0.000 C 
ENDBRANCH  24  26
BRANCH  24  27
ATOM     27  O   UNL     1      -0.960  14.680  19.186  0.00  0.00    +0.000 OA
ATOM     28  H   UNL     1      -1.728  14.417  19.732  0.00  0.00    +0.000 HD
ENDBRANCH  24  27
ENDBRANCH  23  24
ENDBRANCH  19  23
ENDBRANCH   1  20
BRANCH  11  29
ATOM     29  C   UNL     1       1.100   8.774  21.604  0.00  0.00    +0.000 C 
ATOM     30  C   UNL     1       0.557   9.620  22.719  0.00  0.00    +0.000 C 
ATOM     31  C   UNL     1      -0.225   8.440  22.246  0.00  0.00    +0.000 C 
ENDBRANCH  11  29
TORSDOF 7
ENDMDL
MODEL 3
REMARK VINA RESULT:      -7.3      1.388      1.828
REMARK  Name = 
REMARK  10 active torsions:
REMARK  status: ('A' for Active; 'I' for Inactive)
REMARK    1  A    between atoms: C_1  and  C_2
REMARK    2  A    between atoms: C_2  and  C_3
REMARK    3  A    between atoms: C_3  and  O_4
REMARK    4  A    between atoms: C_3  and  C_5
REMARK    5  A    between atoms: C_5  and  N_6
REMARK    6  A    between atoms: C_7  and  C_9
REMARK    7  A    between atoms: C_17  and  C_18
REMARK    8  A    between atoms: C_20  and  C_21
REMARK    9  A    between atoms: C_23  and  C_24
REMARK   10  A    between atoms: C_26  and  C_27
REMARK                            x       y       z     vdW  Elec       q    Type
REMARK                         _______ _______ _______ _____ _____    ______ ____
ROOT
ATOM      1  C   UNL     1       0.583  10.196  19.390  0.00  0.00    +0.000 A 
ATOM      2  C   UNL     1       0.949   9.943  18.045  0.00  0.00    +0.000 A 
ATOM      3  N   UNL     1       1.648   8.828  17.874  0.00  0.00    +0.000 NA
ATOM      4  N   UNL     1       1.690   8.262  19.115  0.00  0.00    +0.000 N 
ATOM      5  C   UNL     1       2.287   6.959  19.295  0.00  0.00    +0.000 A 
ATOM      6  N   UNL     1       1.861   6.178  20.313  0.00  0.00    +0.000 NA
ATOM      7  C   UNL     1       2.434   4.967  20.433  0.00  0.00    +0.000 A 
ATOM      8  C   UNL     1       3.437   4.520  19.609  0.00  0.00    +0.000 A 
ATOM      9  C   UNL     1       3.832   5.385  18.614  0.00  0.00    +0.000 A 
ATOM     10  N   UNL     1       3.246   6.584  18.430  0.00  0.00    +0.000 NA
ATOM     11  C   UNL     1       1.085   9.085  20.076  0.00  0.00    +0.000 A 
ENDROOT
BRANCH   9  12
ATOM     12  C   UNL     1       4.951   5.058  17.723  0.00  0.00    +0.000 A 
ATOM     13  C   UNL     1       4.855   4.611  16.356  0.00  0.00    +0.000 A 
ATOM     14  C   UNL     1       6.082   4.376  15.774  0.00  0.00    +0.000 A 
ATOM     15  C   UNL     1       6.384   3.916  14.390  0.00  0.00    +0.000 C 
ATOM     16  S   UNL     1       7.357   4.673  16.864  0.00  0.00    +0.000 S 
ATOM     17  C   UNL     1       6.281   5.112  18.126  0.00  0.00    +0.000 A 
ATOM     18  C   UNL     1       6.859   5.493  19.456  0.00  0.00    +0.000 C 
ENDBRANCH   9  12
BRANCH   1  20
ATOM     19  N   UNL     1      -1.459  11.411  19.825  0.00  0.00    +0.000 N 
ATOM     20  C   UNL     1      -0.077  11.406  19.867  0.00  0.00    +0.000 C 
ATOM     21  O   UNL     1       0.521  12.408  20.259  0.00  0.00    +0.000 OA
ATOM     22  H   UNL     1      -1.967  10.610  19.482  0.00  0.00    +0.000 HD
BRANCH  19  23
ATOM     23  C   UNL     1      -2.192  12.621  20.173  0.00  0.00    +0.000 C 
BRANCH  23  24
ATOM     24  C   UNL     1      -3.654  12.612  19.672  0.00  0.00    +0.000 C 
BRANCH  24  26
ATOM     25  C   UNL     1      -4.882  11.892  17.564  0.00  0.00    +0.000 C 
ATOM     26  C   UNL     1      -3.854  11.514  18.622  0.00  0.00    +0.000 C 
ENDBRANCH  24  26
BRANCH  24  27
ATOM     27  O   UNL     1      -4.582  12.400  20.738  0.00  0.00    +0.000 OA
ATOM     28  H   UNL     1      -4.865  13.275  21.071  0.00  0.00    +0.000 HD
ENDBRANCH  24  27
ENDBRANCH  23  24
ENDBRANCH  19  23
ENDBRANCH   1  20
BRANCH  11  29
ATOM     29  C   UNL     1       1.083   8.728  21.572  0.00  0.00    +0.000 C 
ATOM     30  C   UNL     1       0.628   9.625  22.686  0.00  0.00    +0.000 C 
ATOM     31  C   UNL     1      -0.242   8.491  22.258  0.00  0.00    +0.000 C 
ENDBRANCH  11  29
TORSDOF 7
ENDMDL
MODEL 4
REMARK VINA RESULT:      -7.1      1.027      1.083
REMARK  Name = 
REMARK  10 active torsions:
REMARK  status: ('A' for Active; 'I' for Inactive)
REMARK    1  A    between atoms: C_1  and  C_2
REMARK    2  A    between atoms: C_2  and  C_3
REMARK    3  A    between atoms: C_3  and  O_4
REMARK    4  A    between atoms: C_3  and  C_5
REMARK    5  A    between atoms: C_5  and  N_6
REMARK    6  A    between atoms: C_7  and  C_9
REMARK    7  A    between atoms: C_17  and  C_18
REMARK    8  A    between atoms: C_20  and  C_21
REMARK    9  A    between atoms: C_23  and  C_24
REMARK   10  A    between atoms: C_26  and  C_27
REMARK                            x       y       z     vdW  Elec       q    Type
REMARK                         _______ _______ _______ _____ _____    ______ ____
ROOT
ATOM      1  C   UNL     1       0.543  10.149  19.448  0.00  0.00    +0.000 A 
ATOM      2  C   UNL     1       0.926   9.926  18.102  0.00  0.00    +0.000 A 
ATOM      3  N   UNL     1       1.633   8.819  17.916  0.00  0.00    +0.000 NA
ATOM      4  N   UNL     1       1.663   8.227  19.144  0.00  0.00    +0.000 N 
ATOM      5  C   UNL     1       2.264   6.922  19.303  0.00  0.00    +0.000 A 
ATOM      6  N   UNL     1       1.829   6.118  20.299  0.00  0.00    +0.000 NA
ATOM      7  C   UNL     1       2.406   4.907  20.400  0.00  0.00    +0.000 A 
ATOM      8  C   UNL     1       3.421   4.482  19.579  0.00  0.00    +0.000 A 
ATOM      9  C   UNL     1       3.824   5.371  18.607  0.00  0.00    +0.000 A 
ATOM     10  N   UNL     1       3.235   6.570  18.442  0.00  0.00    +0.000 NA
ATOM     11  C   UNL     1       1.042   9.026  20.115  0.00  0.00    +0.000 A 
ENDROOT
BRANCH   9  12
ATOM     12  C   UNL     1       4.955   5.068  17.722  0.00  0.00    +0.000 A 
ATOM     13  C   UNL     1       4.877   4.637  16.350  0.00  0.00    +0.000 A 
ATOM     14  C   UNL     1       6.111   4.424  15.776  0.00  0.00    +0.000 A 
ATOM     15  C   UNL     1       6.432   3.985  14.389  0.00  0.00    +0.000 C 
ATOM     16  S   UNL     1       7.373   4.721  16.881  0.00  0.00    +0.000 S 
ATOM     17  C   UNL     1       6.281   5.131  18.139  0.00  0.00    +0.000 A 
ATOM     18  C   UNL     1       6.842   5.501  19.479  0.00  0.00    +0.000 C 
ENDBRANCH   9  12
BRANCH   1  20
ATOM     19  N   UNL     1       0.596  12.144  20.808  0.00  0.00    +0.000 N 
ATOM     20  C   UNL     1      -0.128  11.345  19.943  0.00  0.00    +0.000 C 
ATOM     21  O   UNL     1      -1.289  11.649  19.667  0.00  0.00    +0.000 OA
ATOM     22  H   UNL     1       1.540  11.899  21.068  0.00  0.00    +0.000 HD
BRANCH  19  23
ATOM     23  C   UNL     1      -0.038  13.293  21.439  0.00  0.00    +0.000 C 
BRANCH  23  24
ATOM     24  C   UNL     1      -0.756  12.942  22.762  0.00  0.00    +0.000 C 
BRANCH  24  26
ATOM     25  C   UNL     1      -2.558  14.691  23.166  0.00  0.00    +0.000 C 
ATOM     26  C   UNL     1      -1.152  14.218  23.512  0.00  0.00    +0.000 C 
ENDBRANCH  24  26
BRANCH  24  27
ATOM     27  O   UNL     1      -1.931  12.159  22.539  0.00  0.00    +0.000 OA
ATOM     28  H   UNL     1      -2.233  12.320  21.623  0.00  0.00    +0.000 HD
ENDBRANCH  24  27
ENDBRANCH  23  24
ENDBRANCH  19  23
ENDBRANCH   1  20
BRANCH  11  29
ATOM     29  C   UNL     1       1.025   8.636  21.604  0.00  0.00    +0.000 C 
ATOM     30  C   UNL     1       0.686   9.552  22.744  0.00  0.00    +0.000 C 
ATOM     31  C   UNL     1      -0.307   8.527  22.307  0.00  0.00    +0.000 C 
ENDBRANCH  11  29
TORSDOF 7
ENDMDL
MODEL 5
REMARK VINA RESULT:      -7.1      0.896      1.073
REMARK  Name = 
REMARK  10 active torsions:
REMARK  status: ('A' for Active; 'I' for Inactive)
REMARK    1  A    between atoms: C_1  and  C_2
REMARK    2  A    between atoms: C_2  and  C_3
REMARK    3  A    between atoms: C_3  and  O_4
REMARK    4  A    between atoms: C_3  and  C_5
REMARK    5  A    between atoms: C_5  and  N_6
REMARK    6  A    between atoms: C_7  and  C_9
REMARK    7  A    between atoms: C_17  and  C_18
REMARK    8  A    between atoms: C_20  and  C_21
REMARK    9  A    between atoms: C_23  and  C_24
REMARK   10  A    between atoms: C_26  and  C_27
REMARK                            x       y       z     vdW  Elec       q    Type
REMARK                         _______ _______ _______ _____ _____    ______ ____
ROOT
ATOM      1  C   UNL     1       0.735  10.258  19.679  0.00  0.00    +0.000 A 
ATOM      2  C   UNL     1       1.106  10.087  18.322  0.00  0.00    +0.000 A 
ATOM      3  N   UNL     1       1.748   8.953  18.075  0.00  0.00    +0.000 NA
ATOM      4  N   UNL     1       1.743   8.294  19.269  0.00  0.00    +0.000 N 
ATOM      5  C   UNL     1       2.269   6.951  19.356  0.00  0.00    +0.000 A 
ATOM      6  N   UNL     1       1.788   6.120  20.308  0.00  0.00    +0.000 NA
ATOM      7  C   UNL     1       2.295   4.874  20.343  0.00  0.00    +0.000 A 
ATOM      8  C   UNL     1       3.285   4.437  19.497  0.00  0.00    +0.000 A 
ATOM      9  C   UNL     1       3.738   5.353  18.573  0.00  0.00    +0.000 A 
ATOM     10  N   UNL     1       3.219   6.591  18.475  0.00  0.00    +0.000 NA
ATOM     11  C   UNL     1       1.169   9.074  20.284  0.00  0.00    +0.000 A 
ENDROOT
BRANCH   9  12
ATOM     12  C   UNL     1       4.850   5.034  17.671  0.00  0.00    +0.000 A 
ATOM     13  C   UNL     1       4.743   4.573  16.310  0.00  0.00    +0.000 A 
ATOM     14  C   UNL     1       5.966   4.351  15.714  0.00  0.00    +0.000 A 
ATOM     15  C   UNL     1       6.257   3.883  14.330  0.00  0.00    +0.000 C 
ATOM     16  S   UNL     1       7.250   4.675  16.785  0.00  0.00    +0.000 S 
ATOM     17  C   UNL     1       6.185   5.110  18.057  0.00  0.00    +0.000 A 
ATOM     18  C   UNL     1       6.774   5.511  19.376  0.00  0.00    +0.000 C 
ENDBRANCH   9  12
BRANCH   1  20
ATOM     19  N   UNL     1      -1.104  11.312  20.837  0.00  0.00    +0.000 N 
ATOM     20  C   UNL     1       0.134  11.462  20.239  0.00  0.00    +0.000 C 
ATOM     21  O   UNL     1       0.642  12.582  20.174  0.00  0.00    +0.000 OA
ATOM     22  H   UNL     1      -1.550  10.407  20.876  0.00  0.00    +0.000 HD
BRANCH  19  23
ATOM     23  C   UNL     1      -1.827  12.481  21.317  0.00  0.00    +0.000 C 
BRANCH  23  24
ATOM     24  C   UNL     1      -2.601  13.220  20.202  0.00  0.00    +0.000 C 
BRANCH  24  26
ATOM     25  C   UNL     1      -4.325  13.013  22.061  0.00  0.00    +0.000 C 
ATOM     26  C   UNL     1      -4.035  13.517  20.653  0.00  0.00    +0.000 C 
ENDBRANCH  24  26
BRANCH  24  27
ATOM     27  O   UNL     1      -1.971  14.450  19.840  0.00  0.00    +0.000 OA
ATOM     28  H   UNL     1      -2.037  15.060  20.601  0.00  0.00    +0.000 HD
ENDBRANCH  24  27
ENDBRANCH  23  24
ENDBRANCH  19  23
ENDBRANCH   1  20
BRANCH  11  29
ATOM     29  C   UNL     1       1.129   8.607  21.749  0.00  0.00    +0.000 C 
ATOM     30  C   UNL     1       0.710   9.443  22.923  0.00  0.00    +0.000 C 
ATOM     31  C   UNL     1      -0.216   8.394  22.403  0.00  0.00    +0.000 C 
ENDBRANCH  11  29
TORSDOF 7
ENDMDL
MODEL 6
REMARK VINA RESULT:      -7.1      2.242      4.376
REMARK  Name = 
REMARK  10 active torsions:
REMARK  status: ('A' for Active; 'I' for Inactive)
REMARK    1  A    between atoms: C_1  and  C_2
REMARK    2  A    between atoms: C_2  and  C_3
REMARK    3  A    between atoms: C_3  and  O_4
REMARK    4  A    between atoms: C_3  and  C_5
REMARK    5  A    between atoms: C_5  and  N_6
REMARK    6  A    between atoms: C_7  and  C_9
REMARK    7  A    between atoms: C_17  and  C_18
REMARK    8  A    between atoms: C_20  and  C_21
REMARK    9  A    between atoms: C_23  and  C_24
REMARK   10  A    between atoms: C_26  and  C_27
REMARK                            x       y       z     vdW  Elec       q    Type
REMARK                         _______ _______ _______ _____ _____    ______ ____
ROOT
ATOM      1  C   UNL     1      -1.208  11.566  22.106  0.00  0.00    +0.000 A 
ATOM      2  C   UNL     1      -0.480  10.740  22.998  0.00  0.00    +0.000 A 
ATOM      3  N   UNL     1       0.291   9.841  22.398  0.00  0.00    +0.000 NA
ATOM      4  N   UNL     1       0.154  10.113  21.069  0.00  0.00    +0.000 N 
ATOM      5  C   UNL     1       0.947   9.392  20.098  0.00  0.00    +0.000 A 
ATOM      6  N   UNL     1       1.242   9.988  18.922  0.00  0.00    +0.000 NA
ATOM      7  C   UNL     1       1.995   9.287  18.055  0.00  0.00    +0.000 A 
ATOM      8  C   UNL     1       2.430   8.007  18.296  0.00  0.00    +0.000 A 
ATOM      9  C   UNL     1       2.064   7.462  19.507  0.00  0.00    +0.000 A 
ATOM     10  N   UNL     1       1.356   8.153  20.420  0.00  0.00    +0.000 NA
ATOM     11  C   UNL     1      -0.782  11.134  20.846  0.00  0.00    +0.000 A 
ENDROOT
BRANCH   9  12
ATOM     12  C   UNL     1       2.396   6.074  19.846  0.00  0.00    +0.000 A 
ATOM     13  C   UNL     1       1.650   5.205  20.720  0.00  0.00    +0.000 A 
ATOM     14  C   UNL     1       2.212   3.953  20.850  0.00  0.00    +0.000 A 
ATOM     15  C   UNL     1       1.730   2.794  21.653  0.00  0.00    +0.000 C 
ATOM     16  S   UNL     1       3.645   3.814  19.940  0.00  0.00    +0.000 S 
ATOM     17  C   UNL     1       3.532   5.428  19.369  0.00  0.00    +0.000 A 
ATOM     18  C   UNL     1       4.608   5.940  18.459  0.00  0.00    +0.000 C 
ENDBRANCH   9  12
BRANCH   1  20
ATOM     19  N   UNL     1      -3.521  12.098  22.550  0.00  0.00    +0.000 N 
ATOM     20  C   UNL     1      -2.214  12.545  22.500  0.00  0.00    +0.000 C 
ATOM     21  O   UNL     1      -1.968  13.726  22.745  0.00  0.00    +0.000 OA
ATOM     22  H   UNL     1      -3.747  11.140  22.327  0.00  0.00    +0.000 HD
BRANCH  19  23
ATOM     23  C   UNL     1      -4.601  13.037  22.820  0.00  0.00    +0.000 C 
BRANCH  23  24
ATOM     24  C   UNL     1      -5.205  12.882  24.234  0.00  0.00    +0.000 C 
BRANCH  24  26
ATOM     25  C   UNL     1      -7.272  12.470  22.812  0.00  0.00    +0.000 C 
ATOM     26  C   UNL     1      -6.736  12.906  24.168  0.00  0.00    +0.000 C 
ENDBRANCH  24  26
BRANCH  24  27
ATOM     27  O   UNL     1      -4.793  11.665  24.859  0.00  0.00    +0.000 OA
ATOM     28  H   UNL     1      -5.104  10.920  24.306  0.00  0.00    +0.000 HD
ENDBRANCH  24  27
ENDBRANCH  23  24
ENDBRANCH  19  23
ENDBRANCH   1  20
BRANCH  11  29
ATOM     29  C   UNL     1      -1.197  11.566  19.429  0.00  0.00    +0.000 C 
ATOM     30  C   UNL     1      -2.337  12.483  19.092  0.00  0.00    +0.000 C 
ATOM     31  C   UNL     1      -0.936  12.991  19.002  0.00  0.00    +0.000 C 
ENDBRANCH  11  29
TORSDOF 7
ENDMDL
MODEL 7
REMARK VINA RESULT:      -7.0      2.336      4.320
REMARK  Name = 
REMARK  10 active torsions:
REMARK  status: ('A' for Active; 'I' for Inactive)
REMARK    1  A    between atoms: C_1  and  C_2
REMARK    2  A    between atoms: C_2  and  C_3
REMARK    3  A    between atoms: C_3  and  O_4
REMARK    4  A    between atoms: C_3  and  C_5
REMARK    5  A    between atoms: C_5  and  N_6
REMARK    6  A    between atoms: C_7  and  C_9
REMARK    7  A    between atoms: C_17  and  C_18
REMARK    8  A    between atoms: C_20  and  C_21
REMARK    9  A    between atoms: C_23  and  C_24
REMARK   10  A    between atoms: C_26  and  C_27
REMARK                            x       y       z     vdW  Elec       q    Type
REMARK                         _______ _______ _______ _____ _____    ______ ____
ROOT
ATOM      1  C   UNL     1      -1.204  11.340  22.275  0.00  0.00    +0.000 A 
ATOM      2  C   UNL     1      -0.398  10.518  23.103  0.00  0.00    +0.000 A 
ATOM      3  N   UNL     1       0.378   9.673  22.437  0.00  0.00    +0.000 NA
ATOM      4  N   UNL     1       0.164   9.980  21.125  0.00  0.00    +0.000 N 
ATOM      5  C   UNL     1       0.937   9.325  20.095  0.00  0.00    +0.000 A 
ATOM      6  N   UNL     1       1.148   9.969  18.925  0.00  0.00    +0.000 NA
ATOM      7  C   UNL     1       1.885   9.328  18.000  0.00  0.00    +0.000 A 
ATOM      8  C   UNL     1       2.385   8.062  18.177  0.00  0.00    +0.000 A 
ATOM      9  C   UNL     1       2.103   7.464  19.386  0.00  0.00    +0.000 A 
ATOM     10  N   UNL     1       1.413   8.095  20.354  0.00  0.00    +0.000 NA
ATOM     11  C   UNL     1      -0.823  10.965  20.982  0.00  0.00    +0.000 A 
ENDROOT
BRANCH   9  12
ATOM     12  C   UNL     1       2.509   6.081  19.662  0.00  0.00    +0.000 A 
ATOM     13  C   UNL     1       1.898   5.183  20.608  0.00  0.00    +0.000 A 
ATOM     14  C   UNL     1       2.503   3.946  20.651  0.00  0.00    +0.000 A 
ATOM     15  C   UNL     1       2.154   2.765  21.491  0.00  0.00    +0.000 C 
ATOM     16  S   UNL     1       3.817   3.856  19.571  0.00  0.00    +0.000 S 
ATOM     17  C   UNL     1       3.594   5.472  19.041  0.00  0.00    +0.000 A 
ATOM     18  C   UNL     1       4.538   6.023  18.014  0.00  0.00    +0.000 C 
ENDBRANCH   9  12
BRANCH   1  20
ATOM     19  N   UNL     1      -1.934  13.609  22.664  0.00  0.00    +0.000 N 
ATOM     20  C   UNL     1      -2.229  12.261  22.750  0.00  0.00    +0.000 C 
ATOM     21  O   UNL     1      -3.300  11.906  23.244  0.00  0.00    +0.000 OA
ATOM     22  H   UNL     1      -1.050  13.920  22.288  0.00  0.00    +0.000 HD
BRANCH  19  23
ATOM     23  C   UNL     1      -2.852  14.591  23.222  0.00  0.00    +0.000 C 
BRANCH  23  24
ATOM     24  C   UNL     1      -2.686  14.784  24.747  0.00  0.00    +0.000 C 
BRANCH  24  26
ATOM     25  C   UNL     1      -4.257  16.756  25.084  0.00  0.00    +0.000 C 
ATOM     26  C   UNL     1      -2.815  16.266  25.116  0.00  0.00    +0.000 C 
ENDBRANCH  24  26
BRANCH  24  27
ATOM     27  O   UNL     1      -3.657  14.042  25.487  0.00  0.00    +0.000 OA
ATOM     28  H   UNL     1      -3.206  13.276  25.895  0.00  0.00    +0.000 HD
ENDBRANCH  24  27
ENDBRANCH  23  24
ENDBRANCH  19  23
ENDBRANCH   1  20
BRANCH  11  29
ATOM     29  C   UNL     1      -1.326  11.423  19.602  0.00  0.00    +0.000 C 
ATOM     30  C   UNL     1      -2.498  12.327  19.353  0.00  0.00    +0.000 C 
ATOM     31  C   UNL     1      -1.114  12.862  19.196  0.00  0.00    +0.000 C 
ENDBRANCH  11  29
TORSDOF 7
ENDMDL
MODEL 8
REMARK VINA RESULT:      -6.9      1.279      1.602
REMARK  Name = 
REMARK  10 active torsions:
REMARK  status: ('A' for Active; 'I' for Inactive)
REMARK    1  A    between atoms: C_1  and  C_2
REMARK    2  A    between atoms: C_2  and  C_3
REMARK    3  A    between atoms: C_3  and  O_4
REMARK    4  A    between atoms: C_3  and  C_5
REMARK    5  A    between atoms: C_5  and  N_6
REMARK    6  A    between atoms: C_7  and  C_9
REMARK    7  A    between atoms: C_17  and  C_18
REMARK    8  A    between atoms: C_20  and  C_21
REMARK    9  A    between atoms: C_23  and  C_24
REMARK   10  A    between atoms: C_26  and  C_27
REMARK                            x       y       z     vdW  Elec       q    Type
REMARK                         _______ _______ _______ _____ _____    ______ ____
ROOT
ATOM      1  C   UNL     1       0.654  10.235  19.485  0.00  0.00    +0.000 A 
ATOM      2  C   UNL     1       1.016  10.004  18.134  0.00  0.00    +0.000 A 
ATOM      3  N   UNL     1       1.692   8.880  17.938  0.00  0.00    +0.000 NA
ATOM      4  N   UNL     1       1.721   8.285  19.165  0.00  0.00    +0.000 N 
ATOM      5  C   UNL     1       2.291   6.965  19.315  0.00  0.00    +0.000 A 
ATOM      6  N   UNL     1       1.847   6.170  20.315  0.00  0.00    +0.000 NA
ATOM      7  C   UNL     1       2.395   4.945  20.407  0.00  0.00    +0.000 A 
ATOM      8  C   UNL     1       3.389   4.496  19.574  0.00  0.00    +0.000 A 
ATOM      9  C   UNL     1       3.803   5.376  18.598  0.00  0.00    +0.000 A 
ATOM     10  N   UNL     1       3.243   6.590  18.443  0.00  0.00    +0.000 NA
ATOM     11  C   UNL     1       1.132   9.098  20.145  0.00  0.00    +0.000 A 
ENDROOT
BRANCH   9  12
ATOM     12  C   UNL     1       4.916   5.046  17.701  0.00  0.00    +0.000 A 
ATOM     13  C   UNL     1       4.810   4.588  16.339  0.00  0.00    +0.000 A 
ATOM     14  C   UNL     1       6.032   4.353  15.748  0.00  0.00    +0.000 A 
ATOM     15  C   UNL     1       6.325   3.884  14.365  0.00  0.00    +0.000 C 
ATOM     16  S   UNL     1       7.315   4.664  16.824  0.00  0.00    +0.000 S 
ATOM     17  C   UNL     1       6.249   5.108  18.092  0.00  0.00    +0.000 A 
ATOM     18  C   UNL     1       6.837   5.502  19.414  0.00  0.00    +0.000 C 
ENDBRANCH   9  12
BRANCH   1  20
ATOM     19  N   UNL     1       0.774  12.603  19.942  0.00  0.00    +0.000 N 
ATOM     20  C   UNL     1       0.019  11.446  19.989  0.00  0.00    +0.000 C 
ATOM     21  O   UNL     1      -1.111  11.480  20.477  0.00  0.00    +0.000 OA
ATOM     22  H   UNL     1       1.713  12.591  19.571  0.00  0.00    +0.000 HD
BRANCH  19  23
ATOM     23  C   UNL     1       0.261  13.831  20.532  0.00  0.00    +0.000 C 
BRANCH  23  24
ATOM     24  C   UNL     1      -0.929  14.432  19.750  0.00  0.00    +0.000 C 
BRANCH  24  26
ATOM     25  C   UNL     1      -2.148  14.730  21.961  0.00  0.00    +0.000 C 
ATOM     26  C   UNL     1      -1.737  15.377  20.646  0.00  0.00    +0.000 C 
ENDBRANCH  24  26
BRANCH  24  27
ATOM     27  O   UNL     1      -0.498  15.154  18.595  0.00  0.00    +0.000 OA
ATOM     28  H   UNL     1      -0.006  15.943  18.897  0.00  0.00    +0.000 HD
ENDBRANCH  24  27
ENDBRANCH  23  24
ENDBRANCH  19  23
ENDBRANCH   1  20
BRANCH  11  29
ATOM     29  C   UNL     1       1.122   8.706  21.633  0.00  0.00    +0.000 C 
ATOM     30  C   UNL     1       0.680   9.585  22.766  0.00  0.00    +0.000 C 
ATOM     31  C   UNL     1      -0.208   8.476  22.310  0.00  0.00    +0.000 C 
ENDBRANCH  11  29
TORSDOF 7
ENDMDL
MODEL 9
REMARK VINA RESULT:      -6.9      2.246      4.380
REMARK  Name = 
REMARK  10 active torsions:
REMARK  status: ('A' for Active; 'I' for Inactive)
REMARK    1  A    between atoms: C_1  and  C_2
REMARK    2  A    between atoms: C_2  and  C_3
REMARK    3  A    between atoms: C_3  and  O_4
REMARK    4  A    between atoms: C_3  and  C_5
REMARK    5  A    between atoms: C_5  and  N_6
REMARK    6  A    between atoms: C_7  and  C_9
REMARK    7  A    between atoms: C_17  and  C_18
REMARK    8  A    between atoms: C_20  and  C_21
REMARK    9  A    between atoms: C_23  and  C_24
REMARK   10  A    between atoms: C_26  and  C_27
REMARK                            x       y       z     vdW  Elec       q    Type
REMARK                         _______ _______ _______ _____ _____    ______ ____
ROOT
ATOM      1  C   UNL     1      -1.138  11.380  22.625  0.00  0.00    +0.000 A 
ATOM      2  C   UNL     1      -0.365  10.490  23.410  0.00  0.00    +0.000 A 
ATOM      3  N   UNL     1       0.364   9.636  22.703  0.00  0.00    +0.000 NA
ATOM      4  N   UNL     1       0.152  10.003  21.407  0.00  0.00    +0.000 N 
ATOM      5  C   UNL     1       0.882   9.354  20.342  0.00  0.00    +0.000 A 
ATOM      6  N   UNL     1       1.111  10.033  19.196  0.00  0.00    +0.000 NA
ATOM      7  C   UNL     1       1.808   9.395  18.239  0.00  0.00    +0.000 A 
ATOM      8  C   UNL     1       2.249   8.100  18.360  0.00  0.00    +0.000 A 
ATOM      9  C   UNL     1       1.952   7.470  19.548  0.00  0.00    +0.000 A 
ATOM     10  N   UNL     1       1.302   8.093  20.549  0.00  0.00    +0.000 NA
ATOM     11  C   UNL     1      -0.789  11.039  21.314  0.00  0.00    +0.000 A 
ENDROOT
BRANCH   9  12
ATOM     12  C   UNL     1       2.294   6.059  19.766  0.00  0.00    +0.000 A 
ATOM     13  C   UNL     1       1.600   5.133  20.623  0.00  0.00    +0.000 A 
ATOM     14  C   UNL     1       2.160   3.874  20.628  0.00  0.00    +0.000 A 
ATOM     15  C   UNL     1       1.723   2.661  21.376  0.00  0.00    +0.000 C 
ATOM     16  S   UNL     1       3.530   3.796  19.619  0.00  0.00    +0.000 S 
ATOM     17  C   UNL     1       3.392   5.446  19.171  0.00  0.00    +0.000 A 
ATOM     18  C   UNL     1       4.411   6.018  18.232  0.00  0.00    +0.000 C 
ENDBRANCH   9  12
BRANCH   1  20
ATOM     19  N   UNL     1      -3.350  11.815  23.492  0.00  0.00    +0.000 N 
ATOM     20  C   UNL     1      -2.114  12.329  23.146  0.00  0.00    +0.000 C 
ATOM     21  O   UNL     1      -1.910  13.539  23.254  0.00  0.00    +0.000 OA
ATOM     22  H   UNL     1      -3.546  10.831  23.386  0.00  0.00    +0.000 HD
BRANCH  19  23
ATOM     23  C   UNL     1      -4.419  12.711  23.911  0.00  0.00    +0.000 C 
BRANCH  23  24
ATOM     24  C   UNL     1      -5.424  13.030  22.781  0.00  0.00    +0.000 C 
BRANCH  24  26
ATOM     25  C   UNL     1      -4.909  15.457  23.337  0.00  0.00    +0.000 C 
ATOM     26  C   UNL     1      -5.187  14.442  22.236  0.00  0.00    +0.000 C 
ENDBRANCH  24  26
BRANCH  24  27
ATOM     27  O   UNL     1      -5.324  12.100  21.701  0.00  0.00    +0.000 OA
ATOM     28  H   UNL     1      -4.376  11.919  21.542  0.00  0.00    +0.000 HD
ENDBRANCH  24  27
ENDBRANCH  23  24
ENDBRANCH  19  23
ENDBRANCH   1  20
BRANCH  11  29
ATOM     29  C   UNL     1      -1.284  11.574  19.958  0.00  0.00    +0.000 C 
ATOM     30  C   UNL     1      -2.367  12.594  19.762  0.00  0.00    +0.000 C 
ATOM     31  C   UNL     1      -0.942  12.993  19.573  0.00  0.00    +0.000 C 
ENDBRANCH  11  29
TORSDOF 7
ENDMDL
