MODEL 1
REMARK VINA RESULT:      -8.2      0.000      0.000
REMARK  Name = 
REMARK  12 active torsions:
REMARK  status: ('A' for Active; 'I' for Inactive)
REMARK    1  A    between atoms: C_1  and  C_2
REMARK    2  A    between atoms: C_2  and  C_3
REMARK    3  A    between atoms: C_3  and  C_4
REMARK    4  A    between atoms: C_4  and  C_5
REMARK    5  A    between atoms: C_5  and  C_6
REMARK    6  A    between atoms: C_6  and  C_7
REMARK    7  A    between atoms: C_7  and  C_8
REMARK    8  A    between atoms: C_11  and  C_12
REMARK    9  A    between atoms: N_16  and  C1*_17
REMARK   10  A    between atoms: C3*_19  and  O3*_20
REMARK   11  A    between atoms: C4*_21  and  C5*_22
REMARK   12  A    between atoms: C5*_22  and  O5*_23
REMARK                            x       y       z     vdW  Elec       q    Type
REMARK                         _______ _______ _______ _____ _____    ______ ____
ROOT
ATOM      1  C   UNL     1       3.092   6.906  18.130  0.00  0.00    +0.000 A 
ATOM      2  C   UNL     1       2.602   8.119  17.831  0.00  0.00    +0.000 A 
ATOM      3  C   UNL     1       1.838   8.651  18.922  0.00  0.00    +0.000 A 
ATOM      4  C   UNL     1       1.163   9.787  19.054  0.00  0.00    +0.000 A 
ATOM      5  N   UNL     1       0.464  10.053  20.219  0.00  0.00    +0.000 N 
ATOM      6  C   UNL     1       0.501   9.183  21.328  0.00  0.00    +0.000 A 
ATOM      7  O   UNL     1      -0.070   9.483  22.374  0.00  0.00    +0.000 OA
ATOM      8  N   UNL     1       1.185   7.992  21.216  0.00  0.00    +0.000 NA
ATOM      9  C   UNL     1       1.778   7.773  20.102  0.00  0.00    +0.000 A 
ATOM     10  S   UNL     1       2.694   6.322  19.725  0.00  0.00    +0.000 S 
ENDROOT
BRANCH   1  14
ATOM     11  C   UNL     1       5.481   4.507  15.535  0.00  0.00    +0.000 A 
ATOM     12  C   UNL     1       5.509   5.906  15.446  0.00  0.00    +0.000 A 
ATOM     13  C   UNL     1       4.732   6.689  16.299  0.00  0.00    +0.000 A 
ATOM     14  C   UNL     1       3.909   6.084  17.252  0.00  0.00    +0.000 A 
ATOM     15  C   UNL     1       3.859   4.687  17.331  0.00  0.00    +0.000 A 
ATOM     16  C   UNL     1       4.642   3.904  16.480  0.00  0.00    +0.000 A 
BRANCH  11  17
ATOM     17  C   UNL     1       6.343   3.664  14.627  0.00  0.00    +0.000 C 
BRANCH  17  18
ATOM     18  C   UNL     1       6.173   4.058  13.159  0.00  0.00    +0.000 C 
BRANCH  18  19
ATOM     19  C   UNL     1       5.137   3.182  12.459  0.00  0.00    +0.000 C 
BRANCH  19  20
ATOM     20  C   UNL     1       4.633   3.866  11.189  0.00  0.00    +0.000 C 
BRANCH  20  21
ATOM     21  C   UNL     1       3.303   3.276  10.728  0.00  0.00    +0.000 C 
BRANCH  21  23
ATOM     22  C   UNL     1       2.217   4.963   9.213  0.00  0.00    +0.000 C 
ATOM     23  C   UNL     1       3.006   3.667   9.282  0.00  0.00    +0.000 C 
ENDBRANCH  21  23
ENDBRANCH  20  21
ENDBRANCH  19  20
ENDBRANCH  18  19
ENDBRANCH  17  18
ENDBRANCH  11  17
ENDBRANCH   1  14
BRANCH   5  24
ATOM     24  C1* UNL     1      -0.322  11.269  20.357  0.00  0.00    +0.000 C 
ATOM     25  C2* UNL     1       0.213  12.444  19.554  0.00  0.00    +0.000 C 
ATOM     26  C3* UNL     1      -1.040  13.245  19.281  0.00  0.00    +0.000 C 
ATOM     27  C4* UNL     1      -2.122  12.177  19.148  0.00  0.00    +0.000 C 
ATOM     28  O4* UNL     1      -1.677  11.036  19.920  0.00  0.00    +0.000 OA
BRANCH  26  29
ATOM     29  O3* UNL     1      -1.302  14.113  20.385  0.00  0.00    +0.000 OA
ATOM     30  H3* UNL     1      -1.569  13.588  21.160  0.00  0.00    +0.000 HD
ENDBRANCH  26  29
BRANCH  27  31
ATOM     31  C5* UNL     1      -2.321  11.717  17.701  0.00  0.00    +0.000 C 
BRANCH  31  32
ATOM     32  O5* UNL     1      -3.652  11.997  17.269  0.00  0.00    +0.000 OA
ATOM     33  H5* UNL     1      -4.137  12.321  18.051  0.00  0.00    +0.000 HD
ENDBRANCH  31  32
ENDBRANCH  27  31
ENDBRANCH   5  24
TORSDOF 11
ENDMDL
MODEL 2
REMARK VINA RESULT:      -7.7      3.885      5.475
REMARK  Name = 
REMARK  12 active torsions:
REMARK  status: ('A' for Active; 'I' for Inactive)
REMARK    1  A    between atoms: C_1  and  C_2
REMARK    2  A    between atoms: C_2  and  C_3
REMARK    3  A    between atoms: C_3  and  C_4
REMARK    4  A    between atoms: C_4  and  C_5
REMARK    5  A    between atoms: C_5  and  C_6
REMARK    6  A    between atoms: C_6  and  C_7
REMARK    7  A    between atoms: C_7  and  C_8
REMARK    8  A    between atoms: C_11  and  C_12
REMARK    9  A    between atoms: N_16  and  C1*_17
REMARK   10  A    between atoms: C3*_19  and  O3*_20
REMARK   11  A    between atoms: C4*_21  and  C5*_22
REMARK   12  A    between atoms: C5*_22  and  O5*_23
REMARK                            x       y       z     vdW  Elec       q    Type
REMARK                         _______ _______ _______ _____ _____    ______ ____
ROOT
ATOM      1  C   UNL     1       0.676   9.385  20.307  0.00  0.00    +0.000 A 
ATOM      2  C   UNL     1      -0.305  10.130  19.775  0.00  0.00    +0.000 A 
ATOM      3  C   UNL     1      -0.953  10.923  20.778  0.00  0.00    +0.000 A 
ATOM      4  C   UNL     1      -1.974  11.770  20.708  0.00  0.00    +0.000 A 
ATOM      5  N   UNL     1      -2.444  12.394  21.852  0.00  0.00    +0.000 N 
ATOM      6  C   UNL     1      -1.822  12.223  23.105  0.00  0.00    +0.000 A 
ATOM      7  O   UNL     1      -2.217  12.849  24.087  0.00  0.00    +0.000 OA
ATOM      8  N   UNL     1      -0.768  11.343  23.210  0.00  0.00    +0.000 NA
ATOM      9  C   UNL     1      -0.399  10.758  22.132  0.00  0.00    +0.000 A 
ATOM     10  S   UNL     1       0.906   9.586  22.025  0.00  0.00    +0.000 S 
ENDROOT
BRANCH   1  14
ATOM     11  C   UNL     1       3.210   6.694  18.179  0.00  0.00    +0.000 A 
ATOM     12  C   UNL     1       2.823   6.421  19.498  0.00  0.00    +0.000 A 
ATOM     13  C   UNL     1       1.989   7.299  20.191  0.00  0.00    +0.000 A 
ATOM     14  C   UNL     1       1.534   8.468  19.575  0.00  0.00    +0.000 A 
ATOM     15  C   UNL     1       1.936   8.758  18.265  0.00  0.00    +0.000 A 
ATOM     16  C   UNL     1       2.766   7.875  17.571  0.00  0.00    +0.000 A 
BRANCH  11  17
ATOM     17  C   UNL     1       4.091   5.729  17.423  0.00  0.00    +0.000 C 
BRANCH  17  18
ATOM     18  C   UNL     1       3.932   4.296  17.938  0.00  0.00    +0.000 C 
BRANCH  18  19
ATOM     19  C   UNL     1       2.672   3.638  17.385  0.00  0.00    +0.000 C 
BRANCH  19  20
ATOM     20  C   UNL     1       2.288   2.428  18.234  0.00  0.00    +0.000 C 
BRANCH  20  21
ATOM     21  C   UNL     1       0.868   2.558  18.780  0.00  0.00    +0.000 C 
BRANCH  21  23
ATOM     22  C   UNL     1       1.633   2.936  21.145  0.00  0.00    +0.000 C 
ATOM     23  C   UNL     1       0.832   3.497  19.984  0.00  0.00    +0.000 C 
ENDBRANCH  21  23
ENDBRANCH  20  21
ENDBRANCH  19  20
ENDBRANCH  18  19
ENDBRANCH  17  18
ENDBRANCH  11  17
ENDBRANCH   1  14
BRANCH   5  24
ATOM     24  C1* UNL     1      -3.594  13.283  21.799  0.00  0.00    +0.000 C 
ATOM     25  C2* UNL     1      -3.812  13.929  20.439  0.00  0.00    +0.000 C 
ATOM     26  C3* UNL     1      -5.307  14.156  20.427  0.00  0.00    +0.000 C 
ATOM     27  C4* UNL     1      -5.852  12.974  21.222  0.00  0.00    +0.000 C 
ATOM     28  O4* UNL     1      -4.798  12.557  22.123  0.00  0.00    +0.000 OA
BRANCH  26  29
ATOM     29  O3* UNL     1      -5.607  15.396  21.069  0.00  0.00    +0.000 OA
ATOM     30  H3* UNL     1      -4.887  16.032  20.910  0.00  0.00    +0.000 HD
ENDBRANCH  26  29
BRANCH  27  31
ATOM     31  C5* UNL     1      -6.210  11.780  20.333  0.00  0.00    +0.000 C 
BRANCH  31  32
ATOM     32  O5* UNL     1      -6.983  10.829  21.064  0.00  0.00    +0.000 OA
ATOM     33  H5* UNL     1      -7.453  11.327  21.760  0.00  0.00    +0.000 HD
ENDBRANCH  31  32
ENDBRANCH  27  31
ENDBRANCH   5  24
TORSDOF 11
ENDMDL
MODEL 3
REMARK VINA RESULT:      -7.6      0.984      1.674
REMARK  Name = 
REMARK  12 active torsions:
REMARK  status: ('A' for Active; 'I' for Inactive)
REMARK    1  A    between atoms: C_1  and  C_2
REMARK    2  A    between atoms: C_2  and  C_3
REMARK    3  A    between atoms: C_3  and  C_4
REMARK    4  A    between atoms: C_4  and  C_5
REMARK    5  A    between atoms: C_5  and  C_6
REMARK    6  A    between atoms: C_6  and  C_7
REMARK    7  A    between atoms: C_7  and  C_8
REMARK    8  A    between atoms: C_11  and  C_12
REMARK    9  A    between atoms: N_16  and  C1*_17
REMARK   10  A    between atoms: C3*_19  and  O3*_20
REMARK   11  A    between atoms: C4*_21  and  C5*_22
REMARK   12  A    between atoms: C5*_22  and  O5*_23
REMARK                            x       y       z     vdW  Elec       q    Type
REMARK                         _______ _______ _______ _____ _____    ______ ____
ROOT
ATOM      1  C   UNL     1       2.867   7.034  18.376  0.00  0.00    +0.000 A 
ATOM      2  C   UNL     1       2.359   8.235  18.062  0.00  0.00    +0.000 A 
ATOM      3  C   UNL     1       1.568   8.759  19.138  0.00  0.00    +0.000 A 
ATOM      4  C   UNL     1       0.869   9.882  19.251  0.00  0.00    +0.000 A 
ATOM      5  N   UNL     1       0.146  10.142  20.403  0.00  0.00    +0.000 N 
ATOM      6  C   UNL     1       0.181   9.279  21.518  0.00  0.00    +0.000 A 
ATOM      7  O   UNL     1      -0.411   9.575  22.553  0.00  0.00    +0.000 OA
ATOM      8  N   UNL     1       0.890   8.101  21.425  0.00  0.00    +0.000 NA
ATOM      9  C   UNL     1       1.505   7.888  20.322  0.00  0.00    +0.000 A 
ATOM     10  S   UNL     1       2.454   6.452  19.968  0.00  0.00    +0.000 S 
ENDROOT
BRANCH   1  14
ATOM     11  C   UNL     1       5.358   4.639  15.876  0.00  0.00    +0.000 A 
ATOM     12  C   UNL     1       4.445   4.044  16.758  0.00  0.00    +0.000 A 
ATOM     13  C   UNL     1       3.627   4.829  17.571  0.00  0.00    +0.000 A 
ATOM     14  C   UNL     1       3.714   6.222  17.517  0.00  0.00    +0.000 A 
ATOM     15  C   UNL     1       4.639   6.822  16.655  0.00  0.00    +0.000 A 
ATOM     16  C   UNL     1       5.454   6.036  15.837  0.00  0.00    +0.000 A 
BRANCH  11  17
ATOM     17  C   UNL     1       6.224   3.787  14.979  0.00  0.00    +0.000 C 
BRANCH  17  18
ATOM     18  C   UNL     1       6.818   4.601  13.828  0.00  0.00    +0.000 C 
BRANCH  18  19
ATOM     19  C   UNL     1       6.486   3.981  12.473  0.00  0.00    +0.000 C 
BRANCH  19  20
ATOM     20  C   UNL     1       5.125   3.289  12.525  0.00  0.00    +0.000 C 
BRANCH  20  21
ATOM     21  C   UNL     1       4.581   3.023  11.124  0.00  0.00    +0.000 C 
BRANCH  21  23
ATOM     22  C   UNL     1       2.883   3.734   9.411  0.00  0.00    +0.000 C 
ATOM     23  C   UNL     1       3.557   4.084  10.726  0.00  0.00    +0.000 C 
ENDBRANCH  21  23
ENDBRANCH  20  21
ENDBRANCH  19  20
ENDBRANCH  18  19
ENDBRANCH  17  18
ENDBRANCH  11  17
ENDBRANCH   1  14
BRANCH   5  24
ATOM     24  C1* UNL     1      -0.665  11.343  20.521  0.00  0.00    +0.000 C 
ATOM     25  C2* UNL     1       0.061  12.519  21.158  0.00  0.00    +0.000 C 
ATOM     26  C3* UNL     1      -0.641  13.705  20.536  0.00  0.00    +0.000 C 
ATOM     27  C4* UNL     1      -0.997  13.214  19.137  0.00  0.00    +0.000 C 
ATOM     28  O4* UNL     1      -1.110  11.773  19.218  0.00  0.00    +0.000 OA
BRANCH  26  29
ATOM     29  O3* UNL     1      -1.813  14.016  21.291  0.00  0.00    +0.000 OA
ATOM     30  H3* UNL     1      -2.372  14.636  20.789  0.00  0.00    +0.000 HD
ENDBRANCH  26  29
BRANCH  27  31
ATOM     31  C5* UNL     1       0.083  13.544  18.103  0.00  0.00    +0.000 C 
BRANCH  31  32
ATOM     32  O5* UNL     1       1.356  13.668  18.737  0.00  0.00    +0.000 OA
ATOM     33  H5* UNL     1       1.731  12.768  18.790  0.00  0.00    +0.000 HD
ENDBRANCH  31  32
ENDBRANCH  27  31
ENDBRANCH   5  24
TORSDOF 11
ENDMDL
MODEL 4
REMARK VINA RESULT:      -7.5      3.768      5.611
REMARK  Name = 
REMARK  12 active torsions:
REMARK  status: ('A' for Active; 'I' for Inactive)
REMARK    1  A    between atoms: C_1  and  C_2
REMARK    2  A    between atoms: C_2  and  C_3
REMARK    3  A    between atoms: C_3  and  C_4
REMARK    4  A    between atoms: C_4  and  C_5
REMARK    5  A    between atoms: C_5  and  C_6
REMARK    6  A    between atoms: C_6  and  C_7
REMARK    7  A    between atoms: C_7  and  C_8
REMARK    8  A    between atoms: C_11  and  C_12
REMARK    9  A    between atoms: N_16  and  C1*_17
REMARK   10  A    between atoms: C3*_19  and  O3*_20
REMARK   11  A    between atoms: C4*_21  and  C5*_22
REMARK   12  A    between atoms: C5*_22  and  O5*_23
REMARK                            x       y       z     vdW  Elec       q    Type
REMARK                         _______ _______ _______ _____ _____    ______ ____
ROOT
ATOM      1  C   UNL     1       1.332   9.662  19.123  0.00  0.00    +0.000 A 
ATOM      2  C   UNL     1       0.194   9.800  19.821  0.00  0.00    +0.000 A 
ATOM      3  C   UNL     1      -0.269  11.156  19.792  0.00  0.00    +0.000 A 
ATOM      4  C   UNL     1      -1.319  11.741  20.357  0.00  0.00    +0.000 A 
ATOM      5  N   UNL     1      -1.529  13.101  20.203  0.00  0.00    +0.000 N 
ATOM      6  C   UNL     1      -0.697  13.898  19.389  0.00  0.00    +0.000 A 
ATOM      7  O   UNL     1      -0.953  15.087  19.213  0.00  0.00    +0.000 OA
ATOM      8  N   UNL     1       0.405  13.320  18.799  0.00  0.00    +0.000 NA
ATOM      9  C   UNL     1       0.579  12.069  19.008  0.00  0.00    +0.000 A 
ATOM     10  S   UNL     1       1.919  11.125  18.375  0.00  0.00    +0.000 S 
ENDROOT
BRANCH   1  14
ATOM     11  C   UNL     1       3.492   6.025  18.580  0.00  0.00    +0.000 A 
ATOM     12  C   UNL     1       3.517   7.026  17.599  0.00  0.00    +0.000 A 
ATOM     13  C   UNL     1       2.815   8.218  17.781  0.00  0.00    +0.000 A 
ATOM     14  C   UNL     1       2.072   8.423  18.946  0.00  0.00    +0.000 A 
ATOM     15  C   UNL     1       2.024   7.418  19.919  0.00  0.00    +0.000 A 
ATOM     16  C   UNL     1       2.732   6.228  19.739  0.00  0.00    +0.000 A 
BRANCH  11  17
ATOM     17  C   UNL     1       4.274   4.747  18.391  0.00  0.00    +0.000 C 
BRANCH  17  18
ATOM     18  C   UNL     1       3.789   3.962  17.171  0.00  0.00    +0.000 C 
BRANCH  18  19
ATOM     19  C   UNL     1       2.831   2.842  17.569  0.00  0.00    +0.000 C 
BRANCH  19  20
ATOM     20  C   UNL     1       1.491   3.423  18.016  0.00  0.00    +0.000 C 
BRANCH  20  21
ATOM     21  C   UNL     1       0.827   2.543  19.072  0.00  0.00    +0.000 C 
BRANCH  21  23
ATOM     22  C   UNL     1       2.072   2.739  21.247  0.00  0.00    +0.000 C 
ATOM     23  C   UNL     1       0.873   3.211  20.445  0.00  0.00    +0.000 C 
ENDBRANCH  21  23
ENDBRANCH  20  21
ENDBRANCH  19  20
ENDBRANCH  18  19
ENDBRANCH  17  18
ENDBRANCH  11  17
ENDBRANCH   1  14
BRANCH   5  24
ATOM     24  C1* UNL     1      -2.644  13.764  20.859  0.00  0.00    +0.000 C 
ATOM     25  C2* UNL     1      -3.967  13.023  20.728  0.00  0.00    +0.000 C 
ATOM     26  C3* UNL     1      -4.699  13.448  21.981  0.00  0.00    +0.000 C 
ATOM     27  C4* UNL     1      -3.583  13.606  23.009  0.00  0.00    +0.000 C 
ATOM     28  O4* UNL     1      -2.376  13.910  22.269  0.00  0.00    +0.000 OA
BRANCH  26  29
ATOM     29  O3* UNL     1      -5.367  14.688  21.746  0.00  0.00    +0.000 OA
ATOM     30  H3* UNL     1      -5.951  14.894  22.497  0.00  0.00    +0.000 HD
ENDBRANCH  26  29
BRANCH  27  31
ATOM     31  C5* UNL     1      -3.333  12.325  23.809  0.00  0.00    +0.000 C 
BRANCH  31  32
ATOM     32  O5* UNL     1      -4.488  11.983  24.575  0.00  0.00    +0.000 OA
ATOM     33  H5* UNL     1      -4.784  11.109  24.258  0.00  0.00    +0.000 HD
ENDBRANCH  31  32
ENDBRANCH  27  31
ENDBRANCH   5  24
TORSDOF 11
ENDMDL
MODEL 5
REMARK VINA RESULT:      -7.5      1.192      1.639
REMARK  Name = 
REMARK  12 active torsions:
REMARK  status: ('A' for Active; 'I' for Inactive)
REMARK    1  A    between atoms: C_1  and  C_2
REMARK    2  A    between atoms: C_2  and  C_3
REMARK    3  A    between atoms: C_3  and  C_4
REMARK    4  A    between atoms: C_4  and  C_5
REMARK    5  A    between atoms: C_5  and  C_6
REMARK    6  A    between atoms: C_6  and  C_7
REMARK    7  A    between atoms: C_7  and  C_8
REMARK    8  A    between atoms: C_11  and  C_12
REMARK    9  A    between atoms: N_16  and  C1*_17
REMARK   10  A    between atoms: C3*_19  and  O3*_20
REMARK   11  A    between atoms: C4*_21  and  C5*_22
REMARK   12  A    between atoms: C5*_22  and  O5*_23
REMARK                            x       y       z     vdW  Elec       q    Type
REMARK                         _______ _______ _______ _____ _____    ______ ____
ROOT
ATOM      1  C   UNL     1       2.555   7.199  18.748  0.00  0.00    +0.000 A 
ATOM      2  C   UNL     1       2.074   8.412  18.434  0.00  0.00    +0.000 A 
ATOM      3  C   UNL     1       1.303   8.957  19.512  0.00  0.00    +0.000 A 
ATOM      4  C   UNL     1       0.633  10.098  19.627  0.00  0.00    +0.000 A 
ATOM      5  N   UNL     1      -0.076  10.378  20.783  0.00  0.00    +0.000 N 
ATOM      6  C   UNL     1      -0.055   9.518  21.900  0.00  0.00    +0.000 A 
ATOM      7  O   UNL     1      -0.633   9.831  22.938  0.00  0.00    +0.000 OA
ATOM      8  N   UNL     1       0.624   8.323  21.806  0.00  0.00    +0.000 NA
ATOM      9  C   UNL     1       1.227   8.091  20.700  0.00  0.00    +0.000 A 
ATOM     10  S   UNL     1       2.139   6.632  20.344  0.00  0.00    +0.000 S 
ENDROOT
BRANCH   1  14
ATOM     11  C   UNL     1       4.960   4.768  16.199  0.00  0.00    +0.000 A 
ATOM     12  C   UNL     1       5.166   6.154  16.271  0.00  0.00    +0.000 A 
ATOM     13  C   UNL     1       4.383   6.946  17.110  0.00  0.00    +0.000 A 
ATOM     14  C   UNL     1       3.376   6.365  17.885  0.00  0.00    +0.000 A 
ATOM     15  C   UNL     1       3.151   4.986  17.801  0.00  0.00    +0.000 A 
ATOM     16  C   UNL     1       3.939   4.192  16.965  0.00  0.00    +0.000 A 
BRANCH  11  17
ATOM     17  C   UNL     1       5.827   3.910  15.309  0.00  0.00    +0.000 C 
BRANCH  17  18
ATOM     18  C   UNL     1       6.704   4.758  14.386  0.00  0.00    +0.000 C 
BRANCH  18  19
ATOM     19  C   UNL     1       6.460   4.422  12.917  0.00  0.00    +0.000 C 
BRANCH  19  20
ATOM     20  C   UNL     1       5.919   3.000  12.779  0.00  0.00    +0.000 C 
BRANCH  20  21
ATOM     21  C   UNL     1       5.167   2.815  11.465  0.00  0.00    +0.000 C 
BRANCH  21  23
ATOM     22  C   UNL     1       3.346   3.836  10.064  0.00  0.00    +0.000 C 
ATOM     23  C   UNL     1       3.853   3.595  11.474  0.00  0.00    +0.000 C 
ENDBRANCH  21  23
ENDBRANCH  20  21
ENDBRANCH  19  20
ENDBRANCH  18  19
ENDBRANCH  17  18
ENDBRANCH  11  17
ENDBRANCH   1  14
BRANCH   5  24
ATOM     24  C1* UNL     1      -0.857  11.599  20.903  0.00  0.00    +0.000 C 
ATOM     25  C2* UNL     1      -0.051  12.805  21.361  0.00  0.00    +0.000 C 
ATOM     26  C3* UNL     1      -0.809  13.955  20.737  0.00  0.00    +0.000 C 
ATOM     27  C4* UNL     1      -1.331  13.368  19.429  0.00  0.00    +0.000 C 
ATOM     28  O4* UNL     1      -1.446  11.939  19.631  0.00  0.00    +0.000 OA
BRANCH  26  29
ATOM     29  O3* UNL     1      -1.883  14.341  21.596  0.00  0.00    +0.000 OA
ATOM     30  H3* UNL     1      -1.780  15.276  21.850  0.00  0.00    +0.000 HD
ENDBRANCH  26  29
BRANCH  27  31
ATOM     31  C5* UNL     1      -0.375  13.601  18.256  0.00  0.00    +0.000 C 
BRANCH  31  32
ATOM     32  O5* UNL     1       0.746  14.379  18.674  0.00  0.00    +0.000 OA
ATOM     33  H5* UNL     1       0.776  15.162  18.091  0.00  0.00    +0.000 HD
ENDBRANCH  31  32
ENDBRANCH  27  31
ENDBRANCH   5  24
TORSDOF 11
ENDMDL
MODEL 6
REMARK VINA RESULT:      -7.4      3.567      5.605
REMARK  Name = 
REMARK  12 active torsions:
REMARK  status: ('A' for Active; 'I' for Inactive)
REMARK    1  A    between atoms: C_1  and  C_2
REMARK    2  A    between atoms: C_2  and  C_3
REMARK    3  A    between atoms: C_3  and  C_4
REMARK    4  A    between atoms: C_4  and  C_5
REMARK    5  A    between atoms: C_5  and  C_6
REMARK    6  A    between atoms: C_6  and  C_7
REMARK    7  A    between atoms: C_7  and  C_8
REMARK    8  A    between atoms: C_11  and  C_12
REMARK    9  A    between atoms: N_16  and  C1*_17
REMARK   10  A    between atoms: C3*_19  and  O3*_20
REMARK   11  A    between atoms: C4*_21  and  C5*_22
REMARK   12  A    between atoms: C5*_22  and  O5*_23
REMARK                            x       y       z     vdW  Elec       q    Type
REMARK                         _______ _______ _______ _____ _____    ______ ____
ROOT
ATOM      1  C   UNL     1       0.950   9.129  19.826  0.00  0.00    +0.000 A 
ATOM      2  C   UNL     1       0.628   9.290  21.119  0.00  0.00    +0.000 A 
ATOM      3  C   UNL     1      -0.327  10.347  21.285  0.00  0.00    +0.000 A 
ATOM      4  C   UNL     1      -0.894  10.859  22.371  0.00  0.00    +0.000 A 
ATOM      5  N   UNL     1      -1.774  11.923  22.265  0.00  0.00    +0.000 N 
ATOM      6  C   UNL     1      -2.161  12.449  21.016  0.00  0.00    +0.000 A 
ATOM      7  O   UNL     1      -3.001  13.345  20.951  0.00  0.00    +0.000 OA
ATOM      8  N   UNL     1      -1.581  11.945  19.873  0.00  0.00    +0.000 NA
ATOM      9  C   UNL     1      -0.741  10.991  20.028  0.00  0.00    +0.000 A 
ATOM     10  S   UNL     1       0.134  10.205  18.723  0.00  0.00    +0.000 S 
ENDROOT
BRANCH   1  14
ATOM     11  C   UNL     1       3.712   6.250  18.317  0.00  0.00    +0.000 A 
ATOM     12  C   UNL     1       3.077   6.055  19.552  0.00  0.00    +0.000 A 
ATOM     13  C   UNL     1       2.170   6.994  20.041  0.00  0.00    +0.000 A 
ATOM     14  C   UNL     1       1.887   8.147  19.304  0.00  0.00    +0.000 A 
ATOM     15  C   UNL     1       2.535   8.359  18.080  0.00  0.00    +0.000 A 
ATOM     16  C   UNL     1       3.439   7.415  17.589  0.00  0.00    +0.000 A 
BRANCH  11  17
ATOM     17  C   UNL     1       4.674   5.218  17.778  0.00  0.00    +0.000 C 
BRANCH  17  18
ATOM     18  C   UNL     1       3.957   4.160  16.938  0.00  0.00    +0.000 C 
BRANCH  18  19
ATOM     19  C   UNL     1       3.650   2.908  17.756  0.00  0.00    +0.000 C 
BRANCH  19  20
ATOM     20  C   UNL     1       2.142   2.670  17.818  0.00  0.00    +0.000 C 
BRANCH  20  21
ATOM     21  C   UNL     1       1.728   2.057  19.153  0.00  0.00    +0.000 C 
BRANCH  21  23
ATOM     22  C   UNL     1       1.615   3.129  21.424  0.00  0.00    +0.000 C 
ATOM     23  C   UNL     1       1.018   3.087  20.029  0.00  0.00    +0.000 C 
ENDBRANCH  21  23
ENDBRANCH  20  21
ENDBRANCH  19  20
ENDBRANCH  18  19
ENDBRANCH  17  18
ENDBRANCH  11  17
ENDBRANCH   1  14
BRANCH   5  24
ATOM     24  C1* UNL     1      -2.362  12.527  23.450  0.00  0.00    +0.000 C 
ATOM     25  C2* UNL     1      -2.543  14.035  23.348  0.00  0.00    +0.000 C 
ATOM     26  C3* UNL     1      -3.725  14.279  24.258  0.00  0.00    +0.000 C 
ATOM     27  C4* UNL     1      -4.570  13.020  24.088  0.00  0.00    +0.000 C 
ATOM     28  O4* UNL     1      -3.663  11.959  23.704  0.00  0.00    +0.000 OA
BRANCH  26  29
ATOM     29  O3* UNL     1      -3.270  14.420  25.605  0.00  0.00    +0.000 OA
ATOM     30  H3* UNL     1      -3.088  13.542  25.984  0.00  0.00    +0.000 HD
ENDBRANCH  26  29
BRANCH  27  31
ATOM     31  C5* UNL     1      -5.622  13.161  22.985  0.00  0.00    +0.000 C 
BRANCH  31  32
ATOM     32  O5* UNL     1      -5.531  14.446  22.371  0.00  0.00    +0.000 OA
ATOM     33  H5* UNL     1      -4.581  14.669  22.330  0.00  0.00    +0.000 HD
ENDBRANCH  31  32
ENDBRANCH  27  31
ENDBRANCH   5  24
TORSDOF 11
ENDMDL
MODEL 7
REMARK VINA RESULT:      -7.3      4.722     10.021
REMARK  Name = 
REMARK  12 active torsions:
REMARK  status: ('A' for Active; 'I' for Inactive)
REMARK    1  A    between atoms: C_1  and  C_2
REMARK    2  A    between atoms: C_2  and  C_3
REMARK    3  A    between atoms: C_3  and  C_4
REMARK    4  A    between atoms: C_4  and  C_5
REMARK    5  A    between atoms: C_5  and  C_6
REMARK    6  A    between atoms: C_6  and  C_7
REMARK    7  A    between atoms: C_7  and  C_8
REMARK    8  A    between atoms: C_11  and  C_12
REMARK    9  A    between atoms: N_16  and  C1*_17
REMARK   10  A    between atoms: C3*_19  and  O3*_20
REMARK   11  A    between atoms: C4*_21  and  C5*_22
REMARK   12  A    between atoms: C5*_22  and  O5*_23
REMARK                            x       y       z     vdW  Elec       q    Type
REMARK                         _______ _______ _______ _____ _____    ______ ____
ROOT
ATOM      1  C   UNL     1       1.003   9.130  19.938  0.00  0.00    +0.000 A 
ATOM      2  C   UNL     1       1.817   8.774  18.932  0.00  0.00    +0.000 A 
ATOM      3  C   UNL     1       2.327   7.448  19.125  0.00  0.00    +0.000 A 
ATOM      4  C   UNL     1       3.171   6.715  18.407  0.00  0.00    +0.000 A 
ATOM      5  N   UNL     1       3.540   5.452  18.837  0.00  0.00    +0.000 N 
ATOM      6  C   UNL     1       2.987   4.866  19.994  0.00  0.00    +0.000 A 
ATOM      7  O   UNL     1       3.279   3.714  20.309  0.00  0.00    +0.000 OA
ATOM      8  N   UNL     1       2.118   5.606  20.764  0.00  0.00    +0.000 NA
ATOM      9  C   UNL     1       1.842   6.785  20.346  0.00  0.00    +0.000 A 
ATOM     10  S   UNL     1       0.777   7.915  21.168  0.00  0.00    +0.000 S 
ENDROOT
BRANCH   1  14
ATOM     11  C   UNL     1      -1.021  12.865  20.317  0.00  0.00    +0.000 A 
ATOM     12  C   UNL     1      -0.148  12.418  21.319  0.00  0.00    +0.000 A 
ATOM     13  C   UNL     1       0.518  11.199  21.191  0.00  0.00    +0.000 A 
ATOM     14  C   UNL     1       0.316  10.405  20.059  0.00  0.00    +0.000 A 
ATOM     15  C   UNL     1      -0.572  10.835  19.065  0.00  0.00    +0.000 A 
ATOM     16  C   UNL     1      -1.233  12.059  19.192  0.00  0.00    +0.000 A 
BRANCH  11  17
ATOM     17  C   UNL     1      -1.720  14.197  20.447  0.00  0.00    +0.000 C 
BRANCH  17  18
ATOM     18  C   UNL     1      -0.724  15.359  20.468  0.00  0.00    +0.000 C 
BRANCH  18  19
ATOM     19  C   UNL     1      -0.137  15.619  19.083  0.00  0.00    +0.000 C 
BRANCH  19  20
ATOM     20  C   UNL     1       1.366  15.872  19.183  0.00  0.00    +0.000 C 
BRANCH  20  21
ATOM     21  C   UNL     1       2.140  14.568  19.357  0.00  0.00    +0.000 C 
BRANCH  21  23
ATOM     22  C   UNL     1       2.615  12.411  18.155  0.00  0.00    +0.000 C 
ATOM     23  C   UNL     1       2.406  13.907  18.005  0.00  0.00    +0.000 C 
ENDBRANCH  21  23
ENDBRANCH  20  21
ENDBRANCH  19  20
ENDBRANCH  18  19
ENDBRANCH  17  18
ENDBRANCH  11  17
ENDBRANCH   1  14
BRANCH   5  24
ATOM     24  C1* UNL     1       4.503   4.660  18.088  0.00  0.00    +0.000 C 
ATOM     25  C2* UNL     1       4.962   5.310  16.792  0.00  0.00    +0.000 C 
ATOM     26  C3* UNL     1       6.350   4.735  16.618  0.00  0.00    +0.000 C 
ATOM     27  C4* UNL     1       6.852   4.580  18.050  0.00  0.00    +0.000 C 
ATOM     28  O4* UNL     1       5.681   4.424  18.887  0.00  0.00    +0.000 OA
BRANCH  26  29
ATOM     29  O3* UNL     1       6.265   3.471  15.959  0.00  0.00    +0.000 OA
ATOM     30  H3* UNL     1       6.373   2.754  16.608  0.00  0.00    +0.000 HD
ENDBRANCH  26  29
BRANCH  27  31
ATOM     31  C5* UNL     1       7.620   5.810  18.542  0.00  0.00    +0.000 C 
BRANCH  31  32
ATOM     32  O5* UNL     1       8.278   5.525  19.776  0.00  0.00    +0.000 OA
ATOM     33  H5* UNL     1       7.578   5.430  20.449  0.00  0.00    +0.000 HD
ENDBRANCH  31  32
ENDBRANCH  27  31
ENDBRANCH   5  24
TORSDOF 11
ENDMDL
MODEL 8
REMARK VINA RESULT:      -7.3      3.328      5.332
REMARK  Name = 
REMARK  12 active torsions:
REMARK  status: ('A' for Active; 'I' for Inactive)
REMARK    1  A    between atoms: C_1  and  C_2
REMARK    2  A    between atoms: C_2  and  C_3
REMARK    3  A    between atoms: C_3  and  C_4
REMARK    4  A    between atoms: C_4  and  C_5
REMARK    5  A    between atoms: C_5  and  C_6
REMARK    6  A    between atoms: C_6  and  C_7
REMARK    7  A    between atoms: C_7  and  C_8
REMARK    8  A    between atoms: C_11  and  C_12
REMARK    9  A    between atoms: N_16  and  C1*_17
REMARK   10  A    between atoms: C3*_19  and  O3*_20
REMARK   11  A    between atoms: C4*_21  and  C5*_22
REMARK   12  A    between atoms: C5*_22  and  O5*_23
REMARK                            x       y       z     vdW  Elec       q    Type
REMARK                         _______ _______ _______ _____ _____    ______ ____
ROOT
ATOM      1  C   UNL     1       1.199   8.909  19.643  0.00  0.00    +0.000 A 
ATOM      2  C   UNL     1       0.877   9.102  20.931  0.00  0.00    +0.000 A 
ATOM      3  C   UNL     1      -0.051  10.186  21.075  0.00  0.00    +0.000 A 
ATOM      4  C   UNL     1      -0.609  10.731  22.149  0.00  0.00    +0.000 A 
ATOM      5  N   UNL     1      -1.462  11.815  22.020  0.00  0.00    +0.000 N 
ATOM      6  C   UNL     1      -1.832  12.328  20.760  0.00  0.00    +0.000 A 
ATOM      7  O   UNL     1      -2.648  13.243  20.676  0.00  0.00    +0.000 OA
ATOM      8  N   UNL     1      -1.260  11.789  19.629  0.00  0.00    +0.000 NA
ATOM      9  C   UNL     1      -0.445  10.817  19.805  0.00  0.00    +0.000 A 
ATOM     10  S   UNL     1       0.414   9.986  18.517  0.00  0.00    +0.000 S 
ENDROOT
BRANCH   1  14
ATOM     11  C   UNL     1       3.891   5.934  18.197  0.00  0.00    +0.000 A 
ATOM     12  C   UNL     1       3.189   5.743  19.395  0.00  0.00    +0.000 A 
ATOM     13  C   UNL     1       2.305   6.714  19.863  0.00  0.00    +0.000 A 
ATOM     14  C   UNL     1       2.113   7.895  19.142  0.00  0.00    +0.000 A 
ATOM     15  C   UNL     1       2.829   8.102  17.956  0.00  0.00    +0.000 A 
ATOM     16  C   UNL     1       3.710   7.127  17.485  0.00  0.00    +0.000 A 
BRANCH  11  17
ATOM     17  C   UNL     1       4.829   4.869  17.679  0.00  0.00    +0.000 C 
BRANCH  17  18
ATOM     18  C   UNL     1       5.376   5.221  16.294  0.00  0.00    +0.000 C 
BRANCH  18  19
ATOM     19  C   UNL     1       6.862   5.563  16.349  0.00  0.00    +0.000 C 
BRANCH  19  20
ATOM     20  C   UNL     1       7.419   5.295  17.746  0.00  0.00    +0.000 C 
BRANCH  20  21
ATOM     21  C   UNL     1       7.758   6.595  18.470  0.00  0.00    +0.000 C 
BRANCH  21  23
ATOM     22  C   UNL     1       8.348   9.011  18.101  0.00  0.00    +0.000 C 
ATOM     23  C   UNL     1       7.656   7.789  17.523  0.00  0.00    +0.000 C 
ENDBRANCH  21  23
ENDBRANCH  20  21
ENDBRANCH  19  20
ENDBRANCH  18  19
ENDBRANCH  17  18
ENDBRANCH  11  17
ENDBRANCH   1  14
BRANCH   5  24
ATOM     24  C1* UNL     1      -2.038  12.455  23.191  0.00  0.00    +0.000 C 
ATOM     25  C2* UNL     1      -2.236  13.956  23.040  0.00  0.00    +0.000 C 
ATOM     26  C3* UNL     1      -3.407  14.221  23.958  0.00  0.00    +0.000 C 
ATOM     27  C4* UNL     1      -4.242  12.949  23.845  0.00  0.00    +0.000 C 
ATOM     28  O4* UNL     1      -3.330  11.883  23.485  0.00  0.00    +0.000 OA
BRANCH  26  29
ATOM     29  O3* UNL     1      -2.934  14.414  25.292  0.00  0.00    +0.000 OA
ATOM     30  H3* UNL     1      -1.995  14.671  25.273  0.00  0.00    +0.000 HD
ENDBRANCH  26  29
BRANCH  27  31
ATOM     31  C5* UNL     1      -5.312  13.040  22.754  0.00  0.00    +0.000 C 
BRANCH  31  32
ATOM     32  O5* UNL     1      -6.407  12.178  23.057  0.00  0.00    +0.000 OA
ATOM     33  H5* UNL     1      -6.024  11.308  23.282  0.00  0.00    +0.000 HD
ENDBRANCH  31  32
ENDBRANCH  27  31
ENDBRANCH   5  24
TORSDOF 11
ENDMDL
MODEL 9
REMARK VINA RESULT:      -7.3      5.105     10.101
REMARK  Name = 
REMARK  12 active torsions:
REMARK  status: ('A' for Active; 'I' for Inactive)
REMARK    1  A    between atoms: C_1  and  C_2
REMARK    2  A    between atoms: C_2  and  C_3
REMARK    3  A    between atoms: C_3  and  C_4
REMARK    4  A    between atoms: C_4  and  C_5
REMARK    5  A    between atoms: C_5  and  C_6
REMARK    6  A    between atoms: C_6  and  C_7
REMARK    7  A    between atoms: C_7  and  C_8
REMARK    8  A    between atoms: C_11  and  C_12
REMARK    9  A    between atoms: N_16  and  C1*_17
REMARK   10  A    between atoms: C3*_19  and  O3*_20
REMARK   11  A    between atoms: C4*_21  and  C5*_22
REMARK   12  A    between atoms: C5*_22  and  O5*_23
REMARK                            x       y       z     vdW  Elec       q    Type
REMARK                         _______ _______ _______ _____ _____    ______ ____
ROOT
ATOM      1  C   UNL     1       1.007   9.432  19.466  0.00  0.00    +0.000 A 
ATOM      2  C   UNL     1       1.305   8.284  20.093  0.00  0.00    +0.000 A 
ATOM      3  C   UNL     1       2.278   7.531  19.359  0.00  0.00    +0.000 A 
ATOM      4  C   UNL     1       2.833   6.346  19.589  0.00  0.00    +0.000 A 
ATOM      5  N   UNL     1       3.738   5.812  18.688  0.00  0.00    +0.000 N 
ATOM      6  C   UNL     1       4.164   6.521  17.546  0.00  0.00    +0.000 A 
ATOM      7  O   UNL     1       5.024   6.051  16.805  0.00  0.00    +0.000 OA
ATOM      8  N   UNL     1       3.598   7.748  17.277  0.00  0.00    +0.000 NA
ATOM      9  C   UNL     1       2.734   8.179  18.118  0.00  0.00    +0.000 A 
ATOM     10  S   UNL     1       1.870   9.702  17.974  0.00  0.00    +0.000 S 
ENDROOT
BRANCH   1  14
ATOM     11  C   UNL     1      -1.784  12.345  20.849  0.00  0.00    +0.000 A 
ATOM     12  C   UNL     1      -1.234  11.404  21.732  0.00  0.00    +0.000 A 
ATOM     13  C   UNL     1      -0.317  10.456  21.279  0.00  0.00    +0.000 A 
ATOM     14  C   UNL     1       0.060  10.432  19.934  0.00  0.00    +0.000 A 
ATOM     15  C   UNL     1      -0.502  11.354  19.043  0.00  0.00    +0.000 A 
ATOM     16  C   UNL     1      -1.416  12.306  19.499  0.00  0.00    +0.000 A 
BRANCH  11  17
ATOM     17  C   UNL     1      -2.757  13.386  21.348  0.00  0.00    +0.000 C 
BRANCH  17  18
ATOM     18  C   UNL     1      -4.197  12.871  21.329  0.00  0.00    +0.000 C 
BRANCH  18  19
ATOM     19  C   UNL     1      -4.883  13.173  19.999  0.00  0.00    +0.000 C 
BRANCH  19  20
ATOM     20  C   UNL     1      -5.273  11.875  19.295  0.00  0.00    +0.000 C 
BRANCH  20  21
ATOM     21  C   UNL     1      -5.344  12.061  17.782  0.00  0.00    +0.000 C 
BRANCH  21  23
ATOM     22  C   UNL     1      -3.743  10.123  17.698  0.00  0.00    +0.000 C 
ATOM     23  C   UNL     1      -4.110  11.471  17.101  0.00  0.00    +0.000 C 
ENDBRANCH  21  23
ENDBRANCH  20  21
ENDBRANCH  19  20
ENDBRANCH  18  19
ENDBRANCH  17  18
ENDBRANCH  11  17
ENDBRANCH   1  14
BRANCH   5  24
ATOM     24  C1* UNL     1       4.313   4.493  18.900  0.00  0.00    +0.000 C 
ATOM     25  C2* UNL     1       3.758   3.765  20.115  0.00  0.00    +0.000 C 
ATOM     26  C3* UNL     1       3.916   2.314  19.721  0.00  0.00    +0.000 C 
ATOM     27  C4* UNL     1       3.701   2.330  18.211  0.00  0.00    +0.000 C 
ATOM     28  O4* UNL     1       4.069   3.653  17.752  0.00  0.00    +0.000 OA
BRANCH  26  29
ATOM     29  O3* UNL     1       5.232   1.870  20.053  0.00  0.00    +0.000 OA
ATOM     30  H3* UNL     1       5.180   1.066  20.600  0.00  0.00    +0.000 HD
ENDBRANCH  26  29
BRANCH  27  31
ATOM     31  C5* UNL     1       2.240   2.087  17.821  0.00  0.00    +0.000 C 
BRANCH  31  32
ATOM     32  O5* UNL     1       1.681   3.259  17.230  0.00  0.00    +0.000 OA
ATOM     33  H5* UNL     1       0.731   3.078  17.096  0.00  0.00    +0.000 HD
ENDBRANCH  31  32
ENDBRANCH  27  31
ENDBRANCH   5  24
TORSDOF 11
ENDMDL
