MODEL 1
REMARK VINA RESULT:      -8.6      0.000      0.000
REMARK  Name = 
REMARK  10 active torsions:
REMARK  status: ('A' for Active; 'I' for Inactive)
REMARK    1  A    between atoms: C_1  and  C_2
REMARK    2  A    between atoms: C_2  and  O_3
REMARK    3  A    between atoms: O_3  and  C_4
REMARK    4  A    between atoms: C_4  and  C_6
REMARK    5  A    between atoms: C_7  and  C_8
REMARK    6  A    between atoms: C_8  and  S_9
REMARK    7  A    between atoms: S_9  and  C_10
REMARK    8  A    between atoms: C_14  and  C_15
REMARK    9  A    between atoms: N_20  and  C_21
REMARK   10  A    between atoms: C_25  and  C_26
REMARK                            x       y       z     vdW  Elec       q    Type
REMARK                         _______ _______ _______ _____ _____    ______ ____
ROOT
ATOM      1  C   UNL     1       4.985   4.868  18.444  0.00  0.00    +0.000 C 
ATOM      2  C   UNL     1       3.677   5.099  18.756  0.00  0.00    +0.000 C 
ATOM      3  N   UNL     1       2.736   4.096  18.398  0.00  0.00    +0.000 N 
ATOM      4  C   UNL     1       1.339   4.101  18.807  0.00  0.00    +0.000 C 
ATOM      5  C   UNL     1       3.088   2.907  17.758  0.00  0.00    +0.000 C 
ATOM      6  O   UNL     1       2.287   2.024  17.454  0.00  0.00    +0.000 OA
ATOM      7  N   UNL     1       4.396   2.704  17.502  0.00  0.00    +0.000 N 
ATOM      8  C   UNL     1       5.427   3.709  17.589  0.00  0.00    +0.000 C 
ATOM      9  H   UNL     1       4.584   1.867  16.977  0.00  0.00    +0.000 HD
ENDROOT
BRANCH   8  10
ATOM     10  C   UNL     1       5.850   4.094  16.169  0.00  0.00    +0.000 A 
ATOM     11  C   UNL     1       4.963   3.979  15.087  0.00  0.00    +0.000 A 
ATOM     12  C   UNL     1       5.386   4.245  13.784  0.00  0.00    +0.000 A 
ATOM     13  C   UNL     1       6.700   4.637  13.543  0.00  0.00    +0.000 A 
ATOM     14  C   UNL     1       7.588   4.786  14.606  0.00  0.00    +0.000 A 
ATOM     15  C   UNL     1       7.165   4.518  15.911  0.00  0.00    +0.000 A 
ENDBRANCH   8  10
BRANCH   1  16
ATOM     16  C   UNL     1       6.187   5.631  18.916  0.00  0.00    +0.000 C 
ATOM     17  O   UNL     1       6.833   5.320  19.907  0.00  0.00    +0.000 OA
BRANCH  16  18
ATOM     18  O   UNL     1       6.446   6.703  18.142  0.00  0.00    +0.000 OA
BRANCH  18  20
ATOM     19  C   UNL     1       7.822   8.649  17.688  0.00  0.00    +0.000 C 
ATOM     20  C   UNL     1       7.795   7.193  18.114  0.00  0.00    +0.000 C 
ENDBRANCH  18  20
ENDBRANCH  16  18
ENDBRANCH   1  16
BRANCH   2  21
ATOM     21  C   UNL     1       3.188   6.329  19.530  0.00  0.00    +0.000 C 
BRANCH  21  22
ATOM     22  S   UNL     1       2.550   7.645  18.428  0.00  0.00    +0.000 S 
BRANCH  22  23
ATOM     23  C   UNL     1       1.648   8.591  19.566  0.00  0.00    +0.000 A 
ATOM     24  N   UNL     1       1.023   9.727  19.363  0.00  0.00    +0.000 NA
ATOM     25  C   UNL     1       0.434  10.029  20.575  0.00  0.00    +0.000 A 
ATOM     26  C   UNL     1      -0.380  11.115  20.946  0.00  0.00    +0.000 A 
ATOM     27  C   UNL     1      -0.908  11.167  22.251  0.00  0.00    +0.000 A 
ATOM     28  C   UNL     1      -1.813  12.288  22.677  0.00  0.00    +0.000 C 
ATOM     29  C   UNL     1      -0.601  10.151  23.170  0.00  0.00    +0.000 A 
ATOM     30  C   UNL     1       0.229   9.074  22.827  0.00  0.00    +0.000 A 
ATOM     31  C   UNL     1       0.720   9.050  21.523  0.00  0.00    +0.000 A 
ATOM     32  N   UNL     1       1.524   8.159  20.854  0.00  0.00    +0.000 N 
ATOM     33  H   UNL     1       1.926   7.314  21.227  0.00  0.00    +0.000 HD
ENDBRANCH  22  23
ENDBRANCH  21  22
ENDBRANCH   2  21
TORSDOF 7
ENDMDL
MODEL 2
REMARK VINA RESULT:      -8.1      0.586      1.537
REMARK  Name = 
REMARK  10 active torsions:
REMARK  status: ('A' for Active; 'I' for Inactive)
REMARK    1  A    between atoms: C_1  and  C_2
REMARK    2  A    between atoms: C_2  and  O_3
REMARK    3  A    between atoms: O_3  and  C_4
REMARK    4  A    between atoms: C_4  and  C_6
REMARK    5  A    between atoms: C_7  and  C_8
REMARK    6  A    between atoms: C_8  and  S_9
REMARK    7  A    between atoms: S_9  and  C_10
REMARK    8  A    between atoms: C_14  and  C_15
REMARK    9  A    between atoms: N_20  and  C_21
REMARK   10  A    between atoms: C_25  and  C_26
REMARK                            x       y       z     vdW  Elec       q    Type
REMARK                         _______ _______ _______ _____ _____    ______ ____
ROOT
ATOM      1  C   UNL     1       5.053   4.920  18.330  0.00  0.00    +0.000 C 
ATOM      2  C   UNL     1       3.731   5.128  18.592  0.00  0.00    +0.000 C 
ATOM      3  N   UNL     1       2.832   4.069  18.289  0.00  0.00    +0.000 N 
ATOM      4  C   UNL     1       1.425   4.056  18.662  0.00  0.00    +0.000 C 
ATOM      5  C   UNL     1       3.239   2.849  17.748  0.00  0.00    +0.000 C 
ATOM      6  O   UNL     1       2.476   1.918  17.492  0.00  0.00    +0.000 OA
ATOM      7  N   UNL     1       4.560   2.672  17.540  0.00  0.00    +0.000 N 
ATOM      8  C   UNL     1       5.555   3.716  17.576  0.00  0.00    +0.000 C 
ATOM      9  H   UNL     1       4.789   1.806  17.083  0.00  0.00    +0.000 HD
ENDROOT
BRANCH   8  10
ATOM     10  C   UNL     1       6.003   4.009  16.142  0.00  0.00    +0.000 A 
ATOM     11  C   UNL     1       7.291   4.497  15.865  0.00  0.00    +0.000 A 
ATOM     12  C   UNL     1       7.658   4.848  14.565  0.00  0.00    +0.000 A 
ATOM     13  C   UNL     1       6.748   4.710  13.521  0.00  0.00    +0.000 A 
ATOM     14  C   UNL     1       5.476   4.200  13.770  0.00  0.00    +0.000 A 
ATOM     15  C   UNL     1       5.106   3.849  15.071  0.00  0.00    +0.000 A 
ENDBRANCH   8  10
BRANCH   1  16
ATOM     16  C   UNL     1       6.216   5.756  18.773  0.00  0.00    +0.000 C 
ATOM     17  O   UNL     1       6.923   5.471  19.729  0.00  0.00    +0.000 OA
BRANCH  16  18
ATOM     18  O   UNL     1       6.367   6.860  18.015  0.00  0.00    +0.000 OA
BRANCH  18  20
ATOM     19  C   UNL     1       7.882   8.748  17.861  0.00  0.00    +0.000 C 
ATOM     20  C   UNL     1       7.704   7.254  17.671  0.00  0.00    +0.000 C 
ENDBRANCH  18  20
ENDBRANCH  16  18
ENDBRANCH   1  16
BRANCH   2  21
ATOM     21  C   UNL     1       3.182   6.394  19.260  0.00  0.00    +0.000 C 
BRANCH  21  22
ATOM     22  S   UNL     1       2.770   7.705  18.049  0.00  0.00    +0.000 S 
BRANCH  22  23
ATOM     23  C   UNL     1       1.702   8.682  19.001  0.00  0.00    +0.000 A 
ATOM     24  N   UNL     1       1.387   8.543  20.268  0.00  0.00    +0.000 NA
ATOM     25  C   UNL     1       0.542   9.600  20.541  0.00  0.00    +0.000 A 
ATOM     26  C   UNL     1      -0.090   9.974  21.741  0.00  0.00    +0.000 A 
ATOM     27  C   UNL     1      -0.875  11.144  21.773  0.00  0.00    +0.000 A 
ATOM     28  C   UNL     1      -1.534  11.601  23.043  0.00  0.00    +0.000 C 
ATOM     29  C   UNL     1      -1.035  11.909  20.607  0.00  0.00    +0.000 A 
ATOM     30  C   UNL     1      -0.435  11.539  19.395  0.00  0.00    +0.000 A 
ATOM     31  C   UNL     1       0.345  10.384  19.407  0.00  0.00    +0.000 A 
ATOM     32  N   UNL     1       1.078   9.752  18.431  0.00  0.00    +0.000 N 
ATOM     33  H   UNL     1       1.175  10.040  17.471  0.00  0.00    +0.000 HD
ENDBRANCH  22  23
ENDBRANCH  21  22
ENDBRANCH   2  21
TORSDOF 7
ENDMDL
MODEL 3
REMARK VINA RESULT:      -7.6      2.764      8.404
REMARK  Name = 
REMARK  10 active torsions:
REMARK  status: ('A' for Active; 'I' for Inactive)
REMARK    1  A    between atoms: C_1  and  C_2
REMARK    2  A    between atoms: C_2  and  O_3
REMARK    3  A    between atoms: O_3  and  C_4
REMARK    4  A    between atoms: C_4  and  C_6
REMARK    5  A    between atoms: C_7  and  C_8
REMARK    6  A    between atoms: C_8  and  S_9
REMARK    7  A    between atoms: S_9  and  C_10
REMARK    8  A    between atoms: C_14  and  C_15
REMARK    9  A    between atoms: N_20  and  C_21
REMARK   10  A    between atoms: C_25  and  C_26
REMARK                            x       y       z     vdW  Elec       q    Type
REMARK                         _______ _______ _______ _____ _____    ______ ____
ROOT
ATOM      1  C   UNL     1       3.788   6.029  19.182  0.00  0.00    +0.000 C 
ATOM      2  C   UNL     1       3.470   6.972  18.249  0.00  0.00    +0.000 C 
ATOM      3  N   UNL     1       2.473   7.923  18.599  0.00  0.00    +0.000 N 
ATOM      4  C   UNL     1       2.139   9.091  17.798  0.00  0.00    +0.000 C 
ATOM      5  C   UNL     1       1.823   7.934  19.833  0.00  0.00    +0.000 C 
ATOM      6  O   UNL     1       0.967   8.758  20.155  0.00  0.00    +0.000 OA
ATOM      7  N   UNL     1       2.195   7.007  20.739  0.00  0.00    +0.000 N 
ATOM      8  C   UNL     1       3.009   5.849  20.459  0.00  0.00    +0.000 C 
ATOM      9  H   UNL     1       1.646   7.015  21.582  0.00  0.00    +0.000 HD
ENDROOT
BRANCH   8  10
ATOM     10  C   UNL     1       2.112   4.608  20.484  0.00  0.00    +0.000 A 
ATOM     11  C   UNL     1       2.118   3.726  21.576  0.00  0.00    +0.000 A 
ATOM     12  C   UNL     1       1.367   2.549  21.549  0.00  0.00    +0.000 A 
ATOM     13  C   UNL     1       0.592   2.242  20.434  0.00  0.00    +0.000 A 
ATOM     14  C   UNL     1       0.549   3.119  19.353  0.00  0.00    +0.000 A 
ATOM     15  C   UNL     1       1.303   4.296  19.378  0.00  0.00    +0.000 A 
ENDBRANCH   8  10
BRANCH   1  16
ATOM     16  C   UNL     1       4.951   5.082  19.166  0.00  0.00    +0.000 C 
ATOM     17  O   UNL     1       6.007   5.306  19.741  0.00  0.00    +0.000 OA
BRANCH  16  18
ATOM     18  O   UNL     1       4.703   3.983  18.427  0.00  0.00    +0.000 OA
BRANCH  18  20
ATOM     19  C   UNL     1       3.762   1.749  18.338  0.00  0.00    +0.000 C 
ATOM     20  C   UNL     1       4.631   2.723  19.111  0.00  0.00    +0.000 C 
ENDBRANCH  18  20
ENDBRANCH  16  18
ENDBRANCH   1  16
BRANCH   2  21
ATOM     21  C   UNL     1       4.176   7.105  16.895  0.00  0.00    +0.000 C 
BRANCH  21  22
ATOM     22  S   UNL     1       5.959   6.698  16.988  0.00  0.00    +0.000 S 
BRANCH  22  23
ATOM     23  C   UNL     1       6.106   5.640  15.624  0.00  0.00    +0.000 A 
ATOM     24  N   UNL     1       5.300   4.672  15.256  0.00  0.00    +0.000 NA
ATOM     25  C   UNL     1       5.848   4.179  14.089  0.00  0.00    +0.000 A 
ATOM     26  C   UNL     1       5.403   3.151  13.237  0.00  0.00    +0.000 A 
ATOM     27  C   UNL     1       6.125   2.868  12.061  0.00  0.00    +0.000 A 
ATOM     28  C   UNL     1       5.663   1.807  11.104  0.00  0.00    +0.000 C 
ATOM     29  C   UNL     1       7.287   3.597  11.762  0.00  0.00    +0.000 A 
ATOM     30  C   UNL     1       7.762   4.607  12.611  0.00  0.00    +0.000 A 
ATOM     31  C   UNL     1       7.013   4.868  13.758  0.00  0.00    +0.000 A 
ATOM     32  N   UNL     1       7.166   5.777  14.776  0.00  0.00    +0.000 N 
ATOM     33  H   UNL     1       7.905   6.454  14.872  0.00  0.00    +0.000 HD
ENDBRANCH  22  23
ENDBRANCH  21  22
ENDBRANCH   2  21
TORSDOF 7
ENDMDL
MODEL 4
REMARK VINA RESULT:      -7.6      3.524      6.932
REMARK  Name = 
REMARK  10 active torsions:
REMARK  status: ('A' for Active; 'I' for Inactive)
REMARK    1  A    between atoms: C_1  and  C_2
REMARK    2  A    between atoms: C_2  and  O_3
REMARK    3  A    between atoms: O_3  and  C_4
REMARK    4  A    between atoms: C_4  and  C_6
REMARK    5  A    between atoms: C_7  and  C_8
REMARK    6  A    between atoms: C_8  and  S_9
REMARK    7  A    between atoms: S_9  and  C_10
REMARK    8  A    between atoms: C_14  and  C_15
REMARK    9  A    between atoms: N_20  and  C_21
REMARK   10  A    between atoms: C_25  and  C_26
REMARK                            x       y       z     vdW  Elec       q    Type
REMARK                         _______ _______ _______ _____ _____    ______ ____
ROOT
ATOM      1  C   UNL     1       3.809   6.052  17.826  0.00  0.00    +0.000 C 
ATOM      2  C   UNL     1       5.097   6.217  17.409  0.00  0.00    +0.000 C 
ATOM      3  N   UNL     1       5.667   5.175  16.628  0.00  0.00    +0.000 N 
ATOM      4  C   UNL     1       6.958   5.263  15.961  0.00  0.00    +0.000 C 
ATOM      5  C   UNL     1       4.976   4.015  16.275  0.00  0.00    +0.000 C 
ATOM      6  O   UNL     1       5.451   3.111  15.590  0.00  0.00    +0.000 OA
ATOM      7  N   UNL     1       3.693   3.911  16.677  0.00  0.00    +0.000 N 
ATOM      8  C   UNL     1       3.055   4.759  17.654  0.00  0.00    +0.000 C 
ATOM      9  H   UNL     1       3.266   3.027  16.457  0.00  0.00    +0.000 HD
ENDROOT
BRANCH   8  10
ATOM     10  C   UNL     1       2.871   3.957  18.946  0.00  0.00    +0.000 A 
ATOM     11  C   UNL     1       1.632   3.912  19.605  0.00  0.00    +0.000 A 
ATOM     12  C   UNL     1       1.499   3.255  20.830  0.00  0.00    +0.000 A 
ATOM     13  C   UNL     1       2.597   2.628  21.409  0.00  0.00    +0.000 A 
ATOM     14  C   UNL     1       3.828   2.636  20.756  0.00  0.00    +0.000 A 
ATOM     15  C   UNL     1       3.964   3.295  19.531  0.00  0.00    +0.000 A 
ENDBRANCH   8  10
BRANCH   1  16
ATOM     16  C   UNL     1       2.907   7.082  18.438  0.00  0.00    +0.000 C 
ATOM     17  O   UNL     1       2.678   7.145  19.638  0.00  0.00    +0.000 OA
BRANCH  16  18
ATOM     18  O   UNL     1       2.366   7.900  17.513  0.00  0.00    +0.000 OA
BRANCH  18  20
ATOM     19  C   UNL     1       0.720   9.592  18.071  0.00  0.00    +0.000 C 
ATOM     20  C   UNL     1       2.191   9.280  17.868  0.00  0.00    +0.000 C 
ENDBRANCH  18  20
ENDBRANCH  16  18
ENDBRANCH   1  16
BRANCH   2  21
ATOM     21  C   UNL     1       5.923   7.482  17.668  0.00  0.00    +0.000 C 
BRANCH  21  22
ATOM     22  S   UNL     1       7.659   7.109  18.116  0.00  0.00    +0.000 S 
BRANCH  22  23
ATOM     23  C   UNL     1       8.283   8.715  18.302  0.00  0.00    +0.000 A 
ATOM     24  N   UNL     1       8.115   9.748  17.511  0.00  0.00    +0.000 NA
ATOM     25  C   UNL     1       8.778  10.785  18.136  0.00  0.00    +0.000 A 
ATOM     26  C   UNL     1       8.918  12.134  17.761  0.00  0.00    +0.000 A 
ATOM     27  C   UNL     1       9.610  13.019  18.611  0.00  0.00    +0.000 A 
ATOM     28  C   UNL     1       9.748  14.475  18.268  0.00  0.00    +0.000 C 
ATOM     29  C   UNL     1      10.169  12.544  19.807  0.00  0.00    +0.000 A 
ATOM     30  C   UNL     1      10.064  11.198  20.186  0.00  0.00    +0.000 A 
ATOM     31  C   UNL     1       9.359  10.356  19.327  0.00  0.00    +0.000 A 
ATOM     32  N   UNL     1       9.048   9.020  19.389  0.00  0.00    +0.000 N 
ATOM     33  H   UNL     1       9.304   8.377  20.121  0.00  0.00    +0.000 HD
ENDBRANCH  22  23
ENDBRANCH  21  22
ENDBRANCH   2  21
TORSDOF 7
ENDMDL
MODEL 5
REMARK VINA RESULT:      -7.5      3.505      7.045
REMARK  Name = 
REMARK  10 active torsions:
REMARK  status: ('A' for Active; 'I' for Inactive)
REMARK    1  A    between atoms: C_1  and  C_2
REMARK    2  A    between atoms: C_2  and  O_3
REMARK    3  A    between atoms: O_3  and  C_4
REMARK    4  A    between atoms: C_4  and  C_6
REMARK    5  A    between atoms: C_7  and  C_8
REMARK    6  A    between atoms: C_8  and  S_9
REMARK    7  A    between atoms: S_9  and  C_10
REMARK    8  A    between atoms: C_14  and  C_15
REMARK    9  A    between atoms: N_20  and  C_21
REMARK   10  A    between atoms: C_25  and  C_26
REMARK                            x       y       z     vdW  Elec       q    Type
REMARK                         _______ _______ _______ _____ _____    ______ ____
ROOT
ATOM      1  C   UNL     1       3.952   6.237  17.527  0.00  0.00    +0.000 C 
ATOM      2  C   UNL     1       5.265   6.291  17.160  0.00  0.00    +0.000 C 
ATOM      3  N   UNL     1       5.815   5.137  16.537  0.00  0.00    +0.000 N 
ATOM      4  C   UNL     1       7.137   5.086  15.931  0.00  0.00    +0.000 C 
ATOM      5  C   UNL     1       5.081   3.977  16.287  0.00  0.00    +0.000 C 
ATOM      6  O   UNL     1       5.539   2.976  15.737  0.00  0.00    +0.000 OA
ATOM      7  N   UNL     1       3.777   3.981  16.633  0.00  0.00    +0.000 N 
ATOM      8  C   UNL     1       3.141   4.968  17.470  0.00  0.00    +0.000 C 
ATOM      9  H   UNL     1       3.316   3.098  16.496  0.00  0.00    +0.000 HD
ENDROOT
BRANCH   8  10
ATOM     10  C   UNL     1       2.858   4.336  18.835  0.00  0.00    +0.000 A 
ATOM     11  C   UNL     1       3.872   3.700  19.569  0.00  0.00    +0.000 A 
ATOM     12  C   UNL     1       3.584   3.046  20.769  0.00  0.00    +0.000 A 
ATOM     13  C   UNL     1       2.281   3.026  21.257  0.00  0.00    +0.000 A 
ATOM     14  C   UNL     1       1.266   3.676  20.559  0.00  0.00    +0.000 A 
ATOM     15  C   UNL     1       1.552   4.329  19.356  0.00  0.00    +0.000 A 
ENDBRANCH   8  10
BRANCH   1  16
ATOM     16  C   UNL     1       3.078   7.373  17.968  0.00  0.00    +0.000 C 
ATOM     17  O   UNL     1       2.648   8.224  17.203  0.00  0.00    +0.000 OA
BRANCH  16  18
ATOM     18  O   UNL     1       2.852   7.355  19.297  0.00  0.00    +0.000 OA
BRANCH  18  20
ATOM     19  C   UNL     1       1.285   7.597  21.132  0.00  0.00    +0.000 C 
ATOM     20  C   UNL     1       1.757   8.138  19.795  0.00  0.00    +0.000 C 
ENDBRANCH  18  20
ENDBRANCH  16  18
ENDBRANCH   1  16
BRANCH   2  21
ATOM     21  C   UNL     1       6.143   7.538  17.311  0.00  0.00    +0.000 C 
BRANCH  21  22
ATOM     22  S   UNL     1       7.715   7.191  18.183  0.00  0.00    +0.000 S 
BRANCH  22  23
ATOM     23  C   UNL     1       8.333   8.800  18.361  0.00  0.00    +0.000 A 
ATOM     24  N   UNL     1       8.161   9.828  17.564  0.00  0.00    +0.000 NA
ATOM     25  C   UNL     1       8.820  10.871  18.183  0.00  0.00    +0.000 A 
ATOM     26  C   UNL     1       8.955  12.219  17.801  0.00  0.00    +0.000 A 
ATOM     27  C   UNL     1       9.645  13.110  18.646  0.00  0.00    +0.000 A 
ATOM     28  C   UNL     1       9.777  14.565  18.296  0.00  0.00    +0.000 C 
ATOM     29  C   UNL     1      10.207  12.643  19.844  0.00  0.00    +0.000 A 
ATOM     30  C   UNL     1      10.107  11.298  20.230  0.00  0.00    +0.000 A 
ATOM     31  C   UNL     1       9.404  10.450  19.376  0.00  0.00    +0.000 A 
ATOM     32  N   UNL     1       9.099   9.113  19.445  0.00  0.00    +0.000 N 
ATOM     33  H   UNL     1       9.357   8.474  20.180  0.00  0.00    +0.000 HD
ENDBRANCH  22  23
ENDBRANCH  21  22
ENDBRANCH   2  21
TORSDOF 7
ENDMDL
MODEL 6
REMARK VINA RESULT:      -7.4      1.327      1.809
REMARK  Name = 
REMARK  10 active torsions:
REMARK  status: ('A' for Active; 'I' for Inactive)
REMARK    1  A    between atoms: C_1  and  C_2
REMARK    2  A    between atoms: C_2  and  O_3
REMARK    3  A    between atoms: O_3  and  C_4
REMARK    4  A    between atoms: C_4  and  C_6
REMARK    5  A    between atoms: C_7  and  C_8
REMARK    6  A    between atoms: C_8  and  S_9
REMARK    7  A    between atoms: S_9  and  C_10
REMARK    8  A    between atoms: C_14  and  C_15
REMARK    9  A    between atoms: N_20  and  C_21
REMARK   10  A    between atoms: C_25  and  C_26
REMARK                            x       y       z     vdW  Elec       q    Type
REMARK                         _______ _______ _______ _____ _____    ______ ____
ROOT
ATOM      1  C   UNL     1       4.629   5.414  17.403  0.00  0.00    +0.000 C 
ATOM      2  C   UNL     1       3.342   5.143  17.766  0.00  0.00    +0.000 C 
ATOM      3  N   UNL     1       2.975   3.775  17.892  0.00  0.00    +0.000 N 
ATOM      4  C   UNL     1       1.705   3.315  18.434  0.00  0.00    +0.000 C 
ATOM      5  C   UNL     1       3.859   2.720  17.667  0.00  0.00    +0.000 C 
ATOM      6  O   UNL     1       3.560   1.532  17.784  0.00  0.00    +0.000 OA
ATOM      7  N   UNL     1       5.131   3.034  17.346  0.00  0.00    +0.000 N 
ATOM      8  C   UNL     1       5.592   4.344  16.958  0.00  0.00    +0.000 C 
ATOM      9  H   UNL     1       5.705   2.238  17.126  0.00  0.00    +0.000 HD
ENDROOT
BRANCH   8  10
ATOM     10  C   UNL     1       5.875   4.333  15.454  0.00  0.00    +0.000 A 
ATOM     11  C   UNL     1       4.959   3.781  14.544  0.00  0.00    +0.000 A 
ATOM     12  C   UNL     1       5.268   3.692  13.185  0.00  0.00    +0.000 A 
ATOM     13  C   UNL     1       6.490   4.161  12.714  0.00  0.00    +0.000 A 
ATOM     14  C   UNL     1       7.400   4.739  13.596  0.00  0.00    +0.000 A 
ATOM     15  C   UNL     1       7.094   4.827  14.957  0.00  0.00    +0.000 A 
ENDBRANCH   8  10
BRANCH   1  16
ATOM     16  C   UNL     1       5.329   6.739  17.438  0.00  0.00    +0.000 C 
ATOM     17  O   UNL     1       4.872   7.753  16.929  0.00  0.00    +0.000 OA
BRANCH  16  18
ATOM     18  O   UNL     1       6.520   6.669  18.065  0.00  0.00    +0.000 OA
BRANCH  18  20
ATOM     19  C   UNL     1       8.012   8.580  17.972  0.00  0.00    +0.000 C 
ATOM     20  C   UNL     1       7.660   7.223  17.390  0.00  0.00    +0.000 C 
ENDBRANCH  18  20
ENDBRANCH  16  18
ENDBRANCH   1  16
BRANCH   2  21
ATOM     21  C   UNL     1       2.309   6.220  18.117  0.00  0.00    +0.000 C 
BRANCH  21  22
ATOM     22  S   UNL     1       2.302   6.632  19.902  0.00  0.00    +0.000 S 
BRANCH  22  23
ATOM     23  C   UNL     1       1.679   8.248  19.844  0.00  0.00    +0.000 A 
ATOM     24  N   UNL     1       1.655   9.073  18.824  0.00  0.00    +0.000 NA
ATOM     25  C   UNL     1       1.017  10.203  19.296  0.00  0.00    +0.000 A 
ATOM     26  C   UNL     1       0.688  11.404  18.641  0.00  0.00    +0.000 A 
ATOM     27  C   UNL     1      -0.022  12.399  19.341  0.00  0.00    +0.000 A 
ATOM     28  C   UNL     1      -0.428  13.680  18.668  0.00  0.00    +0.000 C 
ATOM     29  C   UNL     1      -0.374  12.193  20.683  0.00  0.00    +0.000 A 
ATOM     30  C   UNL     1      -0.033  11.014  21.362  0.00  0.00    +0.000 A 
ATOM     31  C   UNL     1       0.656  10.046  20.632  0.00  0.00    +0.000 A 
ATOM     32  N   UNL     1       1.120   8.796  20.961  0.00  0.00    +0.000 N 
ATOM     33  H   UNL     1       1.037   8.339  21.855  0.00  0.00    +0.000 HD
ENDBRANCH  22  23
ENDBRANCH  21  22
ENDBRANCH   2  21
TORSDOF 7
ENDMDL
MODEL 7
REMARK VINA RESULT:      -7.4      3.776      9.810
REMARK  Name = 
REMARK  10 active torsions:
REMARK  status: ('A' for Active; 'I' for Inactive)
REMARK    1  A    between atoms: C_1  and  C_2
REMARK    2  A    between atoms: C_2  and  O_3
REMARK    3  A    between atoms: O_3  and  C_4
REMARK    4  A    between atoms: C_4  and  C_6
REMARK    5  A    between atoms: C_7  and  C_8
REMARK    6  A    between atoms: C_8  and  S_9
REMARK    7  A    between atoms: S_9  and  C_10
REMARK    8  A    between atoms: C_14  and  C_15
REMARK    9  A    between atoms: N_20  and  C_21
REMARK   10  A    between atoms: C_25  and  C_26
REMARK                            x       y       z     vdW  Elec       q    Type
REMARK                         _______ _______ _______ _____ _____    ______ ____
ROOT
ATOM      1  C   UNL     1       0.233  12.297  19.503  0.00  0.00    +0.000 C 
ATOM      2  C   UNL     1       0.050  11.123  18.832  0.00  0.00    +0.000 C 
ATOM      3  N   UNL     1      -1.217  10.910  18.225  0.00  0.00    +0.000 N 
ATOM      4  C   UNL     1      -1.522   9.801  17.332  0.00  0.00    +0.000 C 
ATOM      5  C   UNL     1      -2.261  11.834  18.284  0.00  0.00    +0.000 C 
ATOM      6  O   UNL     1      -3.359  11.670  17.753  0.00  0.00    +0.000 OA
ATOM      7  N   UNL     1      -2.025  12.996  18.926  0.00  0.00    +0.000 N 
ATOM      8  C   UNL     1      -0.892  13.261  19.778  0.00  0.00    +0.000 C 
ATOM      9  H   UNL     1      -2.831  13.593  19.000  0.00  0.00    +0.000 HD
ENDROOT
BRANCH   8  10
ATOM     10  C   UNL     1      -1.371  13.277  21.232  0.00  0.00    +0.000 A 
ATOM     11  C   UNL     1      -1.934  12.137  21.826  0.00  0.00    +0.000 A 
ATOM     12  C   UNL     1      -2.452  12.188  23.122  0.00  0.00    +0.000 A 
ATOM     13  C   UNL     1      -2.408  13.376  23.845  0.00  0.00    +0.000 A 
ATOM     14  C   UNL     1      -1.827  14.511  23.284  0.00  0.00    +0.000 A 
ATOM     15  C   UNL     1      -1.309  14.462  21.986  0.00  0.00    +0.000 A 
ENDBRANCH   8  10
BRANCH   1  16
ATOM     16  C   UNL     1       1.522  12.869  20.012  0.00  0.00    +0.000 C 
ATOM     17  O   UNL     1       1.941  12.675  21.145  0.00  0.00    +0.000 OA
BRANCH  16  18
ATOM     18  O   UNL     1       2.139  13.634  19.090  0.00  0.00    +0.000 OA
BRANCH  18  20
ATOM     19  C   UNL     1       1.531  15.982  19.140  0.00  0.00    +0.000 C 
ATOM     20  C   UNL     1       2.576  14.940  19.495  0.00  0.00    +0.000 C 
ENDBRANCH  18  20
ENDBRANCH  16  18
ENDBRANCH   1  16
BRANCH   2  21
ATOM     21  C   UNL     1       1.150  10.074  18.633  0.00  0.00    +0.000 C 
BRANCH  21  22
ATOM     22  S   UNL     1       1.227   8.867  20.009  0.00  0.00    +0.000 S 
BRANCH  22  23
ATOM     23  C   UNL     1       2.249   7.659  19.304  0.00  0.00    +0.000 A 
ATOM     24  N   UNL     1       2.787   7.647  18.107  0.00  0.00    +0.000 NA
ATOM     25  C   UNL     1       3.539   6.491  18.067  0.00  0.00    +0.000 A 
ATOM     26  C   UNL     1       4.353   5.968  17.044  0.00  0.00    +0.000 A 
ATOM     27  C   UNL     1       5.069   4.777  17.273  0.00  0.00    +0.000 A 
ATOM     28  C   UNL     1       5.979   4.206  16.223  0.00  0.00    +0.000 C 
ATOM     29  C   UNL     1       4.948   4.115  18.505  0.00  0.00    +0.000 A 
ATOM     30  C   UNL     1       4.123   4.605  19.527  0.00  0.00    +0.000 A 
ATOM     31  C   UNL     1       3.442   5.794  19.269  0.00  0.00    +0.000 A 
ATOM     32  N   UNL     1       2.586   6.553  20.028  0.00  0.00    +0.000 N 
ATOM     33  H   UNL     1       2.281   6.357  20.968  0.00  0.00    +0.000 HD
ENDBRANCH  22  23
ENDBRANCH  21  22
ENDBRANCH   2  21
TORSDOF 7
ENDMDL
MODEL 8
REMARK VINA RESULT:      -7.4      4.082      9.959
REMARK  Name = 
REMARK  10 active torsions:
REMARK  status: ('A' for Active; 'I' for Inactive)
REMARK    1  A    between atoms: C_1  and  C_2
REMARK    2  A    between atoms: C_2  and  O_3
REMARK    3  A    between atoms: O_3  and  C_4
REMARK    4  A    between atoms: C_4  and  C_6
REMARK    5  A    between atoms: C_7  and  C_8
REMARK    6  A    between atoms: C_8  and  S_9
REMARK    7  A    between atoms: S_9  and  C_10
REMARK    8  A    between atoms: C_14  and  C_15
REMARK    9  A    between atoms: N_20  and  C_21
REMARK   10  A    between atoms: C_25  and  C_26
REMARK                            x       y       z     vdW  Elec       q    Type
REMARK                         _______ _______ _______ _____ _____    ______ ____
ROOT
ATOM      1  C   UNL     1      -0.369  12.525  19.973  0.00  0.00    +0.000 C 
ATOM      2  C   UNL     1      -0.441  11.312  19.351  0.00  0.00    +0.000 C 
ATOM      3  N   UNL     1      -1.675  10.968  18.736  0.00  0.00    +0.000 N 
ATOM      4  C   UNL     1      -1.870   9.802  17.888  0.00  0.00    +0.000 C 
ATOM      5  C   UNL     1      -2.793  11.804  18.738  0.00  0.00    +0.000 C 
ATOM      6  O   UNL     1      -3.863  11.526  18.199  0.00  0.00    +0.000 OA
ATOM      7  N   UNL     1      -2.666  13.008  19.332  0.00  0.00    +0.000 N 
ATOM      8  C   UNL     1      -1.575  13.403  20.188  0.00  0.00    +0.000 C 
ATOM      9  H   UNL     1      -3.520  13.538  19.367  0.00  0.00    +0.000 HD
ENDROOT
BRANCH   8  10
ATOM     10  C   UNL     1      -2.081  13.440  21.633  0.00  0.00    +0.000 A 
ATOM     11  C   UNL     1      -2.555  12.282  22.269  0.00  0.00    +0.000 A 
ATOM     12  C   UNL     1      -3.100  12.345  23.553  0.00  0.00    +0.000 A 
ATOM     13  C   UNL     1      -3.171  13.563  24.223  0.00  0.00    +0.000 A 
ATOM     14  C   UNL     1      -2.679  14.718  23.620  0.00  0.00    +0.000 A 
ATOM     15  C   UNL     1      -2.134  14.657  22.334  0.00  0.00    +0.000 A 
ENDBRANCH   8  10
BRANCH   1  16
ATOM     16  C   UNL     1       0.858  13.224  20.476  0.00  0.00    +0.000 C 
ATOM     17  O   UNL     1       1.321  13.045  21.594  0.00  0.00    +0.000 OA
BRANCH  16  18
ATOM     18  O   UNL     1       1.365  14.080  19.568  0.00  0.00    +0.000 OA
BRANCH  18  20
ATOM     19  C   UNL     1       3.211  14.955  18.259  0.00  0.00    +0.000 C 
ATOM     20  C   UNL     1       2.631  13.751  18.977  0.00  0.00    +0.000 C 
ENDBRANCH  18  20
ENDBRANCH  16  18
ENDBRANCH   1  16
BRANCH   2  21
ATOM     21  C   UNL     1       0.745  10.351  19.216  0.00  0.00    +0.000 C 
BRANCH  21  22
ATOM     22  S   UNL     1       0.970   9.298  20.697  0.00  0.00    +0.000 S 
BRANCH  22  23
ATOM     23  C   UNL     1       1.740   7.920  19.983  0.00  0.00    +0.000 A 
ATOM     24  N   UNL     1       2.306   7.827  18.803  0.00  0.00    +0.000 NA
ATOM     25  C   UNL     1       2.801   6.539  18.747  0.00  0.00    +0.000 A 
ATOM     26  C   UNL     1       3.523   5.883  17.733  0.00  0.00    +0.000 A 
ATOM     27  C   UNL     1       3.965   4.562  17.944  0.00  0.00    +0.000 A 
ATOM     28  C   UNL     1       4.772   3.840  16.903  0.00  0.00    +0.000 C 
ATOM     29  C   UNL     1       3.663   3.909  19.149  0.00  0.00    +0.000 A 
ATOM     30  C   UNL     1       2.922   4.535  20.161  0.00  0.00    +0.000 A 
ATOM     31  C   UNL     1       2.516   5.847  19.922  0.00  0.00    +0.000 A 
ATOM     32  N   UNL     1       1.810   6.749  20.680  0.00  0.00    +0.000 N 
ATOM     33  H   UNL     1       1.438   6.598  21.604  0.00  0.00    +0.000 HD
ENDBRANCH  22  23
ENDBRANCH  21  22
ENDBRANCH   2  21
TORSDOF 7
ENDMDL
MODEL 9
REMARK VINA RESULT:      -7.4      4.041      9.136
REMARK  Name = 
REMARK  10 active torsions:
REMARK  status: ('A' for Active; 'I' for Inactive)
REMARK    1  A    between atoms: C_1  and  C_2
REMARK    2  A    between atoms: C_2  and  O_3
REMARK    3  A    between atoms: O_3  and  C_4
REMARK    4  A    between atoms: C_4  and  C_6
REMARK    5  A    between atoms: C_7  and  C_8
REMARK    6  A    between atoms: C_8  and  S_9
REMARK    7  A    between atoms: S_9  and  C_10
REMARK    8  A    between atoms: C_14  and  C_15
REMARK    9  A    between atoms: N_20  and  C_21
REMARK   10  A    between atoms: C_25  and  C_26
REMARK                            x       y       z     vdW  Elec       q    Type
REMARK                         _______ _______ _______ _____ _____    ______ ____
ROOT
ATOM      1  C   UNL     1      -0.564  11.161  19.556  0.00  0.00    +0.000 C 
ATOM      2  C   UNL     1      -0.650  10.621  20.806  0.00  0.00    +0.000 C 
ATOM      3  N   UNL     1      -1.078  11.477  21.857  0.00  0.00    +0.000 N 
ATOM      4  C   UNL     1      -1.390  11.026  23.206  0.00  0.00    +0.000 C 
ATOM      5  C   UNL     1      -1.409  12.819  21.667  0.00  0.00    +0.000 C 
ATOM      6  O   UNL     1      -1.792  13.569  22.564  0.00  0.00    +0.000 OA
ATOM      7  N   UNL     1      -1.344  13.301  20.409  0.00  0.00    +0.000 N 
ATOM      8  C   UNL     1      -0.716  12.637  19.294  0.00  0.00    +0.000 C 
ATOM      9  H   UNL     1      -1.523  14.289  20.341  0.00  0.00    +0.000 HD
ENDROOT
BRANCH   8  10
ATOM     10  C   UNL     1       0.594  13.361  18.972  0.00  0.00    +0.000 A 
ATOM     11  C   UNL     1       0.657  14.763  18.918  0.00  0.00    +0.000 A 
ATOM     12  C   UNL     1       1.833  15.410  18.533  0.00  0.00    +0.000 A 
ATOM     13  C   UNL     1       2.963  14.668  18.204  0.00  0.00    +0.000 A 
ATOM     14  C   UNL     1       2.929  13.277  18.280  0.00  0.00    +0.000 A 
ATOM     15  C   UNL     1       1.753  12.627  18.664  0.00  0.00    +0.000 A 
ENDBRANCH   8  10
BRANCH   1  16
ATOM     16  C   UNL     1      -0.381  10.435  18.257  0.00  0.00    +0.000 C 
ATOM     17  O   UNL     1       0.527   9.642  18.053  0.00  0.00    +0.000 OA
BRANCH  16  18
ATOM     18  O   UNL     1      -1.313  10.780  17.346  0.00  0.00    +0.000 OA
BRANCH  18  20
ATOM     19  C   UNL     1      -3.606  10.044  17.629  0.00  0.00    +0.000 C 
ATOM     20  C   UNL     1      -2.270   9.782  16.962  0.00  0.00    +0.000 C 
ENDBRANCH  18  20
ENDBRANCH  16  18
ENDBRANCH   1  16
BRANCH   2  21
ATOM     21  C   UNL     1      -0.392   9.142  21.117  0.00  0.00    +0.000 C 
BRANCH  21  22
ATOM     22  S   UNL     1       1.323   8.832  21.681  0.00  0.00    +0.000 S 
BRANCH  22  23
ATOM     23  C   UNL     1       1.712   7.435  20.732  0.00  0.00    +0.000 A 
ATOM     24  N   UNL     1       1.423   6.179  20.979  0.00  0.00    +0.000 NA
ATOM     25  C   UNL     1       1.919   5.481  19.896  0.00  0.00    +0.000 A 
ATOM     26  C   UNL     1       1.880   4.105  19.604  0.00  0.00    +0.000 A 
ATOM     27  C   UNL     1       2.421   3.642  18.388  0.00  0.00    +0.000 A 
ATOM     28  C   UNL     1       2.365   2.187  18.019  0.00  0.00    +0.000 C 
ATOM     29  C   UNL     1       3.010   4.551  17.495  0.00  0.00    +0.000 A 
ATOM     30  C   UNL     1       3.082   5.922  17.780  0.00  0.00    +0.000 A 
ATOM     31  C   UNL     1       2.523   6.344  18.985  0.00  0.00    +0.000 A 
ATOM     32  N   UNL     1       2.400   7.583  19.563  0.00  0.00    +0.000 N 
ATOM     33  H   UNL     1       2.723   8.459  19.185  0.00  0.00    +0.000 HD
ENDBRANCH  22  23
ENDBRANCH  21  22
ENDBRANCH   2  21
TORSDOF 7
ENDMDL
