MODEL 1
REMARK VINA RESULT:      -8.4      0.000      0.000
REMARK  Name = 
REMARK  5 active torsions:
REMARK  status: ('A' for Active; 'I' for Inactive)
REMARK    1  A    between atoms: C_1  and  O_2
REMARK    2  A    between atoms: O_2  and  C_3
REMARK    3  A    between atoms: C_8  and  N_9
REMARK    4  A    between atoms: C_15  and  C_16
REMARK    5  A    between atoms: C_18  and  C_19
REMARK                            x       y       z     vdW  Elec       q    Type
REMARK                         _______ _______ _______ _____ _____    ______ ____
ROOT
ATOM      1  N   UNL     1      -3.590  13.103  19.874  0.00  0.00    +0.000 N 
ATOM      2  C   UNL     1      -2.627  12.461  20.630  0.00  0.00    +0.000 C 
ATOM      3  O   UNL     1      -2.836  12.023  21.761  0.00  0.00    +0.000 OA
ATOM      4  N   UNL     1      -1.347  12.373  20.078  0.00  0.00    +0.000 N 
ATOM      5  C   UNL     1      -0.357  11.671  20.908  0.00  0.00    +0.000 C 
ATOM      6  C   UNL     1       1.069  12.158  20.669  0.00  0.00    +0.000 C 
ATOM      7  C   UNL     1       1.450  12.097  19.188  0.00  0.00    +0.000 C 
ATOM      8  C   UNL     1       0.401  12.861  18.365  0.00  0.00    +0.000 C 
ATOM      9  C   UNL     1      -1.046  12.445  18.652  0.00  0.00    +0.000 C 
ATOM     10  H   UNL     1      -3.535  13.057  18.868  0.00  0.00    +0.000 HD
ENDROOT
BRANCH   1  16
ATOM     11  C   UNL     1      -6.003  12.776  20.205  0.00  0.00    +0.000 A 
ATOM     12  C   UNL     1      -7.222  13.214  20.750  0.00  0.00    +0.000 A 
ATOM     13  C   UNL     1      -7.316  14.443  21.403  0.00  0.00    +0.000 A 
ATOM     14  C   UNL     1      -6.194  15.249  21.511  0.00  0.00    +0.000 A 
ATOM     15  C   UNL     1      -4.974  14.813  20.998  0.00  0.00    +0.000 A 
ATOM     16  C   UNL     1      -4.844  13.563  20.374  0.00  0.00    +0.000 A 
BRANCH  11  18
ATOM     17  C   UNL     1      -6.750  11.422  18.412  0.00  0.00    +0.000 C 
ATOM     18  O   UNL     1      -5.872  11.581  19.530  0.00  0.00    +0.000 OA
ENDBRANCH  11  18
ENDBRANCH   1  16
BRANCH   7  19
ATOM     19  C   UNL     1       1.598  10.679  18.757  0.00  0.00    +0.000 A 
ATOM     20  N   UNL     1       1.426   9.582  19.450  0.00  0.00    +0.000 NA
ATOM     21  C   UNL     1       1.895   8.606  18.600  0.00  0.00    +0.000 A 
ATOM     22  N   UNL     1       2.289   9.074  17.404  0.00  0.00    +0.000 NA
ATOM     23  O   UNL     1       2.099  10.454  17.509  0.00  0.00    +0.000 OA
BRANCH  21  24
ATOM     24  C   UNL     1       1.942   7.208  19.011  0.00  0.00    +0.000 A 
ATOM     25  C   UNL     1       1.748   6.879  20.359  0.00  0.00    +0.000 A 
ATOM     26  C   UNL     1       1.707   5.547  20.771  0.00  0.00    +0.000 A 
ATOM     27  C   UNL     1       1.868   4.513  19.841  0.00  0.00    +0.000 A 
ATOM     28  C   UNL     1       1.747   3.169  20.226  0.00  0.00    +0.000 A 
ATOM     29  C   UNL     1       1.920   2.146  19.294  0.00  0.00    +0.000 A 
ATOM     30  C   UNL     1       2.252   2.452  17.978  0.00  0.00    +0.000 A 
ATOM     31  C   UNL     1       2.365   3.785  17.578  0.00  0.00    +0.000 A 
ATOM     32  C   UNL     1       2.143   4.829  18.491  0.00  0.00    +0.000 A 
ATOM     33  C   UNL     1       2.169   6.177  18.089  0.00  0.00    +0.000 A 
ENDBRANCH  21  24
ENDBRANCH   7  19
TORSDOF 4
ENDMDL
MODEL 2
REMARK VINA RESULT:      -8.2      1.510      1.628
REMARK  Name = 
REMARK  5 active torsions:
REMARK  status: ('A' for Active; 'I' for Inactive)
REMARK    1  A    between atoms: C_1  and  O_2
REMARK    2  A    between atoms: O_2  and  C_3
REMARK    3  A    between atoms: C_8  and  N_9
REMARK    4  A    between atoms: C_15  and  C_16
REMARK    5  A    between atoms: C_18  and  C_19
REMARK                            x       y       z     vdW  Elec       q    Type
REMARK                         _______ _______ _______ _____ _____    ______ ____
ROOT
ATOM      1  N   UNL     1      -4.364  13.005  21.607  0.00  0.00    +0.000 N 
ATOM      2  C   UNL     1      -3.229  12.430  22.145  0.00  0.00    +0.000 C 
ATOM      3  O   UNL     1      -3.202  11.891  23.251  0.00  0.00    +0.000 OA
ATOM      4  N   UNL     1      -2.054  12.533  21.396  0.00  0.00    +0.000 N 
ATOM      5  C   UNL     1      -0.874  11.896  21.998  0.00  0.00    +0.000 C 
ATOM      6  C   UNL     1       0.435  12.565  21.586  0.00  0.00    +0.000 C 
ATOM      7  C   UNL     1       0.573  12.654  20.064  0.00  0.00    +0.000 C 
ATOM      8  C   UNL     1      -0.671  13.345  19.484  0.00  0.00    +0.000 C 
ATOM      9  C   UNL     1      -2.000  12.741  19.953  0.00  0.00    +0.000 C 
ATOM     10  H   UNL     1      -4.470  13.037  20.605  0.00  0.00    +0.000 HD
ENDROOT
BRANCH   1  16
ATOM     11  C   UNL     1      -6.719  12.505  22.101  0.00  0.00    +0.000 A 
ATOM     12  C   UNL     1      -7.876  12.746  22.862  0.00  0.00    +0.000 A 
ATOM     13  C   UNL     1      -7.915  13.775  23.802  0.00  0.00    +0.000 A 
ATOM     14  C   UNL     1      -6.801  14.579  23.985  0.00  0.00    +0.000 A 
ATOM     15  C   UNL     1      -5.639  14.333  23.256  0.00  0.00    +0.000 A 
ATOM     16  C   UNL     1      -5.562  13.277  22.334  0.00  0.00    +0.000 A 
BRANCH  11  18
ATOM     17  C   UNL     1      -7.266  11.838  19.896  0.00  0.00    +0.000 C 
ATOM     18  O   UNL     1      -6.646  11.515  21.145  0.00  0.00    +0.000 OA
ENDBRANCH  11  18
ENDBRANCH   1  16
BRANCH   7  19
ATOM     19  C   UNL     1       0.797  11.298  19.490  0.00  0.00    +0.000 A 
ATOM     20  N   UNL     1       1.103  10.182  20.102  0.00  0.00    +0.000 NA
ATOM     21  C   UNL     1       1.379   9.327  19.060  0.00  0.00    +0.000 A 
ATOM     22  N   UNL     1       1.195   9.875  17.847  0.00  0.00    +0.000 NA
ATOM     23  O   UNL     1       0.815  11.189  18.131  0.00  0.00    +0.000 OA
BRANCH  21  24
ATOM     24  C   UNL     1       1.829   7.962  19.304  0.00  0.00    +0.000 A 
ATOM     25  C   UNL     1       1.627   7.384  20.564  0.00  0.00    +0.000 A 
ATOM     26  C   UNL     1       1.974   6.055  20.804  0.00  0.00    +0.000 A 
ATOM     27  C   UNL     1       2.540   5.275  19.789  0.00  0.00    +0.000 A 
ATOM     28  C   UNL     1       2.818   3.914  19.991  0.00  0.00    +0.000 A 
ATOM     29  C   UNL     1       3.392   3.149  18.976  0.00  0.00    +0.000 A 
ATOM     30  C   UNL     1       3.729   3.743  17.764  0.00  0.00    +0.000 A 
ATOM     31  C   UNL     1       3.449   5.093  17.545  0.00  0.00    +0.000 A 
ATOM     32  C   UNL     1       2.823   5.866  18.536  0.00  0.00    +0.000 A 
ATOM     33  C   UNL     1       2.457   7.204  18.305  0.00  0.00    +0.000 A 
ENDBRANCH  21  24
ENDBRANCH   7  19
TORSDOF 4
ENDMDL
MODEL 3
REMARK VINA RESULT:      -8.1      1.187      1.924
REMARK  Name = 
REMARK  5 active torsions:
REMARK  status: ('A' for Active; 'I' for Inactive)
REMARK    1  A    between atoms: C_1  and  O_2
REMARK    2  A    between atoms: O_2  and  C_3
REMARK    3  A    between atoms: C_8  and  N_9
REMARK    4  A    between atoms: C_15  and  C_16
REMARK    5  A    between atoms: C_18  and  C_19
REMARK                            x       y       z     vdW  Elec       q    Type
REMARK                         _______ _______ _______ _____ _____    ______ ____
ROOT
ATOM      1  N   UNL     1      -3.430  12.859  20.680  0.00  0.00    +0.000 N 
ATOM      2  C   UNL     1      -2.319  12.285  21.268  0.00  0.00    +0.000 C 
ATOM      3  O   UNL     1      -2.307  11.865  22.425  0.00  0.00    +0.000 OA
ATOM      4  N   UNL     1      -1.149  12.249  20.505  0.00  0.00    +0.000 N 
ATOM      5  C   UNL     1       0.004  11.618  21.164  0.00  0.00    +0.000 C 
ATOM      6  C   UNL     1       1.340  12.172  20.676  0.00  0.00    +0.000 C 
ATOM      7  C   UNL     1       1.465  12.094  19.152  0.00  0.00    +0.000 C 
ATOM      8  C   UNL     1       0.251  12.783  18.510  0.00  0.00    +0.000 C 
ATOM      9  C   UNL     1      -1.102  12.301  19.049  0.00  0.00    +0.000 C 
ATOM     10  H   UNL     1      -3.546  12.791  19.680  0.00  0.00    +0.000 HD
ENDROOT
BRANCH   1  16
ATOM     11  C   UNL     1      -4.615  14.486  22.090  0.00  0.00    +0.000 A 
ATOM     12  C   UNL     1      -5.795  14.903  22.730  0.00  0.00    +0.000 A 
ATOM     13  C   UNL     1      -6.936  14.101  22.726  0.00  0.00    +0.000 A 
ATOM     14  C   UNL     1      -6.907  12.871  22.088  0.00  0.00    +0.000 A 
ATOM     15  C   UNL     1      -5.752  12.459  21.426  0.00  0.00    +0.000 A 
ATOM     16  C   UNL     1      -4.604  13.266  21.381  0.00  0.00    +0.000 A 
BRANCH  11  18
ATOM     17  C   UNL     1      -3.056  15.718  23.377  0.00  0.00    +0.000 C 
ATOM     18  O   UNL     1      -3.458  15.235  22.092  0.00  0.00    +0.000 OA
ENDBRANCH  11  18
ENDBRANCH   1  16
BRANCH   7  19
ATOM     19  C   UNL     1       1.613  10.675  18.724  0.00  0.00    +0.000 A 
ATOM     20  N   UNL     1       1.443   9.579  19.419  0.00  0.00    +0.000 NA
ATOM     21  C   UNL     1       1.912   8.602  18.571  0.00  0.00    +0.000 A 
ATOM     22  N   UNL     1       2.304   9.068  17.373  0.00  0.00    +0.000 NA
ATOM     23  O   UNL     1       2.113  10.447  17.475  0.00  0.00    +0.000 OA
BRANCH  21  24
ATOM     24  C   UNL     1       1.961   7.205  18.985  0.00  0.00    +0.000 A 
ATOM     25  C   UNL     1       1.772   6.879  20.334  0.00  0.00    +0.000 A 
ATOM     26  C   UNL     1       1.733   5.547  20.749  0.00  0.00    +0.000 A 
ATOM     27  C   UNL     1       1.891   4.512  19.820  0.00  0.00    +0.000 A 
ATOM     28  C   UNL     1       1.772   3.168  20.209  0.00  0.00    +0.000 A 
ATOM     29  C   UNL     1       1.942   2.143  19.279  0.00  0.00    +0.000 A 
ATOM     30  C   UNL     1       2.269   2.447  17.961  0.00  0.00    +0.000 A 
ATOM     31  C   UNL     1       2.380   3.779  17.558  0.00  0.00    +0.000 A 
ATOM     32  C   UNL     1       2.161   4.825  18.469  0.00  0.00    +0.000 A 
ATOM     33  C   UNL     1       2.185   6.172  18.064  0.00  0.00    +0.000 A 
ENDBRANCH  21  24
ENDBRANCH   7  19
TORSDOF 4
ENDMDL
MODEL 4
REMARK VINA RESULT:      -8.1      3.908     10.272
REMARK  Name = 
REMARK  5 active torsions:
REMARK  status: ('A' for Active; 'I' for Inactive)
REMARK    1  A    between atoms: C_1  and  O_2
REMARK    2  A    between atoms: O_2  and  C_3
REMARK    3  A    between atoms: C_8  and  N_9
REMARK    4  A    between atoms: C_15  and  C_16
REMARK    5  A    between atoms: C_18  and  C_19
REMARK                            x       y       z     vdW  Elec       q    Type
REMARK                         _______ _______ _______ _____ _____    ______ ____
ROOT
ATOM      1  N   UNL     1       2.395   6.973  18.095  0.00  0.00    +0.000 N 
ATOM      2  C   UNL     1       2.122   7.486  19.349  0.00  0.00    +0.000 C 
ATOM      3  O   UNL     1       2.475   6.941  20.395  0.00  0.00    +0.000 OA
ATOM      4  N   UNL     1       1.354   8.652  19.400  0.00  0.00    +0.000 N 
ATOM      5  C   UNL     1       1.099   9.171  20.752  0.00  0.00    +0.000 C 
ATOM      6  C   UNL     1      -0.212   9.945  20.851  0.00  0.00    +0.000 C 
ATOM      7  C   UNL     1      -0.294  11.062  19.807  0.00  0.00    +0.000 C 
ATOM      8  C   UNL     1      -0.042  10.469  18.413  0.00  0.00    +0.000 C 
ATOM      9  C   UNL     1       1.228   9.616  18.313  0.00  0.00    +0.000 C 
ATOM     10  H   UNL     1       2.484   7.606  17.315  0.00  0.00    +0.000 HD
ENDROOT
BRANCH   1  16
ATOM     11  C   UNL     1       4.255   5.449  17.585  0.00  0.00    +0.000 A 
ATOM     12  C   UNL     1       4.733   4.142  17.393  0.00  0.00    +0.000 A 
ATOM     13  C   UNL     1       3.863   3.052  17.393  0.00  0.00    +0.000 A 
ATOM     14  C   UNL     1       2.505   3.259  17.579  0.00  0.00    +0.000 A 
ATOM     15  C   UNL     1       2.023   4.549  17.798  0.00  0.00    +0.000 A 
ATOM     16  C   UNL     1       2.884   5.657  17.843  0.00  0.00    +0.000 A 
BRANCH  11  18
ATOM     17  C   UNL     1       6.461   6.273  17.344  0.00  0.00    +0.000 C 
ATOM     18  O   UNL     1       5.076   6.556  17.567  0.00  0.00    +0.000 OA
ENDBRANCH  11  18
ENDBRANCH   1  16
BRANCH   7  19
ATOM     19  C   UNL     1       0.663  12.151  20.149  0.00  0.00    +0.000 A 
ATOM     20  N   UNL     1       1.586  12.705  19.404  0.00  0.00    +0.000 NA
ATOM     21  C   UNL     1       2.276  13.488  20.301  0.00  0.00    +0.000 A 
ATOM     22  N   UNL     1       1.765  13.465  21.544  0.00  0.00    +0.000 NA
ATOM     23  O   UNL     1       0.697  12.570  21.446  0.00  0.00    +0.000 OA
BRANCH  21  24
ATOM     24  C   UNL     1       3.448  14.251  19.891  0.00  0.00    +0.000 A 
ATOM     25  C   UNL     1       3.666  14.500  18.529  0.00  0.00    +0.000 A 
ATOM     26  C   UNL     1       4.734  15.293  18.110  0.00  0.00    +0.000 A 
ATOM     27  C   UNL     1       5.614  15.849  19.046  0.00  0.00    +0.000 A 
ATOM     28  C   UNL     1       6.643  16.715  18.646  0.00  0.00    +0.000 A 
ATOM     29  C   UNL     1       7.521  17.255  19.585  0.00  0.00    +0.000 A 
ATOM     30  C   UNL     1       7.404  16.907  20.927  0.00  0.00    +0.000 A 
ATOM     31  C   UNL     1       6.380  16.054  21.341  0.00  0.00    +0.000 A 
ATOM     32  C   UNL     1       5.454  15.542  20.417  0.00  0.00    +0.000 A 
ATOM     33  C   UNL     1       4.365  14.751  20.825  0.00  0.00    +0.000 A 
ENDBRANCH  21  24
ENDBRANCH   7  19
TORSDOF 4
ENDMDL
MODEL 5
REMARK VINA RESULT:      -7.9      3.790     10.067
REMARK  Name = 
REMARK  5 active torsions:
REMARK  status: ('A' for Active; 'I' for Inactive)
REMARK    1  A    between atoms: C_1  and  O_2
REMARK    2  A    between atoms: O_2  and  C_3
REMARK    3  A    between atoms: C_8  and  N_9
REMARK    4  A    between atoms: C_15  and  C_16
REMARK    5  A    between atoms: C_18  and  C_19
REMARK                            x       y       z     vdW  Elec       q    Type
REMARK                         _______ _______ _______ _____ _____    ______ ____
ROOT
ATOM      1  N   UNL     1       2.345   7.281  18.111  0.00  0.00    +0.000 N 
ATOM      2  C   UNL     1       2.033   7.756  19.370  0.00  0.00    +0.000 C 
ATOM      3  O   UNL     1       2.363   7.185  20.409  0.00  0.00    +0.000 OA
ATOM      4  N   UNL     1       1.252   8.913  19.432  0.00  0.00    +0.000 N 
ATOM      5  C   UNL     1       0.955   9.392  20.790  0.00  0.00    +0.000 C 
ATOM      6  C   UNL     1      -0.366  10.150  20.874  0.00  0.00    +0.000 C 
ATOM      7  C   UNL     1      -0.430  11.295  19.859  0.00  0.00    +0.000 C 
ATOM      8  C   UNL     1      -0.135  10.743  18.456  0.00  0.00    +0.000 C 
ATOM      9  C   UNL     1       1.146   9.905  18.368  0.00  0.00    +0.000 C 
ATOM     10  H   UNL     1       2.449   7.935  17.350  0.00  0.00    +0.000 HD
ENDROOT
BRANCH   1  16
ATOM     11  C   UNL     1       4.178   5.816  17.378  0.00  0.00    +0.000 A 
ATOM     12  C   UNL     1       4.685   4.523  17.163  0.00  0.00    +0.000 A 
ATOM     13  C   UNL     1       3.879   3.398  17.339  0.00  0.00    +0.000 A 
ATOM     14  C   UNL     1       2.557   3.555  17.723  0.00  0.00    +0.000 A 
ATOM     15  C   UNL     1       2.051   4.831  17.965  0.00  0.00    +0.000 A 
ATOM     16  C   UNL     1       2.854   5.976  17.836  0.00  0.00    +0.000 A 
BRANCH  11  18
ATOM     17  C   UNL     1       6.344   6.771  17.331  0.00  0.00    +0.000 C 
ATOM     18  O   UNL     1       4.932   6.955  17.192  0.00  0.00    +0.000 OA
ENDBRANCH  11  18
ENDBRANCH   1  16
BRANCH   7  19
ATOM     19  C   UNL     1       0.506  12.383  20.257  0.00  0.00    +0.000 A 
ATOM     20  N   UNL     1       1.314  13.093  19.511  0.00  0.00    +0.000 NA
ATOM     21  C   UNL     1       2.060  13.784  20.438  0.00  0.00    +0.000 A 
ATOM     22  N   UNL     1       1.690  13.556  21.709  0.00  0.00    +0.000 NA
ATOM     23  O   UNL     1       0.662  12.618  21.591  0.00  0.00    +0.000 OA
BRANCH  21  24
ATOM     24  C   UNL     1       3.144  14.668  20.025  0.00  0.00    +0.000 A 
ATOM     25  C   UNL     1       3.184  15.981  20.511  0.00  0.00    +0.000 A 
ATOM     26  C   UNL     1       4.250  16.826  20.199  0.00  0.00    +0.000 A 
ATOM     27  C   UNL     1       5.296  16.375  19.386  0.00  0.00    +0.000 A 
ATOM     28  C   UNL     1       6.414  17.185  19.132  0.00  0.00    +0.000 A 
ATOM     29  C   UNL     1       7.447  16.731  18.312  0.00  0.00    +0.000 A 
ATOM     30  C   UNL     1       7.357  15.481  17.708  0.00  0.00    +0.000 A 
ATOM     31  C   UNL     1       6.256  14.660  17.960  0.00  0.00    +0.000 A 
ATOM     32  C   UNL     1       5.231  15.080  18.825  0.00  0.00    +0.000 A 
ATOM     33  C   UNL     1       4.157  14.235  19.158  0.00  0.00    +0.000 A 
ENDBRANCH  21  24
ENDBRANCH   7  19
TORSDOF 4
ENDMDL
MODEL 6
REMARK VINA RESULT:      -7.9      1.737      2.334
REMARK  Name = 
REMARK  5 active torsions:
REMARK  status: ('A' for Active; 'I' for Inactive)
REMARK    1  A    between atoms: C_1  and  O_2
REMARK    2  A    between atoms: O_2  and  C_3
REMARK    3  A    between atoms: C_8  and  N_9
REMARK    4  A    between atoms: C_15  and  C_16
REMARK    5  A    between atoms: C_18  and  C_19
REMARK                            x       y       z     vdW  Elec       q    Type
REMARK                         _______ _______ _______ _____ _____    ______ ____
ROOT
ATOM      1  N   UNL     1      -4.380  12.983  21.898  0.00  0.00    +0.000 N 
ATOM      2  C   UNL     1      -3.108  13.070  22.431  0.00  0.00    +0.000 C 
ATOM      3  O   UNL     1      -2.885  13.391  23.598  0.00  0.00    +0.000 OA
ATOM      4  N   UNL     1      -2.042  12.835  21.560  0.00  0.00    +0.000 N 
ATOM      5  C   UNL     1      -0.707  12.924  22.172  0.00  0.00    +0.000 C 
ATOM      6  C   UNL     1       0.371  13.349  21.179  0.00  0.00    +0.000 C 
ATOM      7  C   UNL     1       0.392  12.449  19.942  0.00  0.00    +0.000 C 
ATOM      8  C   UNL     1      -1.016  12.404  19.327  0.00  0.00    +0.000 C 
ATOM      9  C   UNL     1      -2.127  12.062  20.327  0.00  0.00    +0.000 C 
ATOM     10  H   UNL     1      -4.551  12.341  21.139  0.00  0.00    +0.000 HD
ENDROOT
BRANCH   1  16
ATOM     11  C   UNL     1      -6.772  12.763  22.419  0.00  0.00    +0.000 A 
ATOM     12  C   UNL     1      -7.915  13.235  23.086  0.00  0.00    +0.000 A 
ATOM     13  C   UNL     1      -7.887  14.432  23.800  0.00  0.00    +0.000 A 
ATOM     14  C   UNL     1      -6.718  15.174  23.849  0.00  0.00    +0.000 A 
ATOM     15  C   UNL     1      -5.570  14.703  23.214  0.00  0.00    +0.000 A 
ATOM     16  C   UNL     1      -5.562  13.480  22.524  0.00  0.00    +0.000 A 
BRANCH  11  18
ATOM     17  C   UNL     1      -7.677  11.576  20.581  0.00  0.00    +0.000 C 
ATOM     18  O   UNL     1      -6.763  11.598  21.682  0.00  0.00    +0.000 OA
ENDBRANCH  11  18
ENDBRANCH   1  16
BRANCH   7  19
ATOM     19  C   UNL     1       0.904  11.097  20.301  0.00  0.00    +0.000 A 
ATOM     20  N   UNL     1       1.247  10.107  19.517  0.00  0.00    +0.000 NA
ATOM     21  C   UNL     1       1.441   9.069  20.399  0.00  0.00    +0.000 A 
ATOM     22  N   UNL     1       1.281   9.417  21.688  0.00  0.00    +0.000 NA
ATOM     23  O   UNL     1       0.917  10.764  21.624  0.00  0.00    +0.000 OA
BRANCH  21  24
ATOM     24  C   UNL     1       1.783   7.733  19.928  0.00  0.00    +0.000 A 
ATOM     25  C   UNL     1       2.248   7.562  18.617  0.00  0.00    +0.000 A 
ATOM     26  C   UNL     1       2.660   6.310  18.162  0.00  0.00    +0.000 A 
ATOM     27  C   UNL     1       2.607   5.196  19.009  0.00  0.00    +0.000 A 
ATOM     28  C   UNL     1       3.095   3.947  18.592  0.00  0.00    +0.000 A 
ATOM     29  C   UNL     1       3.028   2.842  19.439  0.00  0.00    +0.000 A 
ATOM     30  C   UNL     1       2.440   2.962  20.695  0.00  0.00    +0.000 A 
ATOM     31  C   UNL     1       1.961   4.200  21.127  0.00  0.00    +0.000 A 
ATOM     32  C   UNL     1       2.067   5.336  20.308  0.00  0.00    +0.000 A 
ATOM     33  C   UNL     1       1.667   6.608  20.757  0.00  0.00    +0.000 A 
ENDBRANCH  21  24
ENDBRANCH   7  19
TORSDOF 4
ENDMDL
MODEL 7
REMARK VINA RESULT:      -7.8      1.839      2.471
REMARK  Name = 
REMARK  5 active torsions:
REMARK  status: ('A' for Active; 'I' for Inactive)
REMARK    1  A    between atoms: C_1  and  O_2
REMARK    2  A    between atoms: O_2  and  C_3
REMARK    3  A    between atoms: C_8  and  N_9
REMARK    4  A    between atoms: C_15  and  C_16
REMARK    5  A    between atoms: C_18  and  C_19
REMARK                            x       y       z     vdW  Elec       q    Type
REMARK                         _______ _______ _______ _____ _____    ______ ____
ROOT
ATOM      1  N   UNL     1      -4.000  13.255  21.106  0.00  0.00    +0.000 N 
ATOM      2  C   UNL     1      -2.655  13.391  21.395  0.00  0.00    +0.000 C 
ATOM      3  O   UNL     1      -2.232  14.008  22.373  0.00  0.00    +0.000 OA
ATOM      4  N   UNL     1      -1.755  12.839  20.480  0.00  0.00    +0.000 N 
ATOM      5  C   UNL     1      -0.336  12.994  20.833  0.00  0.00    +0.000 C 
ATOM      6  C   UNL     1       0.576  13.039  19.611  0.00  0.00    +0.000 C 
ATOM      7  C   UNL     1       0.364  11.829  18.698  0.00  0.00    +0.000 C 
ATOM      8  C   UNL     1      -1.126  11.722  18.340  0.00  0.00    +0.000 C 
ATOM      9  C   UNL     1      -2.067  11.761  19.550  0.00  0.00    +0.000 C 
ATOM     10  H   UNL     1      -4.314  12.441  20.600  0.00  0.00    +0.000 HD
ENDROOT
BRANCH   1  16
ATOM     11  C   UNL     1      -5.623  13.532  22.930  0.00  0.00    +0.000 A 
ATOM     12  C   UNL     1      -6.614  14.300  23.565  0.00  0.00    +0.000 A 
ATOM     13  C   UNL     1      -7.078  15.485  22.996  0.00  0.00    +0.000 A 
ATOM     14  C   UNL     1      -6.561  15.912  21.782  0.00  0.00    +0.000 A 
ATOM     15  C   UNL     1      -5.559  15.172  21.157  0.00  0.00    +0.000 A 
ATOM     16  C   UNL     1      -5.046  13.998  21.730  0.00  0.00    +0.000 A 
BRANCH  11  18
ATOM     17  C   UNL     1      -4.454  12.459  24.688  0.00  0.00    +0.000 C 
ATOM     18  O   UNL     1      -5.155  12.342  23.445  0.00  0.00    +0.000 OA
ENDBRANCH  11  18
ENDBRANCH   1  16
BRANCH   7  19
ATOM     19  C   UNL     1       0.888  10.598  19.352  0.00  0.00    +0.000 A 
ATOM     20  N   UNL     1       1.429   9.538  18.806  0.00  0.00    +0.000 NA
ATOM     21  C   UNL     1       1.525   8.663  19.864  0.00  0.00    +0.000 A 
ATOM     22  N   UNL     1       1.112   9.181  21.033  0.00  0.00    +0.000 NA
ATOM     23  O   UNL     1       0.681  10.465  20.693  0.00  0.00    +0.000 OA
BRANCH  21  24
ATOM     24  C   UNL     1       2.032   7.309  19.679  0.00  0.00    +0.000 A 
ATOM     25  C   UNL     1       2.844   7.022  18.574  0.00  0.00    +0.000 A 
ATOM     26  C   UNL     1       3.409   5.757  18.412  0.00  0.00    +0.000 A 
ATOM     27  C   UNL     1       3.167   4.748  19.350  0.00  0.00    +0.000 A 
ATOM     28  C   UNL     1       3.794   3.496  19.245  0.00  0.00    +0.000 A 
ATOM     29  C   UNL     1       3.537   2.493  20.178  0.00  0.00    +0.000 A 
ATOM     30  C   UNL     1       2.624   2.715  21.205  0.00  0.00    +0.000 A 
ATOM     31  C   UNL     1       2.000   3.958  21.328  0.00  0.00    +0.000 A 
ATOM     32  C   UNL     1       2.286   4.997  20.427  0.00  0.00    +0.000 A 
ATOM     33  C   UNL     1       1.733   6.281  20.584  0.00  0.00    +0.000 A 
ENDBRANCH  21  24
ENDBRANCH   7  19
TORSDOF 4
ENDMDL
MODEL 8
REMARK VINA RESULT:      -7.8      1.685      2.148
REMARK  Name = 
REMARK  5 active torsions:
REMARK  status: ('A' for Active; 'I' for Inactive)
REMARK    1  A    between atoms: C_1  and  O_2
REMARK    2  A    between atoms: O_2  and  C_3
REMARK    3  A    between atoms: C_8  and  N_9
REMARK    4  A    between atoms: C_15  and  C_16
REMARK    5  A    between atoms: C_18  and  C_19
REMARK                            x       y       z     vdW  Elec       q    Type
REMARK                         _______ _______ _______ _____ _____    ______ ____
ROOT
ATOM      1  N   UNL     1      -3.687  12.916  20.941  0.00  0.00    +0.000 N 
ATOM      2  C   UNL     1      -2.365  12.979  21.337  0.00  0.00    +0.000 C 
ATOM      3  O   UNL     1      -1.992  13.551  22.361  0.00  0.00    +0.000 OA
ATOM      4  N   UNL     1      -1.422  12.405  20.481  0.00  0.00    +0.000 N 
ATOM      5  C   UNL     1      -0.030  12.482  20.947  0.00  0.00    +0.000 C 
ATOM      6  C   UNL     1       0.977  12.510  19.801  0.00  0.00    +0.000 C 
ATOM      7  C   UNL     1       0.781  11.334  18.842  0.00  0.00    +0.000 C 
ATOM      8  C   UNL     1      -0.679  11.308  18.366  0.00  0.00    +0.000 C 
ATOM      9  C   UNL     1      -1.710  11.365  19.500  0.00  0.00    +0.000 C 
ATOM     10  H   UNL     1      -3.998  12.131  20.390  0.00  0.00    +0.000 HD
ENDROOT
BRANCH   1  16
ATOM     11  C   UNL     1      -5.289  13.345  22.755  0.00  0.00    +0.000 A 
ATOM     12  C   UNL     1      -6.291  14.151  23.322  0.00  0.00    +0.000 A 
ATOM     13  C   UNL     1      -6.795  15.257  22.639  0.00  0.00    +0.000 A 
ATOM     14  C   UNL     1      -6.309  15.564  21.377  0.00  0.00    +0.000 A 
ATOM     15  C   UNL     1      -5.297  14.787  20.816  0.00  0.00    +0.000 A 
ATOM     16  C   UNL     1      -4.744  13.694  21.502  0.00  0.00    +0.000 A 
BRANCH  11  18
ATOM     17  C   UNL     1      -4.490  12.404  24.775  0.00  0.00    +0.000 C 
ATOM     18  O   UNL     1      -4.781  12.229  23.385  0.00  0.00    +0.000 OA
ENDBRANCH  11  18
ENDBRANCH   1  16
BRANCH   7  19
ATOM     19  C   UNL     1       1.193  10.063  19.501  0.00  0.00    +0.000 A 
ATOM     20  N   UNL     1       1.609   8.947  18.958  0.00  0.00    +0.000 NA
ATOM     21  C   UNL     1       1.642   8.080  20.026  0.00  0.00    +0.000 A 
ATOM     22  N   UNL     1       1.313   8.651  21.198  0.00  0.00    +0.000 NA
ATOM     23  O   UNL     1       1.007   9.969  20.849  0.00  0.00    +0.000 OA
BRANCH  21  24
ATOM     24  C   UNL     1       2.003   6.679  19.849  0.00  0.00    +0.000 A 
ATOM     25  C   UNL     1       1.607   5.738  20.809  0.00  0.00    +0.000 A 
ATOM     26  C   UNL     1       1.867   4.380  20.629  0.00  0.00    +0.000 A 
ATOM     27  C   UNL     1       2.538   3.933  19.484  0.00  0.00    +0.000 A 
ATOM     28  C   UNL     1       2.734   2.563  19.249  0.00  0.00    +0.000 A 
ATOM     29  C   UNL     1       3.413   2.129  18.111  0.00  0.00    +0.000 A 
ATOM     30  C   UNL     1       3.936   3.058  17.216  0.00  0.00    +0.000 A 
ATOM     31  C   UNL     1       3.740   4.423  17.432  0.00  0.00    +0.000 A 
ATOM     32  C   UNL     1       3.013   4.877  18.545  0.00  0.00    +0.000 A 
ATOM     33  C   UNL     1       2.733   6.242  18.734  0.00  0.00    +0.000 A 
ENDBRANCH  21  24
ENDBRANCH   7  19
TORSDOF 4
ENDMDL
MODEL 9
REMARK VINA RESULT:      -7.7      1.618      2.165
REMARK  Name = 
REMARK  5 active torsions:
REMARK  status: ('A' for Active; 'I' for Inactive)
REMARK    1  A    between atoms: C_1  and  O_2
REMARK    2  A    between atoms: O_2  and  C_3
REMARK    3  A    between atoms: C_8  and  N_9
REMARK    4  A    between atoms: C_15  and  C_16
REMARK    5  A    between atoms: C_18  and  C_19
REMARK                            x       y       z     vdW  Elec       q    Type
REMARK                         _______ _______ _______ _____ _____    ______ ____
ROOT
ATOM      1  N   UNL     1      -4.198  12.993  20.164  0.00  0.00    +0.000 N 
ATOM      2  C   UNL     1      -2.986  13.012  20.826  0.00  0.00    +0.000 C 
ATOM      3  O   UNL     1      -2.873  13.275  22.023  0.00  0.00    +0.000 OA
ATOM      4  N   UNL     1      -1.843  12.776  20.057  0.00  0.00    +0.000 N 
ATOM      5  C   UNL     1      -0.576  12.792  20.803  0.00  0.00    +0.000 C 
ATOM      6  C   UNL     1       0.610  13.221  19.944  0.00  0.00    +0.000 C 
ATOM      7  C   UNL     1       0.729  12.373  18.675  0.00  0.00    +0.000 C 
ATOM      8  C   UNL     1      -0.609  12.405  17.921  0.00  0.00    +0.000 C 
ATOM      9  C   UNL     1      -1.826  12.060  18.787  0.00  0.00    +0.000 C 
ATOM     10  H   UNL     1      -4.311  12.390  19.363  0.00  0.00    +0.000 HD
ENDROOT
BRANCH   1  16
ATOM     11  C   UNL     1      -6.476  12.624  21.010  0.00  0.00    +0.000 A 
ATOM     12  C   UNL     1      -7.655  13.135  21.579  0.00  0.00    +0.000 A 
ATOM     13  C   UNL     1      -7.822  14.505  21.777  0.00  0.00    +0.000 A 
ATOM     14  C   UNL     1      -6.815  15.380  21.401  0.00  0.00    +0.000 A 
ATOM     15  C   UNL     1      -5.630  14.883  20.860  0.00  0.00    +0.000 A 
ATOM     16  C   UNL     1      -5.422  13.505  20.690  0.00  0.00    +0.000 A 
BRANCH  11  18
ATOM     17  C   UNL     1      -7.423  10.587  20.262  0.00  0.00    +0.000 C 
ATOM     18  O   UNL     1      -6.281  11.280  20.774  0.00  0.00    +0.000 OA
ENDBRANCH  11  18
ENDBRANCH   1  16
BRANCH   7  19
ATOM     19  C   UNL     1       1.161  10.991  19.022  0.00  0.00    +0.000 A 
ATOM     20  N   UNL     1       1.903  10.159  18.335  0.00  0.00    +0.000 NA
ATOM     21  C   UNL     1       1.792   8.987  19.049  0.00  0.00    +0.000 A 
ATOM     22  N   UNL     1       1.055   9.103  20.167  0.00  0.00    +0.000 NA
ATOM     23  O   UNL     1       0.628  10.432  20.147  0.00  0.00    +0.000 OA
BRANCH  21  24
ATOM     24  C   UNL     1       2.431   7.761  18.588  0.00  0.00    +0.000 A 
ATOM     25  C   UNL     1       2.019   6.530  19.115  0.00  0.00    +0.000 A 
ATOM     26  C   UNL     1       2.555   5.333  18.638  0.00  0.00    +0.000 A 
ATOM     27  C   UNL     1       3.522   5.344  17.626  0.00  0.00    +0.000 A 
ATOM     28  C   UNL     1       4.009   4.147  17.078  0.00  0.00    +0.000 A 
ATOM     29  C   UNL     1       4.981   4.169  16.078  0.00  0.00    +0.000 A 
ATOM     30  C   UNL     1       5.503   5.382  15.641  0.00  0.00    +0.000 A 
ATOM     31  C   UNL     1       5.021   6.581  16.170  0.00  0.00    +0.000 A 
ATOM     32  C   UNL     1       4.005   6.581  17.140  0.00  0.00    +0.000 A 
ATOM     33  C   UNL     1       3.447   7.778  17.622  0.00  0.00    +0.000 A 
ENDBRANCH  21  24
ENDBRANCH   7  19
TORSDOF 4
ENDMDL
