MODEL 1
REMARK VINA RESULT:      -7.1      0.000      0.000
REMARK  Name = 
REMARK  10 active torsions:
REMARK  status: ('A' for Active; 'I' for Inactive)
REMARK    1  A    between atoms: C_1  and  C_2
REMARK    2  A    between atoms: N_5  and  C_6
REMARK    3  A    between atoms: C_6  and  C_7
REMARK    4  A    between atoms: C_7  and  C_8
REMARK    5  A    between atoms: C_8  and  C_9
REMARK    6  A    between atoms: C_9  and  C_10
REMARK    7  A    between atoms: C_10  and  N_11
REMARK    8  A    between atoms: C_15  and  C_16
REMARK    9  A    between atoms: C_21  and  O_22
REMARK   10  A    between atoms: N_26  and  C_27
REMARK                            x       y       z     vdW  Elec       q    Type
REMARK                         _______ _______ _______ _____ _____    ______ ____
ROOT
ATOM      1  C   UNL     1       3.349   8.527  17.183  0.00  0.00    +0.000 C 
ATOM      2  C   UNL     1       2.983   7.490  18.222  0.00  0.00    +0.000 A 
ATOM      3  C   UNL     1       2.096   7.783  19.311  0.00  0.00    +0.000 A 
ATOM      4  C   UNL     1       1.516   9.060  19.498  0.00  0.00    +0.000 A 
ATOM      5  N   UNL     1       0.664   9.339  20.510  0.00  0.00    +0.000 N 
ATOM      6  C   UNL     1       0.324   8.379  21.384  0.00  0.00    +0.000 A 
ATOM      7  C   UNL     1       0.870   7.115  21.281  0.00  0.00    +0.000 A 
ATOM      8  C   UNL     1       1.768   6.774  20.251  0.00  0.00    +0.000 A 
ATOM      9  C   UNL     1       2.326   5.460  20.145  0.00  0.00    +0.000 A 
ATOM     10  C   UNL     1       2.000   4.378  21.151  0.00  0.00    +0.000 C 
ATOM     11  C   UNL     1       3.207   5.201  19.055  0.00  0.00    +0.000 A 
ATOM     12  C   UNL     1       3.536   6.175  18.105  0.00  0.00    +0.000 A 
ATOM     13  C   UNL     1       4.440   5.568  17.149  0.00  0.00    +0.000 A 
ATOM     14  C   UNL     1       5.113   6.018  15.983  0.00  0.00    +0.000 A 
ATOM     15  C   UNL     1       5.939   5.143  15.274  0.00  0.00    +0.000 A 
ATOM     16  C   UNL     1       6.119   3.837  15.681  0.00  0.00    +0.000 A 
ATOM     17  C   UNL     1       5.472   3.366  16.821  0.00  0.00    +0.000 A 
ATOM     18  C   UNL     1       4.640   4.245  17.540  0.00  0.00    +0.000 A 
ATOM     19  N   UNL     1       3.892   4.043  18.684  0.00  0.00    +0.000 N 
ATOM     20  C   UNL     1       3.855   2.773  19.381  0.00  0.00    +0.000 C 
ENDROOT
BRANCH  15  21
ATOM     21  O   UNL     1       6.599   5.543  14.149  0.00  0.00    +0.000 OA
ATOM     22  H   UNL     1       6.597   6.512  14.104  0.00  0.00    +0.000 HD
ENDBRANCH  15  21
BRANCH   5  23
ATOM     23  C   UNL     1       0.064  10.692  20.635  0.00  0.00    +0.000 C 
BRANCH  23  24
ATOM     24  C   UNL     1      -0.557  11.163  19.321  0.00  0.00    +0.000 C 
BRANCH  24  25
ATOM     25  C   UNL     1      -1.735  10.298  18.872  0.00  0.00    +0.000 C 
BRANCH  25  26
ATOM     26  C   UNL     1      -1.787  10.198  17.342  0.00  0.00    +0.000 C 
BRANCH  26  27
ATOM     27  C   UNL     1      -2.911  11.032  16.731  0.00  0.00    +0.000 C 
BRANCH  27  28
ATOM     28  N   UNL     1      -2.618  11.357  15.340  0.00  0.00    +0.000 NA
ATOM     29  H   UNL     1      -1.614  11.511  15.232  0.00  0.00    +0.000 HD
ATOM     30  H   UNL     1      -3.047  12.258  15.115  0.00  0.00    +0.000 HD
ENDBRANCH  27  28
ENDBRANCH  26  27
ENDBRANCH  25  26
ENDBRANCH  24  25
ENDBRANCH  23  24
ENDBRANCH   5  23
TORSDOF 7
ENDMDL
MODEL 2
REMARK VINA RESULT:      -7.0      1.401      1.836
REMARK  Name = 
REMARK  10 active torsions:
REMARK  status: ('A' for Active; 'I' for Inactive)
REMARK    1  A    between atoms: C_1  and  C_2
REMARK    2  A    between atoms: N_5  and  C_6
REMARK    3  A    between atoms: C_6  and  C_7
REMARK    4  A    between atoms: C_7  and  C_8
REMARK    5  A    between atoms: C_8  and  C_9
REMARK    6  A    between atoms: C_9  and  C_10
REMARK    7  A    between atoms: C_10  and  N_11
REMARK    8  A    between atoms: C_15  and  C_16
REMARK    9  A    between atoms: C_21  and  O_22
REMARK   10  A    between atoms: N_26  and  C_27
REMARK                            x       y       z     vdW  Elec       q    Type
REMARK                         _______ _______ _______ _____ _____    ______ ____
ROOT
ATOM      1  C   UNL     1       3.296   8.574  17.237  0.00  0.00    +0.000 C 
ATOM      2  C   UNL     1       2.932   7.531  18.273  0.00  0.00    +0.000 A 
ATOM      3  C   UNL     1       2.048   7.820  19.366  0.00  0.00    +0.000 A 
ATOM      4  C   UNL     1       1.469   9.096  19.559  0.00  0.00    +0.000 A 
ATOM      5  N   UNL     1       0.619   9.371  20.575  0.00  0.00    +0.000 N 
ATOM      6  C   UNL     1       0.281   8.408  21.445  0.00  0.00    +0.000 A 
ATOM      7  C   UNL     1       0.828   7.144  21.336  0.00  0.00    +0.000 A 
ATOM      8  C   UNL     1       1.723   6.807  20.302  0.00  0.00    +0.000 A 
ATOM      9  C   UNL     1       2.281   5.494  20.189  0.00  0.00    +0.000 A 
ATOM     10  C   UNL     1       1.958   4.407  21.191  0.00  0.00    +0.000 C 
ATOM     11  C   UNL     1       3.158   5.239  19.096  0.00  0.00    +0.000 A 
ATOM     12  C   UNL     1       3.485   6.218  18.149  0.00  0.00    +0.000 A 
ATOM     13  C   UNL     1       4.386   5.615  17.188  0.00  0.00    +0.000 A 
ATOM     14  C   UNL     1       5.056   6.070  16.022  0.00  0.00    +0.000 A 
ATOM     15  C   UNL     1       5.880   5.198  15.307  0.00  0.00    +0.000 A 
ATOM     16  C   UNL     1       6.061   3.889  15.708  0.00  0.00    +0.000 A 
ATOM     17  C   UNL     1       5.417   3.413  16.848  0.00  0.00    +0.000 A 
ATOM     18  C   UNL     1       4.587   4.290  17.573  0.00  0.00    +0.000 A 
ATOM     19  N   UNL     1       3.843   4.083  18.718  0.00  0.00    +0.000 N 
ATOM     20  C   UNL     1       3.807   2.810  19.410  0.00  0.00    +0.000 C 
ENDROOT
BRANCH  15  21
ATOM     21  O   UNL     1       6.537   5.602  14.182  0.00  0.00    +0.000 OA
ATOM     22  H   UNL     1       5.986   5.418  13.405  0.00  0.00    +0.000 HD
ENDBRANCH  15  21
BRANCH   5  23
ATOM     23  C   UNL     1       0.019  10.724  20.707  0.00  0.00    +0.000 C 
BRANCH  23  24
ATOM     24  C   UNL     1      -0.688  11.160  19.425  0.00  0.00    +0.000 C 
BRANCH  24  25
ATOM     25  C   UNL     1      -0.331  12.584  19.000  0.00  0.00    +0.000 C 
BRANCH  25  26
ATOM     26  C   UNL     1       1.103  12.935  19.418  0.00  0.00    +0.000 C 
BRANCH  26  27
ATOM     27  C   UNL     1       1.987  13.322  18.233  0.00  0.00    +0.000 C 
BRANCH  27  28
ATOM     28  N   UNL     1       2.520  12.134  17.575  0.00  0.00    +0.000 NA
ATOM     29  H   UNL     1       2.121  11.299  18.007  0.00  0.00    +0.000 HD
ATOM     30  H   UNL     1       3.523  12.074  17.767  0.00  0.00    +0.000 HD
ENDBRANCH  27  28
ENDBRANCH  26  27
ENDBRANCH  25  26
ENDBRANCH  24  25
ENDBRANCH  23  24
ENDBRANCH   5  23
TORSDOF 7
ENDMDL
MODEL 3
REMARK VINA RESULT:      -6.9      1.956      2.703
REMARK  Name = 
REMARK  10 active torsions:
REMARK  status: ('A' for Active; 'I' for Inactive)
REMARK    1  A    between atoms: C_1  and  C_2
REMARK    2  A    between atoms: N_5  and  C_6
REMARK    3  A    between atoms: C_6  and  C_7
REMARK    4  A    between atoms: C_7  and  C_8
REMARK    5  A    between atoms: C_8  and  C_9
REMARK    6  A    between atoms: C_9  and  C_10
REMARK    7  A    between atoms: C_10  and  N_11
REMARK    8  A    between atoms: C_15  and  C_16
REMARK    9  A    between atoms: C_21  and  O_22
REMARK   10  A    between atoms: N_26  and  C_27
REMARK                            x       y       z     vdW  Elec       q    Type
REMARK                         _______ _______ _______ _____ _____    ______ ____
ROOT
ATOM      1  C   UNL     1       3.344   8.588  17.286  0.00  0.00    +0.000 C 
ATOM      2  C   UNL     1       2.954   7.535  18.301  0.00  0.00    +0.000 A 
ATOM      3  C   UNL     1       2.075   7.822  19.398  0.00  0.00    +0.000 A 
ATOM      4  C   UNL     1       1.524   9.107  19.615  0.00  0.00    +0.000 A 
ATOM      5  N   UNL     1       0.679   9.381  20.635  0.00  0.00    +0.000 N 
ATOM      6  C   UNL     1       0.318   8.409  21.486  0.00  0.00    +0.000 A 
ATOM      7  C   UNL     1       0.836   7.135  21.353  0.00  0.00    +0.000 A 
ATOM      8  C   UNL     1       1.725   6.799  20.314  0.00  0.00    +0.000 A 
ATOM      9  C   UNL     1       2.253   5.476  20.176  0.00  0.00    +0.000 A 
ATOM     10  C   UNL     1       1.904   4.377  21.156  0.00  0.00    +0.000 C 
ATOM     11  C   UNL     1       3.127   5.222  19.079  0.00  0.00    +0.000 A 
ATOM     12  C   UNL     1       3.477   6.211  18.152  0.00  0.00    +0.000 A 
ATOM     13  C   UNL     1       4.367   5.606  17.181  0.00  0.00    +0.000 A 
ATOM     14  C   UNL     1       5.049   6.069  16.025  0.00  0.00    +0.000 A 
ATOM     15  C   UNL     1       5.854   5.192  15.294  0.00  0.00    +0.000 A 
ATOM     16  C   UNL     1       6.005   3.873  15.670  0.00  0.00    +0.000 A 
ATOM     17  C   UNL     1       5.348   3.389  16.799  0.00  0.00    +0.000 A 
ATOM     18  C   UNL     1       4.537   4.270  17.540  0.00  0.00    +0.000 A 
ATOM     19  N   UNL     1       3.786   4.058  18.680  0.00  0.00    +0.000 N 
ATOM     20  C   UNL     1       3.720   2.773  19.347  0.00  0.00    +0.000 C 
ENDROOT
BRANCH  15  21
ATOM     21  O   UNL     1       6.523   5.603  14.178  0.00  0.00    +0.000 OA
ATOM     22  H   UNL     1       6.513   6.573  14.138  0.00  0.00    +0.000 HD
ENDBRANCH  15  21
BRANCH   5  23
ATOM     23  C   UNL     1       0.110  10.744  20.792  0.00  0.00    +0.000 C 
BRANCH  23  24
ATOM     24  C   UNL     1      -0.659  10.892  22.104  0.00  0.00    +0.000 C 
BRANCH  24  25
ATOM     25  C   UNL     1      -1.790  11.917  22.023  0.00  0.00    +0.000 C 
BRANCH  25  26
ATOM     26  C   UNL     1      -2.382  12.187  23.412  0.00  0.00    +0.000 C 
BRANCH  26  27
ATOM     27  C   UNL     1      -3.839  12.642  23.357  0.00  0.00    +0.000 C 
BRANCH  27  28
ATOM     28  N   UNL     1      -4.594  12.105  24.484  0.00  0.00    +0.000 NA
ATOM     29  H   UNL     1      -4.360  11.119  24.609  0.00  0.00    +0.000 HD
ATOM     30  H   UNL     1      -5.589  12.109  24.245  0.00  0.00    +0.000 HD
ENDBRANCH  27  28
ENDBRANCH  26  27
ENDBRANCH  25  26
ENDBRANCH  24  25
ENDBRANCH  23  24
ENDBRANCH   5  23
TORSDOF 7
ENDMDL
MODEL 4
REMARK VINA RESULT:      -6.8      4.026      8.856
REMARK  Name = 
REMARK  10 active torsions:
REMARK  status: ('A' for Active; 'I' for Inactive)
REMARK    1  A    between atoms: C_1  and  C_2
REMARK    2  A    between atoms: N_5  and  C_6
REMARK    3  A    between atoms: C_6  and  C_7
REMARK    4  A    between atoms: C_7  and  C_8
REMARK    5  A    between atoms: C_8  and  C_9
REMARK    6  A    between atoms: C_9  and  C_10
REMARK    7  A    between atoms: C_10  and  N_11
REMARK    8  A    between atoms: C_15  and  C_16
REMARK    9  A    between atoms: C_21  and  O_22
REMARK   10  A    between atoms: N_26  and  C_27
REMARK                            x       y       z     vdW  Elec       q    Type
REMARK                         _______ _______ _______ _____ _____    ______ ____
ROOT
ATOM      1  C   UNL     1      -0.359   8.981  22.806  0.00  0.00    +0.000 C 
ATOM      2  C   UNL     1       0.282   9.385  21.495  0.00  0.00    +0.000 A 
ATOM      3  C   UNL     1       1.035   8.460  20.699  0.00  0.00    +0.000 A 
ATOM      4  C   UNL     1       1.243   7.116  21.087  0.00  0.00    +0.000 A 
ATOM      5  N   UNL     1       1.935   6.232  20.332  0.00  0.00    +0.000 N 
ATOM      6  C   UNL     1       2.447   6.615  19.153  0.00  0.00    +0.000 A 
ATOM      7  C   UNL     1       2.307   7.919  18.720  0.00  0.00    +0.000 A 
ATOM      8  C   UNL     1       1.603   8.880  19.470  0.00  0.00    +0.000 A 
ATOM      9  C   UNL     1       1.455  10.228  19.014  0.00  0.00    +0.000 A 
ATOM     10  C   UNL     1       2.070  10.697  17.713  0.00  0.00    +0.000 C 
ATOM     11  C   UNL     1       0.705  11.125  19.829  0.00  0.00    +0.000 A 
ATOM     12  C   UNL     1       0.122  10.732  21.040  0.00  0.00    +0.000 A 
ATOM     13  C   UNL     1      -0.561  11.885  21.592  0.00  0.00    +0.000 A 
ATOM     14  C   UNL     1      -1.322  12.130  22.765  0.00  0.00    +0.000 A 
ATOM     15  C   UNL     1      -1.854  13.401  22.998  0.00  0.00    +0.000 A 
ATOM     16  C   UNL     1      -1.657  14.436  22.106  0.00  0.00    +0.000 A 
ATOM     17  C   UNL     1      -0.915  14.226  20.946  0.00  0.00    +0.000 A 
ATOM     18  C   UNL     1      -0.376  12.947  20.708  0.00  0.00    +0.000 A 
ATOM     19  N   UNL     1       0.385  12.473  19.658  0.00  0.00    +0.000 N 
ATOM     20  C   UNL     1       0.780  13.305  18.538  0.00  0.00    +0.000 C 
ENDROOT
BRANCH  15  21
ATOM     21  O   UNL     1      -2.590  13.670  24.114  0.00  0.00    +0.000 OA
ATOM     22  H   UNL     1      -2.941  14.573  24.056  0.00  0.00    +0.000 HD
ENDBRANCH  15  21
BRANCH   5  23
ATOM     23  C   UNL     1       2.093   4.824  20.780  0.00  0.00    +0.000 C 
BRANCH  23  24
ATOM     24  C   UNL     1       0.935   3.945  20.313  0.00  0.00    +0.000 C 
BRANCH  24  25
ATOM     25  C   UNL     1       1.395   2.612  19.724  0.00  0.00    +0.000 C 
BRANCH  25  26
ATOM     26  C   UNL     1       1.931   2.802  18.299  0.00  0.00    +0.000 C 
BRANCH  26  27
ATOM     27  C   UNL     1       3.203   1.997  18.033  0.00  0.00    +0.000 C 
BRANCH  27  28
ATOM     28  N   UNL     1       4.367   2.662  18.609  0.00  0.00    +0.000 NA
ATOM     29  H   UNL     1       5.186   2.061  18.504  0.00  0.00    +0.000 HD
ATOM     30  H   UNL     1       4.231   2.746  19.620  0.00  0.00    +0.000 HD
ENDBRANCH  27  28
ENDBRANCH  26  27
ENDBRANCH  25  26
ENDBRANCH  24  25
ENDBRANCH  23  24
ENDBRANCH   5  23
TORSDOF 7
ENDMDL
MODEL 5
REMARK VINA RESULT:      -6.7      1.346      1.595
REMARK  Name = 
REMARK  10 active torsions:
REMARK  status: ('A' for Active; 'I' for Inactive)
REMARK    1  A    between atoms: C_1  and  C_2
REMARK    2  A    between atoms: N_5  and  C_6
REMARK    3  A    between atoms: C_6  and  C_7
REMARK    4  A    between atoms: C_7  and  C_8
REMARK    5  A    between atoms: C_8  and  C_9
REMARK    6  A    between atoms: C_9  and  C_10
REMARK    7  A    between atoms: C_10  and  N_11
REMARK    8  A    between atoms: C_15  and  C_16
REMARK    9  A    between atoms: C_21  and  O_22
REMARK   10  A    between atoms: N_26  and  C_27
REMARK                            x       y       z     vdW  Elec       q    Type
REMARK                         _______ _______ _______ _____ _____    ______ ____
ROOT
ATOM      1  C   UNL     1       3.304   8.517  17.171  0.00  0.00    +0.000 C 
ATOM      2  C   UNL     1       2.958   7.486  18.224  0.00  0.00    +0.000 A 
ATOM      3  C   UNL     1       2.079   7.781  19.319  0.00  0.00    +0.000 A 
ATOM      4  C   UNL     1       1.488   9.053  19.499  0.00  0.00    +0.000 A 
ATOM      5  N   UNL     1       0.644   9.333  20.518  0.00  0.00    +0.000 N 
ATOM      6  C   UNL     1       0.322   8.379  21.404  0.00  0.00    +0.000 A 
ATOM      7  C   UNL     1       0.881   7.120  21.308  0.00  0.00    +0.000 A 
ATOM      8  C   UNL     1       1.771   6.778  20.272  0.00  0.00    +0.000 A 
ATOM      9  C   UNL     1       2.342   5.469  20.174  0.00  0.00    +0.000 A 
ATOM     10  C   UNL     1       2.037   4.393  21.193  0.00  0.00    +0.000 C 
ATOM     11  C   UNL     1       3.214   5.208  19.077  0.00  0.00    +0.000 A 
ATOM     12  C   UNL     1       3.523   6.176  18.115  0.00  0.00    +0.000 A 
ATOM     13  C   UNL     1       4.424   5.568  17.155  0.00  0.00    +0.000 A 
ATOM     14  C   UNL     1       5.080   6.014  15.978  0.00  0.00    +0.000 A 
ATOM     15  C   UNL     1       5.908   5.140  15.269  0.00  0.00    +0.000 A 
ATOM     16  C   UNL     1       6.105   3.839  15.687  0.00  0.00    +0.000 A 
ATOM     17  C   UNL     1       5.475   3.373  16.838  0.00  0.00    +0.000 A 
ATOM     18  C   UNL     1       4.641   4.251  17.557  0.00  0.00    +0.000 A 
ATOM     19  N   UNL     1       3.907   4.053  18.711  0.00  0.00    +0.000 N 
ATOM     20  C   UNL     1       3.890   2.789  19.420  0.00  0.00    +0.000 C 
ENDROOT
BRANCH  15  21
ATOM     21  O   UNL     1       6.553   5.535  14.134  0.00  0.00    +0.000 OA
ATOM     22  H   UNL     1       7.020   6.369  14.304  0.00  0.00    +0.000 HD
ENDBRANCH  15  21
BRANCH   5  23
ATOM     23  C   UNL     1       0.031  10.682  20.635  0.00  0.00    +0.000 C 
BRANCH  23  24
ATOM     24  C   UNL     1       1.068  11.750  20.979  0.00  0.00    +0.000 C 
BRANCH  24  25
ATOM     25  C   UNL     1       0.611  13.165  20.623  0.00  0.00    +0.000 C 
BRANCH  25  26
ATOM     26  C   UNL     1       0.789  13.433  19.123  0.00  0.00    +0.000 C 
BRANCH  26  27
ATOM     27  C   UNL     1      -0.520  13.810  18.430  0.00  0.00    +0.000 C 
BRANCH  27  28
ATOM     28  N   UNL     1      -0.985  12.724  17.575  0.00  0.00    +0.000 NA
ATOM     29  H   UNL     1      -0.781  11.829  18.022  0.00  0.00    +0.000 HD
ATOM     30  H   UNL     1      -0.429  12.720  16.716  0.00  0.00    +0.000 HD
ENDBRANCH  27  28
ENDBRANCH  26  27
ENDBRANCH  25  26
ENDBRANCH  24  25
ENDBRANCH  23  24
ENDBRANCH   5  23
TORSDOF 7
ENDMDL
MODEL 6
REMARK VINA RESULT:      -6.6      4.325      9.484
REMARK  Name = 
REMARK  10 active torsions:
REMARK  status: ('A' for Active; 'I' for Inactive)
REMARK    1  A    between atoms: C_1  and  C_2
REMARK    2  A    between atoms: N_5  and  C_6
REMARK    3  A    between atoms: C_6  and  C_7
REMARK    4  A    between atoms: C_7  and  C_8
REMARK    5  A    between atoms: C_8  and  C_9
REMARK    6  A    between atoms: C_9  and  C_10
REMARK    7  A    between atoms: C_10  and  N_11
REMARK    8  A    between atoms: C_15  and  C_16
REMARK    9  A    between atoms: C_21  and  O_22
REMARK   10  A    between atoms: N_26  and  C_27
REMARK                            x       y       z     vdW  Elec       q    Type
REMARK                         _______ _______ _______ _____ _____    ______ ____
ROOT
ATOM      1  C   UNL     1      -0.793   9.258  22.601  0.00  0.00    +0.000 C 
ATOM      2  C   UNL     1      -0.367  10.176  21.476  0.00  0.00    +0.000 A 
ATOM      3  C   UNL     1       0.551   9.756  20.457  0.00  0.00    +0.000 A 
ATOM      4  C   UNL     1       1.131   8.466  20.439  0.00  0.00    +0.000 A 
ATOM      5  N   UNL     1       1.981   8.056  19.470  0.00  0.00    +0.000 N 
ATOM      6  C   UNL     1       2.297   8.882  18.462  0.00  0.00    +0.000 A 
ATOM      7  C   UNL     1       1.792  10.167  18.426  0.00  0.00    +0.000 A 
ATOM      8  C   UNL     1       0.909  10.647  19.413  0.00  0.00    +0.000 A 
ATOM      9  C   UNL     1       0.382  11.976  19.368  0.00  0.00    +0.000 A 
ATOM     10  C   UNL     1       0.767  12.944  18.271  0.00  0.00    +0.000 C 
ATOM     11  C   UNL     1      -0.524  12.365  20.397  0.00  0.00    +0.000 A 
ATOM     12  C   UNL     1      -0.904  11.501  21.431  0.00  0.00    +0.000 A 
ATOM     13  C   UNL     1      -1.830  12.219  22.284  0.00  0.00    +0.000 A 
ATOM     14  C   UNL     1      -2.552  11.904  23.465  0.00  0.00    +0.000 A 
ATOM     15  C   UNL     1      -3.383  12.862  24.050  0.00  0.00    +0.000 A 
ATOM     16  C   UNL     1      -3.524  14.122  23.502  0.00  0.00    +0.000 A 
ATOM     17  C   UNL     1      -2.829  14.460  22.344  0.00  0.00    +0.000 A 
ATOM     18  C   UNL     1      -1.988  13.498  21.752  0.00  0.00    +0.000 A 
ATOM     19  N   UNL     1      -1.198  13.567  20.621  0.00  0.00    +0.000 N 
ATOM     20  C   UNL     1      -1.108  14.758  19.800  0.00  0.00    +0.000 C 
ENDROOT
BRANCH  15  21
ATOM     21  O   UNL     1      -4.091  12.593  25.184  0.00  0.00    +0.000 OA
ATOM     22  H   UNL     1      -5.031  12.776  25.026  0.00  0.00    +0.000 HD
ENDBRANCH  15  21
BRANCH   5  23
ATOM     23  C   UNL     1       2.533   6.676  19.491  0.00  0.00    +0.000 C 
BRANCH  23  24
ATOM     24  C   UNL     1       2.811   6.154  18.082  0.00  0.00    +0.000 C 
BRANCH  24  25
ATOM     25  C   UNL     1       2.852   4.628  18.007  0.00  0.00    +0.000 C 
BRANCH  25  26
ATOM     26  C   UNL     1       1.433   4.044  18.004  0.00  0.00    +0.000 C 
BRANCH  26  27
ATOM     27  C   UNL     1       1.239   2.954  19.056  0.00  0.00    +0.000 C 
BRANCH  27  28
ATOM     28  N   UNL     1       0.595   3.493  20.249  0.00  0.00    +0.000 NA
ATOM     29  H   UNL     1      -0.010   4.272  19.984  0.00  0.00    +0.000 HD
ATOM     30  H   UNL     1       1.311   3.909  20.849  0.00  0.00    +0.000 HD
ENDBRANCH  27  28
ENDBRANCH  26  27
ENDBRANCH  25  26
ENDBRANCH  24  25
ENDBRANCH  23  24
ENDBRANCH   5  23
TORSDOF 7
ENDMDL
MODEL 7
REMARK VINA RESULT:      -6.6      1.533      1.785
REMARK  Name = 
REMARK  10 active torsions:
REMARK  status: ('A' for Active; 'I' for Inactive)
REMARK    1  A    between atoms: C_1  and  C_2
REMARK    2  A    between atoms: N_5  and  C_6
REMARK    3  A    between atoms: C_6  and  C_7
REMARK    4  A    between atoms: C_7  and  C_8
REMARK    5  A    between atoms: C_8  and  C_9
REMARK    6  A    between atoms: C_9  and  C_10
REMARK    7  A    between atoms: C_10  and  N_11
REMARK    8  A    between atoms: C_15  and  C_16
REMARK    9  A    between atoms: C_21  and  O_22
REMARK   10  A    between atoms: N_26  and  C_27
REMARK                            x       y       z     vdW  Elec       q    Type
REMARK                         _______ _______ _______ _____ _____    ______ ____
ROOT
ATOM      1  C   UNL     1       3.286   8.582  17.290  0.00  0.00    +0.000 C 
ATOM      2  C   UNL     1       2.925   7.525  18.312  0.00  0.00    +0.000 A 
ATOM      3  C   UNL     1       2.044   7.798  19.411  0.00  0.00    +0.000 A 
ATOM      4  C   UNL     1       1.464   9.070  19.624  0.00  0.00    +0.000 A 
ATOM      5  N   UNL     1       0.617   9.329  20.646  0.00  0.00    +0.000 N 
ATOM      6  C   UNL     1       0.282   8.353  21.503  0.00  0.00    +0.000 A 
ATOM      7  C   UNL     1       0.829   7.091  21.374  0.00  0.00    +0.000 A 
ATOM      8  C   UNL     1       1.722   6.771  20.333  0.00  0.00    +0.000 A 
ATOM      9  C   UNL     1       2.280   5.460  20.200  0.00  0.00    +0.000 A 
ATOM     10  C   UNL     1       1.960   4.358  21.187  0.00  0.00    +0.000 C 
ATOM     11  C   UNL     1       3.155   5.222  19.101  0.00  0.00    +0.000 A 
ATOM     12  C   UNL     1       3.479   6.214  18.168  0.00  0.00    +0.000 A 
ATOM     13  C   UNL     1       4.379   5.625  17.195  0.00  0.00    +0.000 A 
ATOM     14  C   UNL     1       5.045   6.098  16.035  0.00  0.00    +0.000 A 
ATOM     15  C   UNL     1       5.868   5.237  15.305  0.00  0.00    +0.000 A 
ATOM     16  C   UNL     1       6.051   3.923  15.687  0.00  0.00    +0.000 A 
ATOM     17  C   UNL     1       5.411   3.430  16.821  0.00  0.00    +0.000 A 
ATOM     18  C   UNL     1       4.581   4.295  17.561  0.00  0.00    +0.000 A 
ATOM     19  N   UNL     1       3.840   4.071  18.705  0.00  0.00    +0.000 N 
ATOM     20  C   UNL     1       3.807   2.788  19.378  0.00  0.00    +0.000 C 
ENDROOT
BRANCH  15  21
ATOM     21  O   UNL     1       6.523   5.658  14.185  0.00  0.00    +0.000 OA
ATOM     22  H   UNL     1       6.048   6.413  13.802  0.00  0.00    +0.000 HD
ENDBRANCH  15  21
BRANCH   5  23
ATOM     23  C   UNL     1       0.016  10.680  20.799  0.00  0.00    +0.000 C 
BRANCH  23  24
ATOM     24  C   UNL     1      -0.587  10.880  22.188  0.00  0.00    +0.000 C 
BRANCH  24  25
ATOM     25  C   UNL     1      -1.072  12.309  22.429  0.00  0.00    +0.000 C 
BRANCH  25  26
ATOM     26  C   UNL     1      -1.379  13.013  21.101  0.00  0.00    +0.000 C 
BRANCH  26  27
ATOM     27  C   UNL     1      -2.867  13.002  20.755  0.00  0.00    +0.000 C 
BRANCH  27  28
ATOM     28  N   UNL     1      -3.077  12.562  19.381  0.00  0.00    +0.000 NA
ATOM     29  H   UNL     1      -3.932  12.985  19.016  0.00  0.00    +0.000 HD
ATOM     30  H   UNL     1      -3.263  11.556  19.383  0.00  0.00    +0.000 HD
ENDBRANCH  27  28
ENDBRANCH  26  27
ENDBRANCH  25  26
ENDBRANCH  24  25
ENDBRANCH  23  24
ENDBRANCH   5  23
TORSDOF 7
ENDMDL
MODEL 8
REMARK VINA RESULT:      -6.6      3.614      8.217
REMARK  Name = 
REMARK  10 active torsions:
REMARK  status: ('A' for Active; 'I' for Inactive)
REMARK    1  A    between atoms: C_1  and  C_2
REMARK    2  A    between atoms: N_5  and  C_6
REMARK    3  A    between atoms: C_6  and  C_7
REMARK    4  A    between atoms: C_7  and  C_8
REMARK    5  A    between atoms: C_8  and  C_9
REMARK    6  A    between atoms: C_9  and  C_10
REMARK    7  A    between atoms: C_10  and  N_11
REMARK    8  A    between atoms: C_15  and  C_16
REMARK    9  A    between atoms: C_21  and  O_22
REMARK   10  A    between atoms: N_26  and  C_27
REMARK                            x       y       z     vdW  Elec       q    Type
REMARK                         _______ _______ _______ _____ _____    ______ ____
ROOT
ATOM      1  C   UNL     1       1.678  11.007  17.784  0.00  0.00    +0.000 C 
ATOM      2  C   UNL     1       1.167  10.420  19.083  0.00  0.00    +0.000 A 
ATOM      3  C   UNL     1       1.449   9.068  19.471  0.00  0.00    +0.000 A 
ATOM      4  C   UNL     1       2.207   8.187  18.665  0.00  0.00    +0.000 A 
ATOM      5  N   UNL     1       2.494   6.918  19.033  0.00  0.00    +0.000 N 
ATOM      6  C   UNL     1       2.065   6.449  20.214  0.00  0.00    +0.000 A 
ATOM      7  C   UNL     1       1.296   7.242  21.043  0.00  0.00    +0.000 A 
ATOM      8  C   UNL     1       0.962   8.568  20.705  0.00  0.00    +0.000 A 
ATOM      9  C   UNL     1       0.171   9.388  21.571  0.00  0.00    +0.000 A 
ATOM     10  C   UNL     1      -0.370   8.863  22.883  0.00  0.00    +0.000 C 
ATOM     11  C   UNL     1      -0.095  10.725  21.156  0.00  0.00    +0.000 A 
ATOM     12  C   UNL     1       0.384  11.248  19.949  0.00  0.00    +0.000 A 
ATOM     13  C   UNL     1      -0.068  12.622  19.856  0.00  0.00    +0.000 A 
ATOM     14  C   UNL     1       0.081  13.661  18.901  0.00  0.00    +0.000 A 
ATOM     15  C   UNL     1      -0.507  14.908  19.130  0.00  0.00    +0.000 A 
ATOM     16  C   UNL     1      -1.236  15.158  20.275  0.00  0.00    +0.000 A 
ATOM     17  C   UNL     1      -1.401  14.157  21.230  0.00  0.00    +0.000 A 
ATOM     18  C   UNL     1      -0.811  12.899  21.003  0.00  0.00    +0.000 A 
ATOM     19  N   UNL     1      -0.816  11.751  21.770  0.00  0.00    +0.000 N 
ATOM     20  C   UNL     1      -1.498  11.664  23.046  0.00  0.00    +0.000 C 
ENDROOT
BRANCH  15  21
ATOM     21  O   UNL     1      -0.382  15.928  18.234  0.00  0.00    +0.000 OA
ATOM     22  H   UNL     1       0.174  15.638  17.494  0.00  0.00    +0.000 HD
ENDBRANCH  15  21
BRANCH   5  23
ATOM     23  C   UNL     1       3.323   6.051  18.156  0.00  0.00    +0.000 C 
BRANCH  23  24
ATOM     24  C   UNL     1       3.117   4.569  18.462  0.00  0.00    +0.000 C 
BRANCH  24  25
ATOM     25  C   UNL     1       2.008   3.933  17.624  0.00  0.00    +0.000 C 
BRANCH  25  26
ATOM     26  C   UNL     1       1.179   2.955  18.468  0.00  0.00    +0.000 C 
BRANCH  26  27
ATOM     27  C   UNL     1       1.787   2.700  19.846  0.00  0.00    +0.000 C 
BRANCH  27  28
ATOM     28  N   UNL     1       0.852   3.073  20.902  0.00  0.00    +0.000 NA
ATOM     29  H   UNL     1       1.028   4.038  21.185  0.00  0.00    +0.000 HD
ATOM     30  H   UNL     1       1.056   2.515  21.735  0.00  0.00    +0.000 HD
ENDBRANCH  27  28
ENDBRANCH  26  27
ENDBRANCH  25  26
ENDBRANCH  24  25
ENDBRANCH  23  24
ENDBRANCH   5  23
TORSDOF 7
ENDMDL
MODEL 9
REMARK VINA RESULT:      -6.6      1.890      2.587
REMARK  Name = 
REMARK  10 active torsions:
REMARK  status: ('A' for Active; 'I' for Inactive)
REMARK    1  A    between atoms: C_1  and  C_2
REMARK    2  A    between atoms: N_5  and  C_6
REMARK    3  A    between atoms: C_6  and  C_7
REMARK    4  A    between atoms: C_7  and  C_8
REMARK    5  A    between atoms: C_8  and  C_9
REMARK    6  A    between atoms: C_9  and  C_10
REMARK    7  A    between atoms: C_10  and  N_11
REMARK    8  A    between atoms: C_15  and  C_16
REMARK    9  A    between atoms: C_21  and  O_22
REMARK   10  A    between atoms: N_26  and  C_27
REMARK                            x       y       z     vdW  Elec       q    Type
REMARK                         _______ _______ _______ _____ _____    ______ ____
ROOT
ATOM      1  C   UNL     1       3.385   8.530  17.269  0.00  0.00    +0.000 C 
ATOM      2  C   UNL     1       2.984   7.477  18.280  0.00  0.00    +0.000 A 
ATOM      3  C   UNL     1       2.112   7.771  19.380  0.00  0.00    +0.000 A 
ATOM      4  C   UNL     1       1.580   9.062  19.606  0.00  0.00    +0.000 A 
ATOM      5  N   UNL     1       0.741   9.343  20.629  0.00  0.00    +0.000 N 
ATOM      6  C   UNL     1       0.369   8.372  21.476  0.00  0.00    +0.000 A 
ATOM      7  C   UNL     1       0.870   7.092  21.336  0.00  0.00    +0.000 A 
ATOM      8  C   UNL     1       1.751   6.748  20.293  0.00  0.00    +0.000 A 
ATOM      9  C   UNL     1       2.261   5.419  20.147  0.00  0.00    +0.000 A 
ATOM     10  C   UNL     1       1.899   4.320  21.123  0.00  0.00    +0.000 C 
ATOM     11  C   UNL     1       3.128   5.159  19.047  0.00  0.00    +0.000 A 
ATOM     12  C   UNL     1       3.489   6.148  18.124  0.00  0.00    +0.000 A 
ATOM     13  C   UNL     1       4.368   5.536  17.146  0.00  0.00    +0.000 A 
ATOM     14  C   UNL     1       5.053   5.994  15.991  0.00  0.00    +0.000 A 
ATOM     15  C   UNL     1       5.845   5.111  15.254  0.00  0.00    +0.000 A 
ATOM     16  C   UNL     1       5.978   3.787  15.623  0.00  0.00    +0.000 A 
ATOM     17  C   UNL     1       5.318   3.307  16.752  0.00  0.00    +0.000 A 
ATOM     18  C   UNL     1       4.521   4.195  17.499  0.00  0.00    +0.000 A 
ATOM     19  N   UNL     1       3.770   3.988  18.640  0.00  0.00    +0.000 N 
ATOM     20  C   UNL     1       3.689   2.701  19.301  0.00  0.00    +0.000 C 
ENDROOT
BRANCH  15  21
ATOM     21  O   UNL     1       6.516   5.518  14.138  0.00  0.00    +0.000 OA
ATOM     22  H   UNL     1       5.876   5.789  13.461  0.00  0.00    +0.000 HD
ENDBRANCH  15  21
BRANCH   5  23
ATOM     23  C   UNL     1       0.191  10.713  20.795  0.00  0.00    +0.000 C 
BRANCH  23  24
ATOM     24  C   UNL     1      -0.775  10.799  21.975  0.00  0.00    +0.000 C 
BRANCH  24  25
ATOM     25  C   UNL     1      -1.635  12.062  21.953  0.00  0.00    +0.000 C 
BRANCH  25  26
ATOM     26  C   UNL     1      -1.338  12.947  23.171  0.00  0.00    +0.000 C 
BRANCH  26  27
ATOM     27  C   UNL     1      -0.748  14.303  22.788  0.00  0.00    +0.000 C 
BRANCH  27  28
ATOM     28  N   UNL     1       0.620  14.156  22.303  0.00  0.00    +0.000 NA
ATOM     29  H   UNL     1       0.627  13.530  21.495  0.00  0.00    +0.000 HD
ATOM     30  H   UNL     1       1.170  13.670  23.015  0.00  0.00    +0.000 HD
ENDBRANCH  27  28
ENDBRANCH  26  27
ENDBRANCH  25  26
ENDBRANCH  24  25
ENDBRANCH  23  24
ENDBRANCH   5  23
TORSDOF 7
ENDMDL
