MODEL 1
REMARK VINA RESULT:      -7.6      0.000      0.000
REMARK  Name = 
REMARK  8 active torsions:
REMARK  status: ('A' for Active; 'I' for Inactive)
REMARK    1  A    between atoms: C_1  and  C_2
REMARK    2  A    between atoms: C_2  and  C_3
REMARK    3  A    between atoms: C_3  and  C_4
REMARK    4  A    between atoms: C_9  and  N_10
REMARK    5  A    between atoms: N_10  and  C_11
REMARK    6  A    between atoms: C_11  and  C_12
REMARK    7  A    between atoms: N_20  and  C_21
REMARK    8  A    between atoms: C_25  and  C_26
REMARK                            x       y       z     vdW  Elec       q    Type
REMARK                         _______ _______ _______ _____ _____    ______ ____
ROOT
ATOM      1  N   UNL     1       0.783  11.021  18.956  0.00  0.00    +0.000 N 
ATOM      2  C   UNL     1       1.499   9.933  18.431  0.00  0.00    +0.000 C 
ATOM      3  O   UNL     1       2.294  10.060  17.503  0.00  0.00    +0.000 OA
ATOM      4  N   UNL     1       1.335   8.714  19.055  0.00  0.00    +0.000 N 
ATOM      5  H   UNL     1       0.413   8.468  19.383  0.00  0.00    +0.000 HD
ENDROOT
BRANCH   1  11
ATOM      6  C   UNL     1       1.712  15.504  21.149  0.00  0.00    +0.000 C 
ATOM      7  O   UNL     1       0.760  16.171  21.556  0.00  0.00    +0.000 OA
ATOM      8  N   UNL     1       1.550  14.227  20.628  0.00  0.00    +0.000 N 
ATOM      9  C   UNL     1       2.630  13.338  20.195  0.00  0.00    +0.000 C 
ATOM     10  C   UNL     1       2.471  13.043  18.709  0.00  0.00    +0.000 C 
ATOM     11  C   UNL     1       1.088  12.393  18.400  0.00  0.00    +0.000 C 
ATOM     12  C   UNL     1       0.049  13.447  18.857  0.00  0.00    +0.000 C 
ATOM     13  C   UNL     1       0.200  13.734  20.352  0.00  0.00    +0.000 C 
BRANCH   6  14
ATOM     14  C   UNL     1       3.128  16.060  21.162  0.00  0.00    +0.000 C 
BRANCH  14  16
ATOM     15  C   UNL     1       2.919  16.804  18.769  0.00  0.00    +0.000 C 
ATOM     16  C   UNL     1       3.311  17.214  20.179  0.00  0.00    +0.000 C 
ENDBRANCH  14  16
ENDBRANCH   6  14
ENDBRANCH   1  11
BRANCH   4  17
ATOM     17  C   UNL     1       2.276   7.657  18.894  0.00  0.00    +0.000 A 
ATOM     18  C   UNL     1       2.401   6.641  19.849  0.00  0.00    +0.000 A 
ATOM     19  C   UNL     1       3.357   5.633  19.712  0.00  0.00    +0.000 A 
ATOM     20  C   UNL     1       4.199   5.631  18.608  0.00  0.00    +0.000 A 
ATOM     21  C   UNL     1       4.070   6.618  17.619  0.00  0.00    +0.000 A 
ATOM     22  C   UNL     1       3.083   7.618  17.755  0.00  0.00    +0.000 A 
BRANCH  21  23
ATOM     23  C   UNL     1       4.996   6.621  16.430  0.00  0.00    +0.000 C 
ATOM     24  F   UNL     1       5.242   5.378  15.928  0.00  0.00    +0.000 F 
ATOM     25  F   UNL     1       4.504   7.351  15.392  0.00  0.00    +0.000 F 
ATOM     26  F   UNL     1       6.215   7.151  16.719  0.00  0.00    +0.000 F 
ENDBRANCH  21  23
ENDBRANCH   4  17
BRANCH   1  27
ATOM     27  C   UNL     1      -0.623  10.811  19.373  0.00  0.00    +0.000 C 
BRANCH  27  28
ATOM     28  C   UNL     1      -1.730  10.834  18.334  0.00  0.00    +0.000 A 
ATOM     29  C   UNL     1      -2.908  11.578  18.447  0.00  0.00    +0.000 A 
ATOM     30  C   UNL     1      -3.948  11.416  17.522  0.00  0.00    +0.000 A 
ATOM     31  C   UNL     1      -3.807  10.539  16.445  0.00  0.00    +0.000 A 
ATOM     32  C   UNL     1      -2.610   9.857  16.266  0.00  0.00    +0.000 A 
ATOM     33  C   UNL     1      -1.579  10.009  17.197  0.00  0.00    +0.000 A 
ENDBRANCH  27  28
ENDBRANCH   1  27
TORSDOF 7
ENDMDL
MODEL 2
REMARK VINA RESULT:      -7.5      4.057      8.801
REMARK  Name = 
REMARK  8 active torsions:
REMARK  status: ('A' for Active; 'I' for Inactive)
REMARK    1  A    between atoms: C_1  and  C_2
REMARK    2  A    between atoms: C_2  and  C_3
REMARK    3  A    between atoms: C_3  and  C_4
REMARK    4  A    between atoms: C_9  and  N_10
REMARK    5  A    between atoms: N_10  and  C_11
REMARK    6  A    between atoms: C_11  and  C_12
REMARK    7  A    between atoms: N_20  and  C_21
REMARK    8  A    between atoms: C_25  and  C_26
REMARK                            x       y       z     vdW  Elec       q    Type
REMARK                         _______ _______ _______ _____ _____    ______ ____
ROOT
ATOM      1  N   UNL     1       3.335   7.589  17.892  0.00  0.00    +0.000 N 
ATOM      2  C   UNL     1       2.572   8.745  18.125  0.00  0.00    +0.000 C 
ATOM      3  O   UNL     1       2.851   9.827  17.614  0.00  0.00    +0.000 OA
ATOM      4  N   UNL     1       1.437   8.603  18.897  0.00  0.00    +0.000 N 
ATOM      5  H   UNL     1       1.477   7.980  19.689  0.00  0.00    +0.000 HD
ENDROOT
BRANCH   1  11
ATOM      6  C   UNL     1       6.996   4.359  16.504  0.00  0.00    +0.000 C 
ATOM      7  O   UNL     1       7.984   4.238  17.230  0.00  0.00    +0.000 OA
ATOM      8  N   UNL     1       5.910   5.146  16.861  0.00  0.00    +0.000 N 
ATOM      9  C   UNL     1       4.668   5.284  16.097  0.00  0.00    +0.000 C 
ATOM     10  C   UNL     1       4.498   6.737  15.673  0.00  0.00    +0.000 C 
ATOM     11  C   UNL     1       4.477   7.692  16.905  0.00  0.00    +0.000 C 
ATOM     12  C   UNL     1       5.851   7.484  17.588  0.00  0.00    +0.000 C 
ATOM     13  C   UNL     1       6.016   6.026  18.024  0.00  0.00    +0.000 C 
BRANCH   6  14
ATOM     14  C   UNL     1       6.926   3.675  15.147  0.00  0.00    +0.000 C 
BRANCH  14  16
ATOM     15  C   UNL     1       6.567   4.081  12.691  0.00  0.00    +0.000 C 
ATOM     16  C   UNL     1       7.109   4.654  13.990  0.00  0.00    +0.000 C 
ENDBRANCH  14  16
ENDBRANCH   6  14
ENDBRANCH   1  11
BRANCH   4  17
ATOM     17  C   UNL     1       0.390   9.568  18.873  0.00  0.00    +0.000 A 
ATOM     18  C   UNL     1       0.301  10.569  19.848  0.00  0.00    +0.000 A 
ATOM     19  C   UNL     1      -0.753  11.484  19.851  0.00  0.00    +0.000 A 
ATOM     20  C   UNL     1      -1.731  11.407  18.868  0.00  0.00    +0.000 A 
ATOM     21  C   UNL     1      -1.645  10.436  17.860  0.00  0.00    +0.000 A 
ATOM     22  C   UNL     1      -0.561   9.532  17.852  0.00  0.00    +0.000 A 
BRANCH  21  23
ATOM     23  C   UNL     1      -2.717  10.347  16.803  0.00  0.00    +0.000 C 
ATOM     24  F   UNL     1      -2.946  11.526  16.160  0.00  0.00    +0.000 F 
ATOM     25  F   UNL     1      -2.412   9.445  15.831  0.00  0.00    +0.000 F 
ATOM     26  F   UNL     1      -3.919   9.961  17.312  0.00  0.00    +0.000 F 
ENDBRANCH  21  23
ENDBRANCH   4  17
BRANCH   1  27
ATOM     27  C   UNL     1       3.557   6.646  19.012  0.00  0.00    +0.000 C 
BRANCH  27  28
ATOM     28  C   UNL     1       2.556   5.534  19.271  0.00  0.00    +0.000 A 
ATOM     29  C   UNL     1       2.080   5.175  20.537  0.00  0.00    +0.000 A 
ATOM     30  C   UNL     1       1.285   4.035  20.704  0.00  0.00    +0.000 A 
ATOM     31  C   UNL     1       0.917   3.260  19.602  0.00  0.00    +0.000 A 
ATOM     32  C   UNL     1       1.306   3.650  18.327  0.00  0.00    +0.000 A 
ATOM     33  C   UNL     1       2.112   4.780  18.163  0.00  0.00    +0.000 A 
ENDBRANCH  27  28
ENDBRANCH   1  27
TORSDOF 7
ENDMDL
MODEL 3
REMARK VINA RESULT:      -7.5      0.249      1.107
REMARK  Name = 
REMARK  8 active torsions:
REMARK  status: ('A' for Active; 'I' for Inactive)
REMARK    1  A    between atoms: C_1  and  C_2
REMARK    2  A    between atoms: C_2  and  C_3
REMARK    3  A    between atoms: C_3  and  C_4
REMARK    4  A    between atoms: C_9  and  N_10
REMARK    5  A    between atoms: N_10  and  C_11
REMARK    6  A    between atoms: C_11  and  C_12
REMARK    7  A    between atoms: N_20  and  C_21
REMARK    8  A    between atoms: C_25  and  C_26
REMARK                            x       y       z     vdW  Elec       q    Type
REMARK                         _______ _______ _______ _____ _____    ______ ____
ROOT
ATOM      1  N   UNL     1       0.726  11.029  18.879  0.00  0.00    +0.000 N 
ATOM      2  C   UNL     1       1.441   9.928  18.380  0.00  0.00    +0.000 C 
ATOM      3  O   UNL     1       2.223  10.028  17.438  0.00  0.00    +0.000 OA
ATOM      4  N   UNL     1       1.290   8.728  19.044  0.00  0.00    +0.000 N 
ATOM      5  H   UNL     1       0.373   8.490  19.391  0.00  0.00    +0.000 HD
ENDROOT
BRANCH   1  11
ATOM      6  C   UNL     1       1.656  15.584  20.917  0.00  0.00    +0.000 C 
ATOM      7  O   UNL     1       0.706  16.260  21.313  0.00  0.00    +0.000 OA
ATOM      8  N   UNL     1       1.495  14.291  20.439  0.00  0.00    +0.000 N 
ATOM      9  C   UNL     1       2.575  13.394  20.023  0.00  0.00    +0.000 C 
ATOM     10  C   UNL     1       2.402  13.050  18.549  0.00  0.00    +0.000 C 
ATOM     11  C   UNL     1       1.018  12.384  18.276  0.00  0.00    +0.000 C 
ATOM     12  C   UNL     1      -0.021  13.447  18.710  0.00  0.00    +0.000 C 
ATOM     13  C   UNL     1       0.145  13.783  20.194  0.00  0.00    +0.000 C 
BRANCH   6  14
ATOM     14  C   UNL     1       3.069  16.147  20.897  0.00  0.00    +0.000 C 
BRANCH  14  16
ATOM     15  C   UNL     1       2.313  17.114  18.702  0.00  0.00    +0.000 C 
ATOM     16  C   UNL     1       3.498  16.598  19.502  0.00  0.00    +0.000 C 
ENDBRANCH  14  16
ENDBRANCH   6  14
ENDBRANCH   1  11
BRANCH   4  17
ATOM     17  C   UNL     1       2.233   7.670  18.903  0.00  0.00    +0.000 A 
ATOM     18  C   UNL     1       2.357   6.671  19.876  0.00  0.00    +0.000 A 
ATOM     19  C   UNL     1       3.315   5.663  19.760  0.00  0.00    +0.000 A 
ATOM     20  C   UNL     1       4.160   5.643  18.658  0.00  0.00    +0.000 A 
ATOM     21  C   UNL     1       4.032   6.612  17.652  0.00  0.00    +0.000 A 
ATOM     22  C   UNL     1       3.042   7.612  17.768  0.00  0.00    +0.000 A 
BRANCH  21  23
ATOM     23  C   UNL     1       4.961   6.596  16.465  0.00  0.00    +0.000 C 
ATOM     24  F   UNL     1       6.197   7.102  16.736  0.00  0.00    +0.000 F 
ATOM     25  F   UNL     1       5.169   5.339  15.986  0.00  0.00    +0.000 F 
ATOM     26  F   UNL     1       4.484   7.324  15.419  0.00  0.00    +0.000 F 
ENDBRANCH  21  23
ENDBRANCH   4  17
BRANCH   1  27
ATOM     27  C   UNL     1      -0.673  10.827  19.322  0.00  0.00    +0.000 C 
BRANCH  27  28
ATOM     28  C   UNL     1      -1.777  10.681  18.289  0.00  0.00    +0.000 A 
ATOM     29  C   UNL     1      -1.677   9.910  17.126  0.00  0.00    +0.000 A 
ATOM     30  C   UNL     1      -2.678   9.959  16.148  0.00  0.00    +0.000 A 
ATOM     31  C   UNL     1      -3.814  10.749  16.336  0.00  0.00    +0.000 A 
ATOM     32  C   UNL     1      -3.973  11.453  17.523  0.00  0.00    +0.000 A 
ATOM     33  C   UNL     1      -2.967  11.413  18.493  0.00  0.00    +0.000 A 
ENDBRANCH  27  28
ENDBRANCH   1  27
TORSDOF 7
ENDMDL
MODEL 4
REMARK VINA RESULT:      -7.4      4.086      8.813
REMARK  Name = 
REMARK  8 active torsions:
REMARK  status: ('A' for Active; 'I' for Inactive)
REMARK    1  A    between atoms: C_1  and  C_2
REMARK    2  A    between atoms: C_2  and  C_3
REMARK    3  A    between atoms: C_3  and  C_4
REMARK    4  A    between atoms: C_9  and  N_10
REMARK    5  A    between atoms: N_10  and  C_11
REMARK    6  A    between atoms: C_11  and  C_12
REMARK    7  A    between atoms: N_20  and  C_21
REMARK    8  A    between atoms: C_25  and  C_26
REMARK                            x       y       z     vdW  Elec       q    Type
REMARK                         _______ _______ _______ _____ _____    ______ ____
ROOT
ATOM      1  N   UNL     1       3.309   7.598  17.937  0.00  0.00    +0.000 N 
ATOM      2  C   UNL     1       2.560   8.758  18.198  0.00  0.00    +0.000 C 
ATOM      3  O   UNL     1       2.831   9.841  17.685  0.00  0.00    +0.000 OA
ATOM      4  N   UNL     1       1.446   8.619  19.001  0.00  0.00    +0.000 N 
ATOM      5  H   UNL     1       1.505   7.991  19.788  0.00  0.00    +0.000 HD
ENDROOT
BRANCH   1  11
ATOM      6  C   UNL     1       6.990   4.403  16.523  0.00  0.00    +0.000 C 
ATOM      7  O   UNL     1       7.998   4.315  17.225  0.00  0.00    +0.000 OA
ATOM      8  N   UNL     1       5.899   5.178  16.892  0.00  0.00    +0.000 N 
ATOM      9  C   UNL     1       4.636   5.277  16.158  0.00  0.00    +0.000 C 
ATOM     10  C   UNL     1       4.429   6.717  15.707  0.00  0.00    +0.000 C 
ATOM     11  C   UNL     1       4.422   7.700  16.918  0.00  0.00    +0.000 C 
ATOM     12  C   UNL     1       5.817   7.530  17.569  0.00  0.00    +0.000 C 
ATOM     13  C   UNL     1       6.020   6.086  18.032  0.00  0.00    +0.000 C 
BRANCH   6  14
ATOM     14  C   UNL     1       6.897   3.688  15.184  0.00  0.00    +0.000 C 
BRANCH  14  16
ATOM     15  C   UNL     1       6.478   4.040  12.729  0.00  0.00    +0.000 C 
ATOM     16  C   UNL     1       7.054   4.641  14.001  0.00  0.00    +0.000 C 
ENDBRANCH  14  16
ENDBRANCH   6  14
ENDBRANCH   1  11
BRANCH   4  17
ATOM     17  C   UNL     1       0.405   9.590  19.012  0.00  0.00    +0.000 A 
ATOM     18  C   UNL     1       0.297  10.528  20.046  0.00  0.00    +0.000 A 
ATOM     19  C   UNL     1      -0.752  11.448  20.081  0.00  0.00    +0.000 A 
ATOM     20  C   UNL     1      -1.706  11.441  19.071  0.00  0.00    +0.000 A 
ATOM     21  C   UNL     1      -1.598  10.535  18.005  0.00  0.00    +0.000 A 
ATOM     22  C   UNL     1      -0.519   9.625  17.967  0.00  0.00    +0.000 A 
BRANCH  21  23
ATOM     23  C   UNL     1      -2.644  10.519  16.919  0.00  0.00    +0.000 C 
ATOM     24  F   UNL     1      -2.129  10.324  15.672  0.00  0.00    +0.000 F 
ATOM     25  F   UNL     1      -3.565   9.534  17.100  0.00  0.00    +0.000 F 
ATOM     26  F   UNL     1      -3.345  11.684  16.853  0.00  0.00    +0.000 F 
ENDBRANCH  21  23
ENDBRANCH   4  17
BRANCH   1  27
ATOM     27  C   UNL     1       3.556   6.648  19.045  0.00  0.00    +0.000 C 
BRANCH  27  28
ATOM     28  C   UNL     1       2.670   5.424  19.201  0.00  0.00    +0.000 A 
ATOM     29  C   UNL     1       2.130   4.697  18.136  0.00  0.00    +0.000 A 
ATOM     30  C   UNL     1       1.192   3.682  18.367  0.00  0.00    +0.000 A 
ATOM     31  C   UNL     1       0.814   3.350  19.670  0.00  0.00    +0.000 A 
ATOM     32  C   UNL     1       1.406   4.001  20.744  0.00  0.00    +0.000 A 
ATOM     33  C   UNL     1       2.331   5.023  20.512  0.00  0.00    +0.000 A 
ENDBRANCH  27  28
ENDBRANCH   1  27
TORSDOF 7
ENDMDL
MODEL 5
REMARK VINA RESULT:      -7.3      1.672      2.169
REMARK  Name = 
REMARK  8 active torsions:
REMARK  status: ('A' for Active; 'I' for Inactive)
REMARK    1  A    between atoms: C_1  and  C_2
REMARK    2  A    between atoms: C_2  and  C_3
REMARK    3  A    between atoms: C_3  and  C_4
REMARK    4  A    between atoms: C_9  and  N_10
REMARK    5  A    between atoms: N_10  and  C_11
REMARK    6  A    between atoms: C_11  and  C_12
REMARK    7  A    between atoms: N_20  and  C_21
REMARK    8  A    between atoms: C_25  and  C_26
REMARK                            x       y       z     vdW  Elec       q    Type
REMARK                         _______ _______ _______ _____ _____    ______ ____
ROOT
ATOM      1  N   UNL     1       0.436  11.018  19.041  0.00  0.00    +0.000 N 
ATOM      2  C   UNL     1       1.288  10.090  18.419  0.00  0.00    +0.000 C 
ATOM      3  O   UNL     1       2.145  10.432  17.608  0.00  0.00    +0.000 OA
ATOM      4  N   UNL     1       1.180   8.774  18.817  0.00  0.00    +0.000 N 
ATOM      5  H   UNL     1       0.259   8.410  19.007  0.00  0.00    +0.000 HD
ENDROOT
BRANCH   1  11
ATOM      6  C   UNL     1       1.748  14.954  21.965  0.00  0.00    +0.000 C 
ATOM      7  O   UNL     1       0.880  15.498  22.648  0.00  0.00    +0.000 OA
ATOM      8  N   UNL     1       1.492  13.814  21.216  0.00  0.00    +0.000 N 
ATOM      9  C   UNL     1       2.480  13.062  20.441  0.00  0.00    +0.000 C 
ATOM     10  C   UNL     1       2.087  13.084  18.969  0.00  0.00    +0.000 C 
ATOM     11  C   UNL     1       0.665  12.483  18.749  0.00  0.00    +0.000 C 
ATOM     12  C   UNL     1      -0.278  13.392  19.576  0.00  0.00    +0.000 C 
ATOM     13  C   UNL     1       0.110  13.360  21.056  0.00  0.00    +0.000 C 
BRANCH   6  14
ATOM     14  C   UNL     1       3.154  15.527  21.875  0.00  0.00    +0.000 C 
BRANCH  14  16
ATOM     15  C   UNL     1       4.168  16.375  19.735  0.00  0.00    +0.000 C 
ATOM     16  C   UNL     1       3.246  16.698  20.899  0.00  0.00    +0.000 C 
ENDBRANCH  14  16
ENDBRANCH   6  14
ENDBRANCH   1  11
BRANCH   4  17
ATOM     17  C   UNL     1       2.221   7.832  18.579  0.00  0.00    +0.000 A 
ATOM     18  C   UNL     1       3.210   8.068  17.616  0.00  0.00    +0.000 A 
ATOM     19  C   UNL     1       4.202   7.122  17.350  0.00  0.00    +0.000 A 
ATOM     20  C   UNL     1       4.215   5.925  18.054  0.00  0.00    +0.000 A 
ATOM     21  C   UNL     1       3.256   5.680  19.049  0.00  0.00    +0.000 A 
ATOM     22  C   UNL     1       2.273   6.654  19.327  0.00  0.00    +0.000 A 
BRANCH  21  23
ATOM     23  C   UNL     1       3.264   4.373  19.800  0.00  0.00    +0.000 C 
ATOM     24  F   UNL     1       4.496   3.793  19.870  0.00  0.00    +0.000 F 
ATOM     25  F   UNL     1       2.844   4.512  21.086  0.00  0.00    +0.000 F 
ATOM     26  F   UNL     1       2.448   3.442  19.235  0.00  0.00    +0.000 F 
ENDBRANCH  21  23
ENDBRANCH   4  17
BRANCH   1  27
ATOM     27  C   UNL     1      -0.976  10.638  19.278  0.00  0.00    +0.000 C 
BRANCH  27  28
ATOM     28  C   UNL     1      -1.989  10.760  18.153  0.00  0.00    +0.000 A 
ATOM     29  C   UNL     1      -3.111  11.594  18.184  0.00  0.00    +0.000 A 
ATOM     30  C   UNL     1      -4.080  11.526  17.175  0.00  0.00    +0.000 A 
ATOM     31  C   UNL     1      -3.921  10.653  16.098  0.00  0.00    +0.000 A 
ATOM     32  C   UNL     1      -2.770   9.880  16.003  0.00  0.00    +0.000 A 
ATOM     33  C   UNL     1      -1.810   9.939  17.018  0.00  0.00    +0.000 A 
ENDBRANCH  27  28
ENDBRANCH   1  27
TORSDOF 7
ENDMDL
MODEL 6
REMARK VINA RESULT:      -7.3      0.504      1.126
REMARK  Name = 
REMARK  8 active torsions:
REMARK  status: ('A' for Active; 'I' for Inactive)
REMARK    1  A    between atoms: C_1  and  C_2
REMARK    2  A    between atoms: C_2  and  C_3
REMARK    3  A    between atoms: C_3  and  C_4
REMARK    4  A    between atoms: C_9  and  N_10
REMARK    5  A    between atoms: N_10  and  C_11
REMARK    6  A    between atoms: C_11  and  C_12
REMARK    7  A    between atoms: N_20  and  C_21
REMARK    8  A    between atoms: C_25  and  C_26
REMARK                            x       y       z     vdW  Elec       q    Type
REMARK                         _______ _______ _______ _____ _____    ______ ____
ROOT
ATOM      1  N   UNL     1       0.782  11.118  18.872  0.00  0.00    +0.000 N 
ATOM      2  C   UNL     1       1.472  10.002  18.370  0.00  0.00    +0.000 C 
ATOM      3  O   UNL     1       2.232  10.081  17.409  0.00  0.00    +0.000 OA
ATOM      4  N   UNL     1       1.324   8.813  19.054  0.00  0.00    +0.000 N 
ATOM      5  H   UNL     1       0.413   8.590  19.426  0.00  0.00    +0.000 HD
ENDROOT
BRANCH   1  11
ATOM      6  C   UNL     1       1.965  15.653  20.820  0.00  0.00    +0.000 C 
ATOM      7  O   UNL     1       1.061  16.358  21.269  0.00  0.00    +0.000 OA
ATOM      8  N   UNL     1       1.738  14.363  20.361  0.00  0.00    +0.000 N 
ATOM      9  C   UNL     1       2.764  13.433  19.884  0.00  0.00    +0.000 C 
ATOM     10  C   UNL     1       2.491  13.088  18.426  0.00  0.00    +0.000 C 
ATOM     11  C   UNL     1       1.075  12.461  18.243  0.00  0.00    +0.000 C 
ATOM     12  C   UNL     1       0.095  13.555  18.734  0.00  0.00    +0.000 C 
ATOM     13  C   UNL     1       0.362  13.893  20.202  0.00  0.00    +0.000 C 
BRANCH   6  14
ATOM     14  C   UNL     1       3.390  16.175  20.709  0.00  0.00    +0.000 C 
BRANCH  14  16
ATOM     15  C   UNL     1       4.348  15.164  22.803  0.00  0.00    +0.000 C 
ATOM     16  C   UNL     1       4.017  16.455  22.073  0.00  0.00    +0.000 C 
ENDBRANCH  14  16
ENDBRANCH   6  14
ENDBRANCH   1  11
BRANCH   4  17
ATOM     17  C   UNL     1       2.251   7.743  18.905  0.00  0.00    +0.000 A 
ATOM     18  C   UNL     1       2.349   6.726  19.864  0.00  0.00    +0.000 A 
ATOM     19  C   UNL     1       3.292   5.704  19.740  0.00  0.00    +0.000 A 
ATOM     20  C   UNL     1       4.148   5.688  18.646  0.00  0.00    +0.000 A 
ATOM     21  C   UNL     1       4.045   6.675  17.654  0.00  0.00    +0.000 A 
ATOM     22  C   UNL     1       3.070   7.689  17.777  0.00  0.00    +0.000 A 
BRANCH  21  23
ATOM     23  C   UNL     1       4.985   6.663  16.476  0.00  0.00    +0.000 C 
ATOM     24  F   UNL     1       4.489   7.301  15.378  0.00  0.00    +0.000 F 
ATOM     25  F   UNL     1       6.172   7.267  16.754  0.00  0.00    +0.000 F 
ATOM     26  F   UNL     1       5.290   5.402  16.065  0.00  0.00    +0.000 F 
ENDBRANCH  21  23
ENDBRANCH   4  17
BRANCH   1  27
ATOM     27  C   UNL     1      -0.608  10.938  19.350  0.00  0.00    +0.000 C 
BRANCH  27  28
ATOM     28  C   UNL     1      -1.751  10.906  18.351  0.00  0.00    +0.000 A 
ATOM     29  C   UNL     1      -2.939  11.632  18.483  0.00  0.00    +0.000 A 
ATOM     30  C   UNL     1      -4.007  11.420  17.601  0.00  0.00    +0.000 A 
ATOM     31  C   UNL     1      -3.888  10.510  16.549  0.00  0.00    +0.000 A 
ATOM     32  C   UNL     1      -2.685   9.845  16.349  0.00  0.00    +0.000 A 
ATOM     33  C   UNL     1      -1.625  10.047  17.237  0.00  0.00    +0.000 A 
ENDBRANCH  27  28
ENDBRANCH   1  27
TORSDOF 7
ENDMDL
MODEL 7
REMARK VINA RESULT:      -7.3      4.194      8.706
REMARK  Name = 
REMARK  8 active torsions:
REMARK  status: ('A' for Active; 'I' for Inactive)
REMARK    1  A    between atoms: C_1  and  C_2
REMARK    2  A    between atoms: C_2  and  C_3
REMARK    3  A    between atoms: C_3  and  C_4
REMARK    4  A    between atoms: C_9  and  N_10
REMARK    5  A    between atoms: N_10  and  C_11
REMARK    6  A    between atoms: C_11  and  C_12
REMARK    7  A    between atoms: N_20  and  C_21
REMARK    8  A    between atoms: C_25  and  C_26
REMARK                            x       y       z     vdW  Elec       q    Type
REMARK                         _______ _______ _______ _____ _____    ______ ____
ROOT
ATOM      1  N   UNL     1       2.377   6.894  18.743  0.00  0.00    +0.000 N 
ATOM      2  C   UNL     1       1.997   8.239  18.891  0.00  0.00    +0.000 C 
ATOM      3  O   UNL     1       2.176   9.069  18.004  0.00  0.00    +0.000 OA
ATOM      4  N   UNL     1       1.336   8.581  20.053  0.00  0.00    +0.000 N 
ATOM      5  H   UNL     1       1.637   8.150  20.914  0.00  0.00    +0.000 HD
ENDROOT
BRANCH   1  11
ATOM      6  C   UNL     1       7.095   5.958  17.124  0.00  0.00    +0.000 C 
ATOM      7  O   UNL     1       7.818   6.910  16.827  0.00  0.00    +0.000 OA
ATOM      8  N   UNL     1       5.829   6.133  17.667  0.00  0.00    +0.000 N 
ATOM      9  C   UNL     1       4.939   5.062  18.119  0.00  0.00    +0.000 C 
ATOM     10  C   UNL     1       3.660   5.091  17.293  0.00  0.00    +0.000 C 
ATOM     11  C   UNL     1       2.938   6.469  17.406  0.00  0.00    +0.000 C 
ATOM     12  C   UNL     1       3.961   7.494  16.856  0.00  0.00    +0.000 C 
ATOM     13  C   UNL     1       5.242   7.472  17.693  0.00  0.00    +0.000 C 
BRANCH   6  14
ATOM     14  C   UNL     1       7.539   4.524  16.878  0.00  0.00    +0.000 C 
BRANCH  14  16
ATOM     15  C   UNL     1       6.729   4.862  14.522  0.00  0.00    +0.000 C 
ATOM     16  C   UNL     1       6.828   3.889  15.685  0.00  0.00    +0.000 C 
ENDBRANCH  14  16
ENDBRANCH   6  14
ENDBRANCH   1  11
BRANCH   4  17
ATOM     17  C   UNL     1       0.561   9.771  20.150  0.00  0.00    +0.000 A 
ATOM     18  C   UNL     1       0.843  10.746  21.115  0.00  0.00    +0.000 A 
ATOM     19  C   UNL     1       0.052  11.890  21.240  0.00  0.00    +0.000 A 
ATOM     20  C   UNL     1      -1.033  12.070  20.393  0.00  0.00    +0.000 A 
ATOM     21  C   UNL     1      -1.314  11.125  19.395  0.00  0.00    +0.000 A 
ATOM     22  C   UNL     1      -0.493   9.985  19.260  0.00  0.00    +0.000 A 
BRANCH  21  23
ATOM     23  C   UNL     1      -2.502  11.317  18.486  0.00  0.00    +0.000 C 
ATOM     24  F   UNL     1      -3.563  11.917  19.097  0.00  0.00    +0.000 F 
ATOM     25  F   UNL     1      -2.208  12.090  17.406  0.00  0.00    +0.000 F 
ATOM     26  F   UNL     1      -2.976  10.141  17.992  0.00  0.00    +0.000 F 
ENDBRANCH  21  23
ENDBRANCH   4  17
BRANCH   1  27
ATOM     27  C   UNL     1       2.937   6.181  19.915  0.00  0.00    +0.000 C 
BRANCH  27  28
ATOM     28  C   UNL     1       2.282   4.901  20.402  0.00  0.00    +0.000 A 
ATOM     29  C   UNL     1       2.630   4.232  21.580  0.00  0.00    +0.000 A 
ATOM     30  C   UNL     1       2.090   2.973  21.873  0.00  0.00    +0.000 A 
ATOM     31  C   UNL     1       1.162   2.383  21.013  0.00  0.00    +0.000 A 
ATOM     32  C   UNL     1       0.738   3.070  19.883  0.00  0.00    +0.000 A 
ATOM     33  C   UNL     1       1.288   4.320  19.585  0.00  0.00    +0.000 A 
ENDBRANCH  27  28
ENDBRANCH   1  27
TORSDOF 7
ENDMDL
MODEL 8
REMARK VINA RESULT:      -7.3      4.555      6.986
REMARK  Name = 
REMARK  8 active torsions:
REMARK  status: ('A' for Active; 'I' for Inactive)
REMARK    1  A    between atoms: C_1  and  C_2
REMARK    2  A    between atoms: C_2  and  C_3
REMARK    3  A    between atoms: C_3  and  C_4
REMARK    4  A    between atoms: C_9  and  N_10
REMARK    5  A    between atoms: N_10  and  C_11
REMARK    6  A    between atoms: C_11  and  C_12
REMARK    7  A    between atoms: N_20  and  C_21
REMARK    8  A    between atoms: C_25  and  C_26
REMARK                            x       y       z     vdW  Elec       q    Type
REMARK                         _______ _______ _______ _____ _____    ______ ____
ROOT
ATOM      1  N   UNL     1       0.078  11.817  20.187  0.00  0.00    +0.000 N 
ATOM      2  C   UNL     1      -1.214  11.917  19.646  0.00  0.00    +0.000 C 
ATOM      3  O   UNL     1      -1.887  12.940  19.744  0.00  0.00    +0.000 OA
ATOM      4  N   UNL     1      -1.677  10.837  18.923  0.00  0.00    +0.000 N 
ATOM      5  H   UNL     1      -1.450   9.911  19.254  0.00  0.00    +0.000 HD
ENDROOT
BRANCH   1  11
ATOM      6  C   UNL     1       2.836  15.663  18.354  0.00  0.00    +0.000 C 
ATOM      7  O   UNL     1       4.045  15.497  18.188  0.00  0.00    +0.000 OA
ATOM      8  N   UNL     1       1.998  14.633  18.758  0.00  0.00    +0.000 N 
ATOM      9  C   UNL     1       0.544  14.724  18.904  0.00  0.00    +0.000 C 
ATOM     10  C   UNL     1       0.168  14.456  20.356  0.00  0.00    +0.000 C 
ATOM     11  C   UNL     1       0.666  13.055  20.826  0.00  0.00    +0.000 C 
ATOM     12  C   UNL     1       2.205  13.112  20.666  0.00  0.00    +0.000 C 
ATOM     13  C   UNL     1       2.583  13.369  19.205  0.00  0.00    +0.000 C 
BRANCH   6  14
ATOM     14  C   UNL     1       2.194  17.028  18.159  0.00  0.00    +0.000 C 
BRANCH  14  16
ATOM     15  C   UNL     1       1.054  18.387  16.377  0.00  0.00    +0.000 C 
ATOM     16  C   UNL     1       2.236  17.490  16.704  0.00  0.00    +0.000 C 
ENDBRANCH  14  16
ENDBRANCH   6  14
ENDBRANCH   1  11
BRANCH   4  17
ATOM     17  C   UNL     1      -2.762  10.957  18.008  0.00  0.00    +0.000 A 
ATOM     18  C   UNL     1      -2.552  10.935  16.624  0.00  0.00    +0.000 A 
ATOM     19  C   UNL     1      -3.611  11.102  15.729  0.00  0.00    +0.000 A 
ATOM     20  C   UNL     1      -4.898  11.289  16.216  0.00  0.00    +0.000 A 
ATOM     21  C   UNL     1      -5.139  11.279  17.598  0.00  0.00    +0.000 A 
ATOM     22  C   UNL     1      -4.065  11.084  18.493  0.00  0.00    +0.000 A 
BRANCH  21  23
ATOM     23  C   UNL     1      -6.535  11.498  18.123  0.00  0.00    +0.000 C 
ATOM     24  F   UNL     1      -7.321  12.236  17.289  0.00  0.00    +0.000 F 
ATOM     25  F   UNL     1      -7.202  10.329  18.326  0.00  0.00    +0.000 F 
ATOM     26  F   UNL     1      -6.547  12.151  19.317  0.00  0.00    +0.000 F 
ENDBRANCH  21  23
ENDBRANCH   4  17
BRANCH   1  27
ATOM     27  C   UNL     1       0.494  10.535  20.803  0.00  0.00    +0.000 C 
BRANCH  27  28
ATOM     28  C   UNL     1       1.145   9.464  19.946  0.00  0.00    +0.000 A 
ATOM     29  C   UNL     1       1.503   8.192  20.405  0.00  0.00    +0.000 A 
ATOM     30  C   UNL     1       2.246   7.324  19.595  0.00  0.00    +0.000 A 
ATOM     31  C   UNL     1       2.604   7.697  18.299  0.00  0.00    +0.000 A 
ATOM     32  C   UNL     1       2.182   8.920  17.794  0.00  0.00    +0.000 A 
ATOM     33  C   UNL     1       1.453   9.792  18.608  0.00  0.00    +0.000 A 
ENDBRANCH  27  28
ENDBRANCH   1  27
TORSDOF 7
ENDMDL
MODEL 9
REMARK VINA RESULT:      -7.3      1.577      2.223
REMARK  Name = 
REMARK  8 active torsions:
REMARK  status: ('A' for Active; 'I' for Inactive)
REMARK    1  A    between atoms: C_1  and  C_2
REMARK    2  A    between atoms: C_2  and  C_3
REMARK    3  A    between atoms: C_3  and  C_4
REMARK    4  A    between atoms: C_9  and  N_10
REMARK    5  A    between atoms: N_10  and  C_11
REMARK    6  A    between atoms: C_11  and  C_12
REMARK    7  A    between atoms: N_20  and  C_21
REMARK    8  A    between atoms: C_25  and  C_26
REMARK                            x       y       z     vdW  Elec       q    Type
REMARK                         _______ _______ _______ _____ _____    ______ ____
ROOT
ATOM      1  N   UNL     1       0.665  10.951  18.942  0.00  0.00    +0.000 N 
ATOM      2  C   UNL     1       1.388   9.992  18.213  0.00  0.00    +0.000 C 
ATOM      3  O   UNL     1       2.157  10.303  17.307  0.00  0.00    +0.000 OA
ATOM      4  N   UNL     1       1.260   8.676  18.607  0.00  0.00    +0.000 N 
ATOM      5  H   UNL     1       0.351   8.356  18.904  0.00  0.00    +0.000 HD
ENDROOT
BRANCH   1  11
ATOM      6  C   UNL     1       1.518  14.988  21.897  0.00  0.00    +0.000 C 
ATOM      7  O   UNL     1       0.556  15.549  22.424  0.00  0.00    +0.000 OA
ATOM      8  N   UNL     1       1.379  13.823  21.157  0.00  0.00    +0.000 N 
ATOM      9  C   UNL     1       2.474  13.052  20.564  0.00  0.00    +0.000 C 
ATOM     10  C   UNL     1       2.305  13.025  19.050  0.00  0.00    +0.000 C 
ATOM     11  C   UNL     1       0.933  12.407  18.639  0.00  0.00    +0.000 C 
ATOM     12  C   UNL     1      -0.124  13.336  19.285  0.00  0.00    +0.000 C 
ATOM     13  C   UNL     1       0.038  13.355  20.807  0.00  0.00    +0.000 C 
BRANCH   6  14
ATOM     14  C   UNL     1       2.921  15.567  22.000  0.00  0.00    +0.000 C 
BRANCH  14  16
ATOM     15  C   UNL     1       4.143  16.362  19.950  0.00  0.00    +0.000 C 
ATOM     16  C   UNL     1       3.145  16.730  21.035  0.00  0.00    +0.000 C 
ENDBRANCH  14  16
ENDBRANCH   6  14
ENDBRANCH   1  11
BRANCH   4  17
ATOM     17  C   UNL     1       2.215   7.687  18.236  0.00  0.00    +0.000 A 
ATOM     18  C   UNL     1       3.484   8.042  17.763  0.00  0.00    +0.000 A 
ATOM     19  C   UNL     1       4.401   7.072  17.353  0.00  0.00    +0.000 A 
ATOM     20  C   UNL     1       4.054   5.729  17.419  0.00  0.00    +0.000 A 
ATOM     21  C   UNL     1       2.802   5.346  17.923  0.00  0.00    +0.000 A 
ATOM     22  C   UNL     1       1.893   6.334  18.358  0.00  0.00    +0.000 A 
BRANCH  21  23
ATOM     23  C   UNL     1       2.424   3.888  17.978  0.00  0.00    +0.000 C 
ATOM     24  F   UNL     1       2.970   3.146  16.974  0.00  0.00    +0.000 F 
ATOM     25  F   UNL     1       2.818   3.294  19.137  0.00  0.00    +0.000 F 
ATOM     26  F   UNL     1       1.080   3.695  17.893  0.00  0.00    +0.000 F 
ENDBRANCH  21  23
ENDBRANCH   4  17
BRANCH   1  27
ATOM     27  C   UNL     1      -0.726  10.639  19.344  0.00  0.00    +0.000 C 
BRANCH  27  28
ATOM     28  C   UNL     1      -1.821  10.589  18.293  0.00  0.00    +0.000 A 
ATOM     29  C   UNL     1      -1.747   9.853  17.106  0.00  0.00    +0.000 A 
ATOM     30  C   UNL     1      -2.730   9.991  16.118  0.00  0.00    +0.000 A 
ATOM     31  C   UNL     1      -3.823  10.835  16.319  0.00  0.00    +0.000 A 
ATOM     32  C   UNL     1      -3.960  11.507  17.527  0.00  0.00    +0.000 A 
ATOM     33  C   UNL     1      -2.971  11.379  18.507  0.00  0.00    +0.000 A 
ENDBRANCH  27  28
ENDBRANCH   1  27
TORSDOF 7
ENDMDL
