MODEL 1
REMARK VINA RESULT:      -7.2      0.000      0.000
REMARK  Name = 
REMARK  10 active torsions:
REMARK  status: ('A' for Active; 'I' for Inactive)
REMARK    1  A    between atoms: C_1  and  C_2
REMARK    2  A    between atoms: C_2  and  C_3
REMARK    3  A    between atoms: C_3  and  C_4
REMARK    4  A    between atoms: C_3  and  N_6
REMARK    5  A    between atoms: C_4  and  C_5
REMARK    6  A    between atoms: C_10  and  C_12
REMARK    7  A    between atoms: C_12  and  C_13
REMARK    8  A    between atoms: C_13  and  O_14
REMARK    9  A    between atoms: O_14  and  C_15
REMARK   10  A    between atoms: C_18  and  C_19
REMARK                            x       y       z     vdW  Elec       q    Type
REMARK                         _______ _______ _______ _____ _____    ______ ____
ROOT
ATOM      1  N   UNL     1       3.835   3.704  18.372  0.00  0.00    +0.000 NA
ATOM      2  C   UNL     1       4.588   3.637  17.088  0.00  0.00    +0.000 C 
ATOM      3  C   UNL     1       5.177   4.982  16.625  0.00  0.00    +0.000 C 
ATOM      4  N   UNL     1       6.030   5.569  17.661  0.00  0.00    +0.000 N 
ATOM      5  C   UNL     1       7.141   6.294  17.266  0.00  0.00    +0.000 C 
ATOM      6  O   UNL     1       7.436   6.440  16.078  0.00  0.00    +0.000 OA
ATOM      7  C   UNL     1       5.453   5.581  19.010  0.00  0.00    +0.000 C 
ATOM      8  C   UNL     1       4.781   4.244  19.377  0.00  0.00    +0.000 C 
ENDROOT
BRANCH   1   9
ATOM      9  C   UNL     1       2.535   4.427  18.265  0.00  0.00    +0.000 C 
BRANCH   9  11
ATOM     10  C   UNL     1       1.715   1.979  18.746  0.00  0.00    +0.000 C 
ATOM     11  C   UNL     1       1.359   3.405  18.335  0.00  0.00    +0.000 C 
ENDBRANCH   9  11
BRANCH   9  12
ATOM     12  C   UNL     1       2.372   5.566  19.312  0.00  0.00    +0.000 C 
ATOM     13  C   UNL     1       1.461   5.270  20.497  0.00  0.00    +0.000 C 
ENDBRANCH   9  12
ENDBRANCH   1   9
BRANCH   5  14
ATOM     14  C   UNL     1       7.992   6.907  18.354  0.00  0.00    +0.000 C 
BRANCH  14  15
ATOM     15  C   UNL     1       8.144   8.393  18.094  0.00  0.00    +0.000 C 
BRANCH  15  16
ATOM     16  O   UNL     1       9.024   8.939  19.078  0.00  0.00    +0.000 OA
BRANCH  16  17
ATOM     17  C   UNL     1       9.153  10.301  19.047  0.00  0.00    +0.000 A 
ATOM     18  C   UNL     1       8.997  11.097  17.910  0.00  0.00    +0.000 A 
ATOM     19  C   UNL     1       9.142  12.481  17.993  0.00  0.00    +0.000 A 
ATOM     20  C   UNL     1       9.448  13.076  19.220  0.00  0.00    +0.000 A 
ATOM     21  C   UNL     1       9.609  12.287  20.359  0.00  0.00    +0.000 A 
ATOM     22  C   UNL     1       9.465  10.897  20.269  0.00  0.00    +0.000 A 
BRANCH  20  23
ATOM     23  C   UNL     1       9.590  14.497  19.300  0.00  0.00    +0.000 C 
ATOM     24  N   UNL     1       9.704  15.655  19.359  0.00  0.00    +0.000 NA
ENDBRANCH  20  23
ENDBRANCH  16  17
ENDBRANCH  15  16
ENDBRANCH  14  15
ENDBRANCH   5  14
TORSDOF 8
ENDMDL
MODEL 2
REMARK VINA RESULT:      -7.1      0.986      1.409
REMARK  Name = 
REMARK  10 active torsions:
REMARK  status: ('A' for Active; 'I' for Inactive)
REMARK    1  A    between atoms: C_1  and  C_2
REMARK    2  A    between atoms: C_2  and  C_3
REMARK    3  A    between atoms: C_3  and  C_4
REMARK    4  A    between atoms: C_3  and  N_6
REMARK    5  A    between atoms: C_4  and  C_5
REMARK    6  A    between atoms: C_10  and  C_12
REMARK    7  A    between atoms: C_12  and  C_13
REMARK    8  A    between atoms: C_13  and  O_14
REMARK    9  A    between atoms: O_14  and  C_15
REMARK   10  A    between atoms: C_18  and  C_19
REMARK                            x       y       z     vdW  Elec       q    Type
REMARK                         _______ _______ _______ _____ _____    ______ ____
ROOT
ATOM      1  N   UNL     1       3.786   4.098  18.432  0.00  0.00    +0.000 NA
ATOM      2  C   UNL     1       4.614   3.861  17.216  0.00  0.00    +0.000 C 
ATOM      3  C   UNL     1       5.288   5.124  16.649  0.00  0.00    +0.000 C 
ATOM      4  N   UNL     1       6.098   5.793  17.669  0.00  0.00    +0.000 N 
ATOM      5  C   UNL     1       7.261   6.429  17.272  0.00  0.00    +0.000 C 
ATOM      6  O   UNL     1       7.637   6.431  16.097  0.00  0.00    +0.000 OA
ATOM      7  C   UNL     1       5.439   5.977  18.967  0.00  0.00    +0.000 C 
ATOM      8  C   UNL     1       4.689   4.714  19.433  0.00  0.00    +0.000 C 
ENDROOT
BRANCH   1   9
ATOM      9  C   UNL     1       2.527   4.851  18.159  0.00  0.00    +0.000 C 
BRANCH   9  11
ATOM     10  C   UNL     1       1.214   3.162  19.683  0.00  0.00    +0.000 C 
ATOM     11  C   UNL     1       1.300   3.907  18.354  0.00  0.00    +0.000 C 
ENDBRANCH   9  11
BRANCH   9  12
ATOM     12  C   UNL     1       2.391   6.155  18.997  0.00  0.00    +0.000 C 
ATOM     13  C   UNL     1       2.275   7.455  18.209  0.00  0.00    +0.000 C 
ENDBRANCH   9  12
ENDBRANCH   1   9
BRANCH   5  14
ATOM     14  C   UNL     1       8.068   7.131  18.341  0.00  0.00    +0.000 C 
BRANCH  14  15
ATOM     15  C   UNL     1       8.208   8.597  17.983  0.00  0.00    +0.000 C 
BRANCH  15  16
ATOM     16  O   UNL     1       8.828   9.276  19.077  0.00  0.00    +0.000 OA
BRANCH  16  17
ATOM     17  C   UNL     1       9.261  10.544  18.800  0.00  0.00    +0.000 A 
ATOM     18  C   UNL     1      10.406  11.138  19.336  0.00  0.00    +0.000 A 
ATOM     19  C   UNL     1      10.761  12.437  18.977  0.00  0.00    +0.000 A 
ATOM     20  C   UNL     1       9.967  13.151  18.075  0.00  0.00    +0.000 A 
ATOM     21  C   UNL     1       8.820  12.565  17.537  0.00  0.00    +0.000 A 
ATOM     22  C   UNL     1       8.467  11.261  17.904  0.00  0.00    +0.000 A 
BRANCH  20  23
ATOM     23  C   UNL     1      10.340  14.481  17.705  0.00  0.00    +0.000 C 
ATOM     24  N   UNL     1      10.637  15.566  17.405  0.00  0.00    +0.000 NA
ENDBRANCH  20  23
ENDBRANCH  16  17
ENDBRANCH  15  16
ENDBRANCH  14  15
ENDBRANCH   5  14
TORSDOF 8
ENDMDL
MODEL 3
REMARK VINA RESULT:      -7.0      1.154      1.516
REMARK  Name = 
REMARK  10 active torsions:
REMARK  status: ('A' for Active; 'I' for Inactive)
REMARK    1  A    between atoms: C_1  and  C_2
REMARK    2  A    between atoms: C_2  and  C_3
REMARK    3  A    between atoms: C_3  and  C_4
REMARK    4  A    between atoms: C_3  and  N_6
REMARK    5  A    between atoms: C_4  and  C_5
REMARK    6  A    between atoms: C_10  and  C_12
REMARK    7  A    between atoms: C_12  and  C_13
REMARK    8  A    between atoms: C_13  and  O_14
REMARK    9  A    between atoms: O_14  and  C_15
REMARK   10  A    between atoms: C_18  and  C_19
REMARK                            x       y       z     vdW  Elec       q    Type
REMARK                         _______ _______ _______ _____ _____    ______ ____
ROOT
ATOM      1  N   UNL     1       3.815   3.405  18.499  0.00  0.00    +0.000 NA
ATOM      2  C   UNL     1       3.725   4.092  17.180  0.00  0.00    +0.000 C 
ATOM      3  C   UNL     1       4.113   5.581  17.211  0.00  0.00    +0.000 C 
ATOM      4  N   UNL     1       5.456   5.765  17.767  0.00  0.00    +0.000 N 
ATOM      5  C   UNL     1       6.242   6.787  17.265  0.00  0.00    +0.000 C 
ATOM      6  O   UNL     1       5.851   7.526  16.358  0.00  0.00    +0.000 OA
ATOM      7  C   UNL     1       5.721   5.034  19.012  0.00  0.00    +0.000 C 
ATOM      8  C   UNL     1       5.211   3.580  18.962  0.00  0.00    +0.000 C 
ENDROOT
BRANCH   1   9
ATOM      9  C   UNL     1       2.762   3.832  19.467  0.00  0.00    +0.000 C 
BRANCH   9  11
ATOM     10  C   UNL     1       0.893   2.213  18.582  0.00  0.00    +0.000 C 
ATOM     11  C   UNL     1       1.352   3.648  18.824  0.00  0.00    +0.000 C 
ENDBRANCH   9  11
BRANCH   9  12
ATOM     12  C   UNL     1       2.864   3.119  20.847  0.00  0.00    +0.000 C 
ATOM     13  C   UNL     1       1.654   3.245  21.764  0.00  0.00    +0.000 C 
ENDBRANCH   9  12
ENDBRANCH   1   9
BRANCH   5  14
ATOM     14  C   UNL     1       7.615   6.969  17.871  0.00  0.00    +0.000 C 
BRANCH  14  15
ATOM     15  C   UNL     1       8.059   8.406  17.685  0.00  0.00    +0.000 C 
BRANCH  15  16
ATOM     16  O   UNL     1       8.629   8.868  18.911  0.00  0.00    +0.000 OA
BRANCH  16  17
ATOM     17  C   UNL     1       9.104  10.151  18.880  0.00  0.00    +0.000 A 
ATOM     18  C   UNL     1      10.011  10.695  19.793  0.00  0.00    +0.000 A 
ATOM     19  C   UNL     1      10.436  12.016  19.662  0.00  0.00    +0.000 A 
ATOM     20  C   UNL     1       9.952  12.802  18.613  0.00  0.00    +0.000 A 
ATOM     21  C   UNL     1       9.044  12.267  17.699  0.00  0.00    +0.000 A 
ATOM     22  C   UNL     1       8.618  10.940  17.837  0.00  0.00    +0.000 A 
BRANCH  20  23
ATOM     23  C   UNL     1      10.398  14.155  18.480  0.00  0.00    +0.000 C 
ATOM     24  N   UNL     1      10.756  15.258  18.368  0.00  0.00    +0.000 NA
ENDBRANCH  20  23
ENDBRANCH  16  17
ENDBRANCH  15  16
ENDBRANCH  14  15
ENDBRANCH   5  14
TORSDOF 8
ENDMDL
MODEL 4
REMARK VINA RESULT:      -6.6      0.637      1.144
REMARK  Name = 
REMARK  10 active torsions:
REMARK  status: ('A' for Active; 'I' for Inactive)
REMARK    1  A    between atoms: C_1  and  C_2
REMARK    2  A    between atoms: C_2  and  C_3
REMARK    3  A    between atoms: C_3  and  C_4
REMARK    4  A    between atoms: C_3  and  N_6
REMARK    5  A    between atoms: C_4  and  C_5
REMARK    6  A    between atoms: C_10  and  C_12
REMARK    7  A    between atoms: C_12  and  C_13
REMARK    8  A    between atoms: C_13  and  O_14
REMARK    9  A    between atoms: O_14  and  C_15
REMARK   10  A    between atoms: C_18  and  C_19
REMARK                            x       y       z     vdW  Elec       q    Type
REMARK                         _______ _______ _______ _____ _____    ______ ____
ROOT
ATOM      1  N   UNL     1       3.843   3.765  18.558  0.00  0.00    +0.000 NA
ATOM      2  C   UNL     1       4.604   3.570  17.292  0.00  0.00    +0.000 C 
ATOM      3  C   UNL     1       5.150   4.869  16.672  0.00  0.00    +0.000 C 
ATOM      4  N   UNL     1       5.977   5.605  17.632  0.00  0.00    +0.000 N 
ATOM      5  C   UNL     1       7.064   6.315  17.156  0.00  0.00    +0.000 C 
ATOM      6  O   UNL     1       7.362   6.329  15.959  0.00  0.00    +0.000 OA
ATOM      7  C   UNL     1       5.392   5.759  18.970  0.00  0.00    +0.000 C 
ATOM      8  C   UNL     1       4.763   4.453  19.493  0.00  0.00    +0.000 C 
ENDROOT
BRANCH   1   9
ATOM      9  C   UNL     1       2.519   4.425  18.363  0.00  0.00    +0.000 C 
BRANCH   9  11
ATOM     10  C   UNL     1       1.652   1.978  18.757  0.00  0.00    +0.000 C 
ATOM     11  C   UNL     1       1.424   3.341  18.113  0.00  0.00    +0.000 C 
ENDBRANCH   9  11
BRANCH   9  12
ATOM     12  C   UNL     1       2.128   5.383  19.524  0.00  0.00    +0.000 C 
ATOM     13  C   UNL     1       1.435   4.744  20.723  0.00  0.00    +0.000 C 
ENDBRANCH   9  12
ENDBRANCH   1   9
BRANCH   5  14
ATOM     14  C   UNL     1       7.888   7.084  18.164  0.00  0.00    +0.000 C 
BRANCH  14  15
ATOM     15  C   UNL     1       7.738   8.569  17.906  0.00  0.00    +0.000 C 
BRANCH  15  16
ATOM     16  O   UNL     1       9.032   9.173  17.954  0.00  0.00    +0.000 OA
BRANCH  16  17
ATOM     17  C   UNL     1       9.100  10.341  18.665  0.00  0.00    +0.000 A 
ATOM     18  C   UNL     1       9.408  10.439  20.024  0.00  0.00    +0.000 A 
ATOM     19  C   UNL     1       9.459  11.684  20.647  0.00  0.00    +0.000 A 
ATOM     20  C   UNL     1       9.199  12.843  19.909  0.00  0.00    +0.000 A 
ATOM     21  C   UNL     1       8.888  12.753  18.552  0.00  0.00    +0.000 A 
ATOM     22  C   UNL     1       8.836  11.498  17.931  0.00  0.00    +0.000 A 
BRANCH  20  23
ATOM     23  C   UNL     1       9.260  14.118  20.552  0.00  0.00    +0.000 C 
ATOM     24  N   UNL     1       9.307  15.155  21.082  0.00  0.00    +0.000 NA
ENDBRANCH  20  23
ENDBRANCH  16  17
ENDBRANCH  15  16
ENDBRANCH  14  15
ENDBRANCH   5  14
TORSDOF 8
ENDMDL
MODEL 5
REMARK VINA RESULT:      -6.5      4.767      7.116
REMARK  Name = 
REMARK  10 active torsions:
REMARK  status: ('A' for Active; 'I' for Inactive)
REMARK    1  A    between atoms: C_1  and  C_2
REMARK    2  A    between atoms: C_2  and  C_3
REMARK    3  A    between atoms: C_3  and  C_4
REMARK    4  A    between atoms: C_3  and  N_6
REMARK    5  A    between atoms: C_4  and  C_5
REMARK    6  A    between atoms: C_10  and  C_12
REMARK    7  A    between atoms: C_12  and  C_13
REMARK    8  A    between atoms: C_13  and  O_14
REMARK    9  A    between atoms: O_14  and  C_15
REMARK   10  A    between atoms: C_18  and  C_19
REMARK                            x       y       z     vdW  Elec       q    Type
REMARK                         _______ _______ _______ _____ _____    ______ ____
ROOT
ATOM      1  N   UNL     1       4.862   5.187  16.708  0.00  0.00    +0.000 NA
ATOM      2  C   UNL     1       3.971   3.993  16.715  0.00  0.00    +0.000 C 
ATOM      3  C   UNL     1       3.884   3.272  18.073  0.00  0.00    +0.000 C 
ATOM      4  N   UNL     1       3.474   4.194  19.134  0.00  0.00    +0.000 N 
ATOM      5  C   UNL     1       2.683   3.707  20.160  0.00  0.00    +0.000 C 
ATOM      6  O   UNL     1       2.304   2.534  20.191  0.00  0.00    +0.000 OA
ATOM      7  C   UNL     1       4.193   5.473  19.161  0.00  0.00    +0.000 C 
ATOM      8  C   UNL     1       4.346   6.094  17.759  0.00  0.00    +0.000 C 
ENDROOT
BRANCH   1   9
ATOM      9  C   UNL     1       6.312   4.850  16.811  0.00  0.00    +0.000 C 
BRANCH   9  11
ATOM     10  C   UNL     1       6.914   4.853  14.254  0.00  0.00    +0.000 C 
ATOM     11  C   UNL     1       6.757   4.054  15.544  0.00  0.00    +0.000 C 
ENDBRANCH   9  11
BRANCH   9  12
ATOM     12  C   UNL     1       7.220   6.088  17.061  0.00  0.00    +0.000 C 
ATOM     13  C   UNL     1       7.792   6.235  18.466  0.00  0.00    +0.000 C 
ENDBRANCH   9  12
ENDBRANCH   1   9
BRANCH   5  14
ATOM     14  C   UNL     1       2.292   4.674  21.254  0.00  0.00    +0.000 C 
BRANCH  14  15
ATOM     15  C   UNL     1       1.400   5.754  20.675  0.00  0.00    +0.000 C 
BRANCH  15  16
ATOM     16  O   UNL     1       2.104   6.996  20.716  0.00  0.00    +0.000 OA
BRANCH  16  17
ATOM     17  C   UNL     1       1.393   8.079  20.274  0.00  0.00    +0.000 A 
ATOM     18  C   UNL     1       0.404   8.743  21.002  0.00  0.00    +0.000 A 
ATOM     19  C   UNL     1      -0.253   9.845  20.457  0.00  0.00    +0.000 A 
ATOM     20  C   UNL     1       0.077  10.287  19.173  0.00  0.00    +0.000 A 
ATOM     21  C   UNL     1       1.062   9.626  18.438  0.00  0.00    +0.000 A 
ATOM     22  C   UNL     1       1.717   8.519  18.989  0.00  0.00    +0.000 A 
BRANCH  20  23
ATOM     23  C   UNL     1      -0.596  11.422  18.622  0.00  0.00    +0.000 C 
ATOM     24  N   UNL     1      -1.146  12.343  18.167  0.00  0.00    +0.000 NA
ENDBRANCH  20  23
ENDBRANCH  16  17
ENDBRANCH  15  16
ENDBRANCH  14  15
ENDBRANCH   5  14
TORSDOF 8
ENDMDL
MODEL 6
REMARK VINA RESULT:      -6.5      6.089      8.910
REMARK  Name = 
REMARK  10 active torsions:
REMARK  status: ('A' for Active; 'I' for Inactive)
REMARK    1  A    between atoms: C_1  and  C_2
REMARK    2  A    between atoms: C_2  and  C_3
REMARK    3  A    between atoms: C_3  and  C_4
REMARK    4  A    between atoms: C_3  and  N_6
REMARK    5  A    between atoms: C_4  and  C_5
REMARK    6  A    between atoms: C_10  and  C_12
REMARK    7  A    between atoms: C_12  and  C_13
REMARK    8  A    between atoms: C_13  and  O_14
REMARK    9  A    between atoms: O_14  and  C_15
REMARK   10  A    between atoms: C_18  and  C_19
REMARK                            x       y       z     vdW  Elec       q    Type
REMARK                         _______ _______ _______ _____ _____    ______ ____
ROOT
ATOM      1  N   UNL     1       2.757   4.436  18.781  0.00  0.00    +0.000 NA
ATOM      2  C   UNL     1       1.751   4.646  19.859  0.00  0.00    +0.000 C 
ATOM      3  C   UNL     1       1.948   5.940  20.670  0.00  0.00    +0.000 C 
ATOM      4  N   UNL     1       1.977   7.113  19.793  0.00  0.00    +0.000 N 
ATOM      5  C   UNL     1       1.443   8.299  20.264  0.00  0.00    +0.000 C 
ATOM      6  O   UNL     1       0.933   8.387  21.383  0.00  0.00    +0.000 OA
ATOM      7  C   UNL     1       2.840   6.988  18.613  0.00  0.00    +0.000 C 
ATOM      8  C   UNL     1       2.679   5.628  17.905  0.00  0.00    +0.000 C 
ENDROOT
BRANCH   1   9
ATOM      9  C   UNL     1       4.120   4.106  19.292  0.00  0.00    +0.000 C 
BRANCH   9  11
ATOM     10  C   UNL     1       3.677   1.612  18.599  0.00  0.00    +0.000 C 
ATOM     11  C   UNL     1       4.193   2.589  19.651  0.00  0.00    +0.000 C 
ENDBRANCH   9  11
BRANCH   9  12
ATOM     12  C   UNL     1       5.263   4.525  18.322  0.00  0.00    +0.000 C 
ATOM     13  C   UNL     1       6.395   5.347  18.927  0.00  0.00    +0.000 C 
ENDBRANCH   9  12
ENDBRANCH   1   9
BRANCH   5  14
ATOM     14  C   UNL     1       1.505   9.500  19.348  0.00  0.00    +0.000 C 
BRANCH  14  15
ATOM     15  C   UNL     1       0.122  10.109  19.224  0.00  0.00    +0.000 C 
BRANCH  15  16
ATOM     16  O   UNL     1      -0.388   9.820  17.921  0.00  0.00    +0.000 OA
BRANCH  16  17
ATOM     17  C   UNL     1      -1.621  10.348  17.653  0.00  0.00    +0.000 A 
ATOM     18  C   UNL     1      -2.309  10.211  16.445  0.00  0.00    +0.000 A 
ATOM     19  C   UNL     1      -3.569  10.785  16.282  0.00  0.00    +0.000 A 
ATOM     20  C   UNL     1      -4.147  11.503  17.332  0.00  0.00    +0.000 A 
ATOM     21  C   UNL     1      -3.465  11.646  18.541  0.00  0.00    +0.000 A 
ATOM     22  C   UNL     1      -2.199  11.070  18.698  0.00  0.00    +0.000 A 
BRANCH  20  23
ATOM     23  C   UNL     1      -5.443  12.084  17.161  0.00  0.00    +0.000 C 
ATOM     24  N   UNL     1      -6.498  12.560  17.028  0.00  0.00    +0.000 NA
ENDBRANCH  20  23
ENDBRANCH  16  17
ENDBRANCH  15  16
ENDBRANCH  14  15
ENDBRANCH   5  14
TORSDOF 8
ENDMDL
MODEL 7
REMARK VINA RESULT:      -6.4      1.364      1.989
REMARK  Name = 
REMARK  10 active torsions:
REMARK  status: ('A' for Active; 'I' for Inactive)
REMARK    1  A    between atoms: C_1  and  C_2
REMARK    2  A    between atoms: C_2  and  C_3
REMARK    3  A    between atoms: C_3  and  C_4
REMARK    4  A    between atoms: C_3  and  N_6
REMARK    5  A    between atoms: C_4  and  C_5
REMARK    6  A    between atoms: C_10  and  C_12
REMARK    7  A    between atoms: C_12  and  C_13
REMARK    8  A    between atoms: C_13  and  O_14
REMARK    9  A    between atoms: O_14  and  C_15
REMARK   10  A    between atoms: C_18  and  C_19
REMARK                            x       y       z     vdW  Elec       q    Type
REMARK                         _______ _______ _______ _____ _____    ______ ____
ROOT
ATOM      1  N   UNL     1       2.956   5.328  18.882  0.00  0.00    +0.000 NA
ATOM      2  C   UNL     1       4.032   4.930  19.832  0.00  0.00    +0.000 C 
ATOM      3  C   UNL     1       5.396   4.659  19.171  0.00  0.00    +0.000 C 
ATOM      4  N   UNL     1       5.839   5.813  18.384  0.00  0.00    +0.000 N 
ATOM      5  C   UNL     1       7.194   6.087  18.325  0.00  0.00    +0.000 C 
ATOM      6  O   UNL     1       8.026   5.404  18.926  0.00  0.00    +0.000 OA
ATOM      7  C   UNL     1       4.825   6.386  17.491  0.00  0.00    +0.000 C 
ATOM      8  C   UNL     1       3.451   6.532  18.176  0.00  0.00    +0.000 C 
ENDROOT
BRANCH   1   9
ATOM      9  C   UNL     1       2.495   4.214  18.002  0.00  0.00    +0.000 C 
BRANCH   9  11
ATOM     10  C   UNL     1       3.386   1.745  18.074  0.00  0.00    +0.000 C 
ATOM     11  C   UNL     1       3.668   3.212  17.767  0.00  0.00    +0.000 C 
ENDBRANCH   9  11
BRANCH   9  12
ATOM     12  C   UNL     1       1.220   3.496  18.528  0.00  0.00    +0.000 C 
ATOM     13  C   UNL     1       0.819   3.799  19.967  0.00  0.00    +0.000 C 
ENDBRANCH   9  12
ENDBRANCH   1   9
BRANCH   5  14
ATOM     14  C   UNL     1       7.627   7.270  17.489  0.00  0.00    +0.000 C 
BRANCH  14  15
ATOM     15  C   UNL     1       8.352   8.268  18.369  0.00  0.00    +0.000 C 
BRANCH  15  16
ATOM     16  O   UNL     1       8.393   9.526  17.693  0.00  0.00    +0.000 OA
BRANCH  16  17
ATOM     17  C   UNL     1       8.904  10.561  18.428  0.00  0.00    +0.000 A 
ATOM     18  C   UNL     1       9.471  10.443  19.699  0.00  0.00    +0.000 A 
ATOM     19  C   UNL     1       9.971  11.566  20.355  0.00  0.00    +0.000 A 
ATOM     20  C   UNL     1       9.905  12.819  19.739  0.00  0.00    +0.000 A 
ATOM     21  C   UNL     1       9.337  12.946  18.471  0.00  0.00    +0.000 A 
ATOM     22  C   UNL     1       8.833  11.815  17.817  0.00  0.00    +0.000 A 
BRANCH  20  23
ATOM     23  C   UNL     1      10.426  13.966  20.415  0.00  0.00    +0.000 C 
ATOM     24  N   UNL     1      10.845  14.901  20.970  0.00  0.00    +0.000 NA
ENDBRANCH  20  23
ENDBRANCH  16  17
ENDBRANCH  15  16
ENDBRANCH  14  15
ENDBRANCH   5  14
TORSDOF 8
ENDMDL
MODEL 8
REMARK VINA RESULT:      -6.3      3.727      6.262
REMARK  Name = 
REMARK  10 active torsions:
REMARK  status: ('A' for Active; 'I' for Inactive)
REMARK    1  A    between atoms: C_1  and  C_2
REMARK    2  A    between atoms: C_2  and  C_3
REMARK    3  A    between atoms: C_3  and  C_4
REMARK    4  A    between atoms: C_3  and  N_6
REMARK    5  A    between atoms: C_4  and  C_5
REMARK    6  A    between atoms: C_10  and  C_12
REMARK    7  A    between atoms: C_12  and  C_13
REMARK    8  A    between atoms: C_13  and  O_14
REMARK    9  A    between atoms: O_14  and  C_15
REMARK   10  A    between atoms: C_18  and  C_19
REMARK                            x       y       z     vdW  Elec       q    Type
REMARK                         _______ _______ _______ _____ _____    ______ ____
ROOT
ATOM      1  N   UNL     1       2.446   6.997  20.455  0.00  0.00    +0.000 NA
ATOM      2  C   UNL     1       1.943   5.744  21.084  0.00  0.00    +0.000 C 
ATOM      3  C   UNL     1       1.134   4.838  20.138  0.00  0.00    +0.000 C 
ATOM      4  N   UNL     1       1.904   4.507  18.937  0.00  0.00    +0.000 N 
ATOM      5  C   UNL     1       1.729   3.258  18.367  0.00  0.00    +0.000 C 
ATOM      6  O   UNL     1       0.964   2.421  18.851  0.00  0.00    +0.000 OA
ATOM      7  C   UNL     1       2.563   5.644  18.285  0.00  0.00    +0.000 C 
ATOM      8  C   UNL     1       3.264   6.577  19.293  0.00  0.00    +0.000 C 
ENDROOT
BRANCH   1   9
ATOM      9  C   UNL     1       1.371   7.988  20.154  0.00  0.00    +0.000 C 
BRANCH   9  11
ATOM     10  C   UNL     1      -0.600   8.629  21.767  0.00  0.00    +0.000 C 
ATOM     11  C   UNL     1       0.898   8.665  21.478  0.00  0.00    +0.000 C 
ENDBRANCH   9  11
BRANCH   9  12
ATOM     12  C   UNL     1       1.779   9.039  19.082  0.00  0.00    +0.000 C 
ATOM     13  C   UNL     1       0.808   9.235  17.924  0.00  0.00    +0.000 C 
ENDBRANCH   9  12
ENDBRANCH   1   9
BRANCH   5  14
ATOM     14  C   UNL     1       2.520   2.949  17.116  0.00  0.00    +0.000 C 
BRANCH  14  15
ATOM     15  C   UNL     1       3.981   2.774  17.477  0.00  0.00    +0.000 C 
BRANCH  15  16
ATOM     16  O   UNL     1       4.779   3.350  16.440  0.00  0.00    +0.000 OA
BRANCH  16  17
ATOM     17  C   UNL     1       5.520   4.436  16.817  0.00  0.00    +0.000 A 
ATOM     18  C   UNL     1       6.472   4.445  17.840  0.00  0.00    +0.000 A 
ATOM     19  C   UNL     1       7.179   5.610  18.134  0.00  0.00    +0.000 A 
ATOM     20  C   UNL     1       6.934   6.776  17.405  0.00  0.00    +0.000 A 
ATOM     21  C   UNL     1       5.983   6.776  16.384  0.00  0.00    +0.000 A 
ATOM     22  C   UNL     1       5.273   5.604  16.094  0.00  0.00    +0.000 A 
BRANCH  20  23
ATOM     23  C   UNL     1       7.667   7.966  17.708  0.00  0.00    +0.000 C 
ATOM     24  N   UNL     1       8.270   8.932  17.952  0.00  0.00    +0.000 NA
ENDBRANCH  20  23
ENDBRANCH  16  17
ENDBRANCH  15  16
ENDBRANCH  14  15
ENDBRANCH   5  14
TORSDOF 8
ENDMDL
MODEL 9
REMARK VINA RESULT:      -6.3      5.559      7.967
REMARK  Name = 
REMARK  10 active torsions:
REMARK  status: ('A' for Active; 'I' for Inactive)
REMARK    1  A    between atoms: C_1  and  C_2
REMARK    2  A    between atoms: C_2  and  C_3
REMARK    3  A    between atoms: C_3  and  C_4
REMARK    4  A    between atoms: C_3  and  N_6
REMARK    5  A    between atoms: C_4  and  C_5
REMARK    6  A    between atoms: C_10  and  C_12
REMARK    7  A    between atoms: C_12  and  C_13
REMARK    8  A    between atoms: C_13  and  O_14
REMARK    9  A    between atoms: O_14  and  C_15
REMARK   10  A    between atoms: C_18  and  C_19
REMARK                            x       y       z     vdW  Elec       q    Type
REMARK                         _______ _______ _______ _____ _____    ______ ____
ROOT
ATOM      1  N   UNL     1       4.595   5.090  18.569  0.00  0.00    +0.000 NA
ATOM      2  C   UNL     1       5.093   6.389  18.036  0.00  0.00    +0.000 C 
ATOM      3  C   UNL     1       4.017   7.247  17.345  0.00  0.00    +0.000 C 
ATOM      4  N   UNL     1       2.881   7.487  18.237  0.00  0.00    +0.000 N 
ATOM      5  C   UNL     1       2.220   8.700  18.148  0.00  0.00    +0.000 C 
ATOM      6  O   UNL     1       2.572   9.579  17.358  0.00  0.00    +0.000 OA
ATOM      7  C   UNL     1       2.369   6.299  18.930  0.00  0.00    +0.000 C 
ATOM      8  C   UNL     1       3.497   5.421  19.507  0.00  0.00    +0.000 C 
ENDROOT
BRANCH   1   9
ATOM      9  C   UNL     1       4.251   4.101  17.506  0.00  0.00    +0.000 C 
BRANCH   9  11
ATOM     10  C   UNL     1       5.318   4.286  15.114  0.00  0.00    +0.000 C 
ATOM     11  C   UNL     1       5.484   3.881  16.575  0.00  0.00    +0.000 C 
ENDBRANCH   9  11
BRANCH   9  12
ATOM     12  C   UNL     1       3.704   2.756  18.065  0.00  0.00    +0.000 C 
ATOM     13  C   UNL     1       2.233   2.460  17.796  0.00  0.00    +0.000 C 
ENDBRANCH   9  12
ENDBRANCH   1   9
BRANCH   5  14
ATOM     14  C   UNL     1       1.038   8.915  19.065  0.00  0.00    +0.000 C 
BRANCH  14  15
ATOM     15  C   UNL     1       0.581  10.357  18.965  0.00  0.00    +0.000 C 
BRANCH  15  16
ATOM     16  O   UNL     1       0.969  11.041  20.158  0.00  0.00    +0.000 OA
BRANCH  16  17
ATOM     17  C   UNL     1      -0.035  11.230  21.069  0.00  0.00    +0.000 A 
ATOM     18  C   UNL     1      -0.173  10.532  22.271  0.00  0.00    +0.000 A 
ATOM     19  C   UNL     1      -1.232  10.813  23.131  0.00  0.00    +0.000 A 
ATOM     20  C   UNL     1      -2.163  11.798  22.791  0.00  0.00    +0.000 A 
ATOM     21  C   UNL     1      -2.034  12.497  21.591  0.00  0.00    +0.000 A 
ATOM     22  C   UNL     1      -0.970  12.209  20.728  0.00  0.00    +0.000 A 
BRANCH  20  23
ATOM     23  C   UNL     1      -3.245  12.086  23.682  0.00  0.00    +0.000 C 
ATOM     24  N   UNL     1      -4.129  12.321  24.402  0.00  0.00    +0.000 NA
ENDBRANCH  20  23
ENDBRANCH  16  17
ENDBRANCH  15  16
ENDBRANCH  14  15
ENDBRANCH   5  14
TORSDOF 8
ENDMDL
