MODEL 1
REMARK VINA RESULT:      -8.8      0.000      0.000
REMARK  Name = 
REMARK  6 active torsions:
REMARK  status: ('A' for Active; 'I' for Inactive)
REMARK    1  A    between atoms: C_1  and  C_2
REMARK    2  A    between atoms: C_2  and  S_3
REMARK    3  A    between atoms: C_2  and  C_15
REMARK    4  A    between atoms: S_3  and  C_4
REMARK    5  A    between atoms: N_17  and  C_18
REMARK    6  A    between atoms: C_20  and  C_21
REMARK                            x       y       z     vdW  Elec       q    Type
REMARK                         _______ _______ _______ _____ _____    ______ ____
ROOT
ATOM      1  C   UNL     1       1.679   2.399  21.789  0.00  0.00    +0.000 C 
ATOM      2  C   UNL     1       2.547   3.252  20.860  0.00  0.00    +0.000 C 
ENDROOT
BRANCH   2   3
ATOM      3  C   UNL     1       1.772   4.532  20.494  0.00  0.00    +0.000 C 
ATOM      4  O   UNL     1       0.573   4.506  20.216  0.00  0.00    +0.000 OA
ATOM      5  N   UNL     1       2.507   5.706  20.552  0.00  0.00    +0.000 N 
ATOM      6  H   UNL     1       3.494   5.609  20.324  0.00  0.00    +0.000 HD
BRANCH   5   7
ATOM      7  C   UNL     1       1.930   6.981  20.324  0.00  0.00    +0.000 A 
ATOM      8  C   UNL     1       1.140   7.597  21.306  0.00  0.00    +0.000 A 
ATOM      9  C   UNL     1       0.585   8.873  21.096  0.00  0.00    +0.000 A 
ATOM     10  C   UNL     1       0.814   9.516  19.869  0.00  0.00    +0.000 A 
ATOM     11  C   UNL     1       1.598   8.908  18.885  0.00  0.00    +0.000 A 
ATOM     12  C   UNL     1       2.171   7.657  19.121  0.00  0.00    +0.000 A 
ATOM     13 CL   UNL     1       3.111   6.931  17.865  0.00  0.00    +0.000 Cl
BRANCH   9  14
ATOM     14  C   UNL     1      -0.232   9.557  22.166  0.00  0.00    +0.000 C 
ATOM     15  F   UNL     1      -1.108   8.734  22.805  0.00  0.00    +0.000 F 
ATOM     16  F   UNL     1       0.552  10.094  23.144  0.00  0.00    +0.000 F 
ATOM     17  F   UNL     1      -0.971  10.590  21.678  0.00  0.00    +0.000 F 
ENDBRANCH   9  14
ENDBRANCH   5   7
ENDBRANCH   2   3
BRANCH   2  18
ATOM     18  S   UNL     1       3.027   2.319  19.354  0.00  0.00    +0.000 S 
BRANCH  18  19
ATOM     19  C   UNL     1       4.147   3.436  18.628  0.00  0.00    +0.000 A 
ATOM     20  N   UNL     1       4.919   4.208  19.316  0.00  0.00    +0.000 NA
ATOM     21  C   UNL     1       5.816   4.979  18.608  0.00  0.00    +0.000 A 
ATOM     22  C   UNL     1       5.907   4.994  17.265  0.00  0.00    +0.000 A 
ATOM     23  C   UNL     1       4.962   4.140  16.512  0.00  0.00    +0.000 A 
ATOM     24  O   UNL     1       4.949   4.098  15.286  0.00  0.00    +0.000 OA
ATOM     25  N   UNL     1       4.123   3.389  17.274  0.00  0.00    +0.000 N 
ATOM     26  C   UNL     1       6.910   5.789  16.479  0.00  0.00    +0.000 C 
ATOM     27  C   UNL     1       7.691   6.793  17.333  0.00  0.00    +0.000 C 
ATOM     28  C   UNL     1       8.041   6.207  18.696  0.00  0.00    +0.000 C 
ATOM     29  C   UNL     1       6.775   5.792  19.450  0.00  0.00    +0.000 C 
ATOM     30  H   UNL     1       3.481   2.774  16.799  0.00  0.00    +0.000 HD
ENDBRANCH  18  19
ENDBRANCH   2  18
TORSDOF 5
ENDMDL
MODEL 2
REMARK VINA RESULT:      -8.7      1.173      1.951
REMARK  Name = 
REMARK  6 active torsions:
REMARK  status: ('A' for Active; 'I' for Inactive)
REMARK    1  A    between atoms: C_1  and  C_2
REMARK    2  A    between atoms: C_2  and  S_3
REMARK    3  A    between atoms: C_2  and  C_15
REMARK    4  A    between atoms: S_3  and  C_4
REMARK    5  A    between atoms: N_17  and  C_18
REMARK    6  A    between atoms: C_20  and  C_21
REMARK                            x       y       z     vdW  Elec       q    Type
REMARK                         _______ _______ _______ _____ _____    ______ ____
ROOT
ATOM      1  C   UNL     1       1.688   2.602  21.948  0.00  0.00    +0.000 C 
ATOM      2  C   UNL     1       2.544   3.292  20.883  0.00  0.00    +0.000 C 
ENDROOT
BRANCH   2   3
ATOM      3  C   UNL     1       1.836   4.586  20.439  0.00  0.00    +0.000 C 
ATOM      4  O   UNL     1       0.663   4.587  20.066  0.00  0.00    +0.000 OA
ATOM      5  N   UNL     1       2.596   5.741  20.539  0.00  0.00    +0.000 N 
ATOM      6  H   UNL     1       3.595   5.615  20.392  0.00  0.00    +0.000 HD
BRANCH   5   7
ATOM      7  C   UNL     1       2.074   7.027  20.249  0.00  0.00    +0.000 A 
ATOM      8  C   UNL     1       1.397   7.765  21.230  0.00  0.00    +0.000 A 
ATOM      9  C   UNL     1       0.898   9.052  20.956  0.00  0.00    +0.000 A 
ATOM     10  C   UNL     1       1.067   9.581  19.666  0.00  0.00    +0.000 A 
ATOM     11  C   UNL     1       1.738   8.852  18.682  0.00  0.00    +0.000 A 
ATOM     12  C   UNL     1       2.259   7.590  18.979  0.00  0.00    +0.000 A 
ATOM     13 CL   UNL     1       3.058   6.712  17.723  0.00  0.00    +0.000 Cl
BRANCH   9  14
ATOM     14  C   UNL     1       0.205   9.867  22.021  0.00  0.00    +0.000 C 
ATOM     15  F   UNL     1       0.678   9.652  23.279  0.00  0.00    +0.000 F 
ATOM     16  F   UNL     1       0.330  11.207  21.803  0.00  0.00    +0.000 F 
ATOM     17  F   UNL     1      -1.134   9.626  22.075  0.00  0.00    +0.000 F 
ENDBRANCH   9  14
ENDBRANCH   5   7
ENDBRANCH   2   3
BRANCH   2  18
ATOM     18  S   UNL     1       2.850   2.183  19.452  0.00  0.00    +0.000 S 
BRANCH  18  19
ATOM     19  C   UNL     1       4.092   3.072  18.618  0.00  0.00    +0.000 A 
ATOM     20  N   UNL     1       4.158   3.153  17.332  0.00  0.00    +0.000 NA
ATOM     21  C   UNL     1       5.145   3.962  16.811  0.00  0.00    +0.000 A 
ATOM     22  C   UNL     1       6.045   4.633  17.554  0.00  0.00    +0.000 A 
ATOM     23  C   UNL     1       5.973   4.464  19.022  0.00  0.00    +0.000 A 
ATOM     24  O   UNL     1       6.759   5.015  19.786  0.00  0.00    +0.000 OA
ATOM     25  N   UNL     1       4.961   3.673  19.467  0.00  0.00    +0.000 N 
ATOM     26  C   UNL     1       7.095   5.557  17.007  0.00  0.00    +0.000 C 
ATOM     27  C   UNL     1       7.221   5.496  15.481  0.00  0.00    +0.000 C 
ATOM     28  C   UNL     1       5.856   5.371  14.816  0.00  0.00    +0.000 C 
ATOM     29  C   UNL     1       5.126   4.117  15.306  0.00  0.00    +0.000 C 
ATOM     30  H   UNL     1       4.862   3.553  20.463  0.00  0.00    +0.000 HD
ENDBRANCH  18  19
ENDBRANCH   2  18
TORSDOF 5
ENDMDL
MODEL 3
REMARK VINA RESULT:      -8.5      1.380      2.250
REMARK  Name = 
REMARK  6 active torsions:
REMARK  status: ('A' for Active; 'I' for Inactive)
REMARK    1  A    between atoms: C_1  and  C_2
REMARK    2  A    between atoms: C_2  and  S_3
REMARK    3  A    between atoms: C_2  and  C_15
REMARK    4  A    between atoms: S_3  and  C_4
REMARK    5  A    between atoms: N_17  and  C_18
REMARK    6  A    between atoms: C_20  and  C_21
REMARK                            x       y       z     vdW  Elec       q    Type
REMARK                         _______ _______ _______ _____ _____    ______ ____
ROOT
ATOM      1  C   UNL     1       1.686   3.112  21.671  0.00  0.00    +0.000 C 
ATOM      2  C   UNL     1       2.695   3.603  20.629  0.00  0.00    +0.000 C 
ENDROOT
BRANCH   2   3
ATOM      3  C   UNL     1       2.105   4.828  19.906  0.00  0.00    +0.000 C 
ATOM      4  O   UNL     1       1.123   4.734  19.170  0.00  0.00    +0.000 OA
ATOM      5  N   UNL     1       2.725   6.036  20.186  0.00  0.00    +0.000 N 
ATOM      6  H   UNL     1       3.721   5.975  20.382  0.00  0.00    +0.000 HD
BRANCH   5   7
ATOM      7  C   UNL     1       2.259   7.272  19.669  0.00  0.00    +0.000 A 
ATOM      8  C   UNL     1       1.439   8.109  20.440  0.00  0.00    +0.000 A 
ATOM      9  C   UNL     1       0.994   9.347  19.942  0.00  0.00    +0.000 A 
ATOM     10  C   UNL     1       1.364   9.725  18.641  0.00  0.00    +0.000 A 
ATOM     11  C   UNL     1       2.178   8.896  17.866  0.00  0.00    +0.000 A 
ATOM     12  C   UNL     1       2.641   7.685  18.386  0.00  0.00    +0.000 A 
ATOM     13 CL   UNL     1       3.623   6.679  17.381  0.00  0.00    +0.000 Cl
BRANCH   9  14
ATOM     14  C   UNL     1       0.146  10.271  20.783  0.00  0.00    +0.000 C 
ATOM     15  F   UNL     1      -0.196  11.431  20.159  0.00  0.00    +0.000 F 
ATOM     16  F   UNL     1      -1.030   9.690  21.153  0.00  0.00    +0.000 F 
ATOM     17  F   UNL     1       0.760  10.633  21.943  0.00  0.00    +0.000 F 
ENDBRANCH   9  14
ENDBRANCH   5   7
ENDBRANCH   2   3
BRANCH   2  18
ATOM     18  S   UNL     1       3.121   2.274  19.437  0.00  0.00    +0.000 S 
BRANCH  18  19
ATOM     19  C   UNL     1       4.345   3.072  18.492  0.00  0.00    +0.000 A 
ATOM     20  N   UNL     1       4.345   3.083  17.202  0.00  0.00    +0.000 NA
ATOM     21  C   UNL     1       5.329   3.828  16.588  0.00  0.00    +0.000 A 
ATOM     22  C   UNL     1       6.290   4.503  17.246  0.00  0.00    +0.000 A 
ATOM     23  C   UNL     1       6.291   4.414  18.723  0.00  0.00    +0.000 A 
ATOM     24  O   UNL     1       7.135   4.974  19.414  0.00  0.00    +0.000 OA
ATOM     25  N   UNL     1       5.278   3.684  19.262  0.00  0.00    +0.000 N 
ATOM     26  C   UNL     1       7.339   5.359  16.596  0.00  0.00    +0.000 C 
ATOM     27  C   UNL     1       7.382   5.213  15.071  0.00  0.00    +0.000 C 
ATOM     28  C   UNL     1       5.979   5.103  14.486  0.00  0.00    +0.000 C 
ATOM     29  C   UNL     1       5.235   3.904  15.080  0.00  0.00    +0.000 C 
ATOM     30  H   UNL     1       5.228   3.621  20.267  0.00  0.00    +0.000 HD
ENDBRANCH  18  19
ENDBRANCH   2  18
TORSDOF 5
ENDMDL
MODEL 4
REMARK VINA RESULT:      -8.1      5.085      8.100
REMARK  Name = 
REMARK  6 active torsions:
REMARK  status: ('A' for Active; 'I' for Inactive)
REMARK    1  A    between atoms: C_1  and  C_2
REMARK    2  A    between atoms: C_2  and  S_3
REMARK    3  A    between atoms: C_2  and  C_15
REMARK    4  A    between atoms: S_3  and  C_4
REMARK    5  A    between atoms: N_17  and  C_18
REMARK    6  A    between atoms: C_20  and  C_21
REMARK                            x       y       z     vdW  Elec       q    Type
REMARK                         _______ _______ _______ _____ _____    ______ ____
ROOT
ATOM      1  C   UNL     1       1.366   3.665  18.618  0.00  0.00    +0.000 C 
ATOM      2  C   UNL     1       2.320   4.841  18.400  0.00  0.00    +0.000 C 
ENDROOT
BRANCH   2   3
ATOM      3  C   UNL     1       3.530   4.353  17.582  0.00  0.00    +0.000 C 
ATOM      4  O   UNL     1       3.884   3.175  17.589  0.00  0.00    +0.000 OA
ATOM      5  N   UNL     1       4.150   5.322  16.806  0.00  0.00    +0.000 N 
ATOM      6  H   UNL     1       4.123   6.264  17.189  0.00  0.00    +0.000 HD
BRANCH   5   7
ATOM      7  C   UNL     1       5.227   5.027  15.932  0.00  0.00    +0.000 A 
ATOM      8  C   UNL     1       4.996   4.426  14.686  0.00  0.00    +0.000 A 
ATOM      9  C   UNL     1       6.058   4.154  13.804  0.00  0.00    +0.000 A 
ATOM     10  C   UNL     1       7.366   4.471  14.202  0.00  0.00    +0.000 A 
ATOM     11  C   UNL     1       7.605   5.067  15.443  0.00  0.00    +0.000 A 
ATOM     12  C   UNL     1       6.538   5.364  16.294  0.00  0.00    +0.000 A 
ATOM     13 CL   UNL     1       6.883   6.077  17.831  0.00  0.00    +0.000 Cl
BRANCH   9  14
ATOM     14  C   UNL     1       5.810   3.545  12.444  0.00  0.00    +0.000 C 
ATOM     15  F   UNL     1       6.016   2.200  12.394  0.00  0.00    +0.000 F 
ATOM     16  F   UNL     1       4.528   3.738  12.023  0.00  0.00    +0.000 F 
ATOM     17  F   UNL     1       6.602   4.085  11.478  0.00  0.00    +0.000 F 
ENDBRANCH   9  14
ENDBRANCH   5   7
ENDBRANCH   2   3
BRANCH   2  18
ATOM     18  S   UNL     1       2.854   5.571  19.997  0.00  0.00    +0.000 S 
BRANCH  18  19
ATOM     19  C   UNL     1       2.044   7.109  19.933  0.00  0.00    +0.000 A 
ATOM     20  N   UNL     1       1.337   7.575  20.907  0.00  0.00    +0.000 NA
ATOM     21  C   UNL     1       0.825   8.845  20.750  0.00  0.00    +0.000 A 
ATOM     22  C   UNL     1       0.992   9.599  19.646  0.00  0.00    +0.000 A 
ATOM     23  C   UNL     1       1.758   9.004  18.529  0.00  0.00    +0.000 A 
ATOM     24  O   UNL     1       1.949   9.599  17.474  0.00  0.00    +0.000 OA
ATOM     25  N   UNL     1       2.254   7.759  18.762  0.00  0.00    +0.000 N 
ATOM     26  C   UNL     1       0.485  11.002  19.478  0.00  0.00    +0.000 C 
ATOM     27  C   UNL     1      -0.468  11.441  20.594  0.00  0.00    +0.000 C 
ATOM     28  C   UNL     1      -0.005  10.927  21.952  0.00  0.00    +0.000 C 
ATOM     29  C   UNL     1       0.090   9.398  21.952  0.00  0.00    +0.000 C 
ATOM     30  H   UNL     1       2.805   7.330  18.035  0.00  0.00    +0.000 HD
ENDBRANCH  18  19
ENDBRANCH   2  18
TORSDOF 5
ENDMDL
MODEL 5
REMARK VINA RESULT:      -8.1      4.873      7.674
REMARK  Name = 
REMARK  6 active torsions:
REMARK  status: ('A' for Active; 'I' for Inactive)
REMARK    1  A    between atoms: C_1  and  C_2
REMARK    2  A    between atoms: C_2  and  S_3
REMARK    3  A    between atoms: C_2  and  C_15
REMARK    4  A    between atoms: S_3  and  C_4
REMARK    5  A    between atoms: N_17  and  C_18
REMARK    6  A    between atoms: C_20  and  C_21
REMARK                            x       y       z     vdW  Elec       q    Type
REMARK                         _______ _______ _______ _____ _____    ______ ____
ROOT
ATOM      1  C   UNL     1       1.479   2.352  18.815  0.00  0.00    +0.000 C 
ATOM      2  C   UNL     1       2.187   3.709  18.765  0.00  0.00    +0.000 C 
ENDROOT
BRANCH   2   3
ATOM      3  C   UNL     1       3.494   3.556  17.965  0.00  0.00    +0.000 C 
ATOM      4  O   UNL     1       4.150   2.515  17.988  0.00  0.00    +0.000 OA
ATOM      5  N   UNL     1       3.843   4.650  17.187  0.00  0.00    +0.000 N 
ATOM      6  H   UNL     1       3.561   5.553  17.560  0.00  0.00    +0.000 HD
BRANCH   5   7
ATOM      7  C   UNL     1       4.971   4.648  16.327  0.00  0.00    +0.000 A 
ATOM      8  C   UNL     1       4.878   4.142  15.022  0.00  0.00    +0.000 A 
ATOM      9  C   UNL     1       5.987   4.160  14.157  0.00  0.00    +0.000 A 
ATOM     10  C   UNL     1       7.206   4.672  14.629  0.00  0.00    +0.000 A 
ATOM     11  C   UNL     1       7.307   5.175  15.928  0.00  0.00    +0.000 A 
ATOM     12  C   UNL     1       6.189   5.183  16.766  0.00  0.00    +0.000 A 
ATOM     13 CL   UNL     1       6.368   5.791  18.374  0.00  0.00    +0.000 Cl
BRANCH   9  14
ATOM     14  C   UNL     1       5.881   3.654  12.738  0.00  0.00    +0.000 C 
ATOM     15  F   UNL     1       6.196   2.338  12.593  0.00  0.00    +0.000 F 
ATOM     16  F   UNL     1       4.618   3.788  12.240  0.00  0.00    +0.000 F 
ATOM     17  F   UNL     1       6.690   4.333  11.879  0.00  0.00    +0.000 F 
ENDBRANCH   9  14
ENDBRANCH   5   7
ENDBRANCH   2   3
BRANCH   2  18
ATOM     18  S   UNL     1       2.518   4.350  20.453  0.00  0.00    +0.000 S 
BRANCH  18  19
ATOM     19  C   UNL     1       2.172   6.041  20.226  0.00  0.00    +0.000 A 
ATOM     20  N   UNL     1       2.510   6.694  19.167  0.00  0.00    +0.000 NA
ATOM     21  C   UNL     1       2.095   8.006  19.087  0.00  0.00    +0.000 A 
ATOM     22  C   UNL     1       1.396   8.639  20.049  0.00  0.00    +0.000 A 
ATOM     23  C   UNL     1       1.081   7.872  21.274  0.00  0.00    +0.000 A 
ATOM     24  O   UNL     1       0.468   8.362  22.216  0.00  0.00    +0.000 OA
ATOM     25  N   UNL     1       1.499   6.578  21.274  0.00  0.00    +0.000 N 
ATOM     26  C   UNL     1       0.892  10.051  19.958  0.00  0.00    +0.000 C 
ATOM     27  C   UNL     1       1.450  10.818  18.755  0.00  0.00    +0.000 C 
ATOM     28  C   UNL     1       1.533   9.928  17.520  0.00  0.00    +0.000 C 
ATOM     29  C   UNL     1       2.419   8.709  17.787  0.00  0.00    +0.000 C 
ATOM     30  H   UNL     1       1.281   6.014  22.080  0.00  0.00    +0.000 HD
ENDBRANCH  18  19
ENDBRANCH   2  18
TORSDOF 5
ENDMDL
MODEL 6
REMARK VINA RESULT:      -7.8      4.749      7.566
REMARK  Name = 
REMARK  6 active torsions:
REMARK  status: ('A' for Active; 'I' for Inactive)
REMARK    1  A    between atoms: C_1  and  C_2
REMARK    2  A    between atoms: C_2  and  S_3
REMARK    3  A    between atoms: C_2  and  C_15
REMARK    4  A    between atoms: S_3  and  C_4
REMARK    5  A    between atoms: N_17  and  C_18
REMARK    6  A    between atoms: C_20  and  C_21
REMARK                            x       y       z     vdW  Elec       q    Type
REMARK                         _______ _______ _______ _____ _____    ______ ____
ROOT
ATOM      1  C   UNL     1       0.969   3.239  19.538  0.00  0.00    +0.000 C 
ATOM      2  C   UNL     1       1.812   4.474  19.211  0.00  0.00    +0.000 C 
ENDROOT
BRANCH   2   3
ATOM      3  C   UNL     1       3.085   4.024  18.471  0.00  0.00    +0.000 C 
ATOM      4  O   UNL     1       3.327   2.835  18.263  0.00  0.00    +0.000 OA
ATOM      5  N   UNL     1       3.901   5.049  18.018  0.00  0.00    +0.000 N 
ATOM      6  H   UNL     1       3.900   5.888  18.593  0.00  0.00    +0.000 HD
BRANCH   5   7
ATOM      7  C   UNL     1       5.069   4.814  17.249  0.00  0.00    +0.000 A 
ATOM      8  C   UNL     1       4.978   4.480  15.889  0.00  0.00    +0.000 A 
ATOM      9  C   UNL     1       6.134   4.269  15.115  0.00  0.00    +0.000 A 
ATOM     10  C   UNL     1       7.390   4.374  15.733  0.00  0.00    +0.000 A 
ATOM     11  C   UNL     1       7.489   4.705  17.087  0.00  0.00    +0.000 A 
ATOM     12  C   UNL     1       6.335   4.945  17.835  0.00  0.00    +0.000 A 
ATOM     13 CL   UNL     1       6.504   5.324  19.513  0.00  0.00    +0.000 Cl
BRANCH   9  14
ATOM     14  C   UNL     1       6.042   3.950  13.642  0.00  0.00    +0.000 C 
ATOM     15  F   UNL     1       6.325   2.653  13.338  0.00  0.00    +0.000 F 
ATOM     16  F   UNL     1       4.794   4.182  13.145  0.00  0.00    +0.000 F 
ATOM     17  F   UNL     1       6.886   4.707  12.889  0.00  0.00    +0.000 F 
ENDBRANCH   9  14
ENDBRANCH   5   7
ENDBRANCH   2   3
BRANCH   2  18
ATOM     18  S   UNL     1       2.230   5.416  20.730  0.00  0.00    +0.000 S 
BRANCH  18  19
ATOM     19  C   UNL     1       1.745   7.018  20.257  0.00  0.00    +0.000 A 
ATOM     20  N   UNL     1       1.067   7.805  21.023  0.00  0.00    +0.000 NA
ATOM     21  C   UNL     1       0.828   9.077  20.550  0.00  0.00    +0.000 A 
ATOM     22  C   UNL     1       1.226   9.525  19.345  0.00  0.00    +0.000 A 
ATOM     23  C   UNL     1       1.947   8.572  18.472  0.00  0.00    +0.000 A 
ATOM     24  O   UNL     1       2.333   8.874  17.348  0.00  0.00    +0.000 OA
ATOM     25  N   UNL     1       2.170   7.344  19.012  0.00  0.00    +0.000 N 
ATOM     26  C   UNL     1       1.018  10.921  18.833  0.00  0.00    +0.000 C 
ATOM     27  C   UNL     1       0.084  11.757  19.715  0.00  0.00    +0.000 C 
ATOM     28  C   UNL     1       0.328  11.486  21.195  0.00  0.00    +0.000 C 
ATOM     29  C   UNL     1       0.123  10.004  21.517  0.00  0.00    +0.000 C 
ATOM     30  H   UNL     1       2.681   6.674  18.459  0.00  0.00    +0.000 HD
ENDBRANCH  18  19
ENDBRANCH   2  18
TORSDOF 5
ENDMDL
MODEL 7
REMARK VINA RESULT:      -7.8      5.036      8.178
REMARK  Name = 
REMARK  6 active torsions:
REMARK  status: ('A' for Active; 'I' for Inactive)
REMARK    1  A    between atoms: C_1  and  C_2
REMARK    2  A    between atoms: C_2  and  S_3
REMARK    3  A    between atoms: C_2  and  C_15
REMARK    4  A    between atoms: S_3  and  C_4
REMARK    5  A    between atoms: N_17  and  C_18
REMARK    6  A    between atoms: C_20  and  C_21
REMARK                            x       y       z     vdW  Elec       q    Type
REMARK                         _______ _______ _______ _____ _____    ______ ____
ROOT
ATOM      1  C   UNL     1       2.028   3.374  18.759  0.00  0.00    +0.000 C 
ATOM      2  C   UNL     1       2.232   4.890  18.691  0.00  0.00    +0.000 C 
ENDROOT
BRANCH   2   3
ATOM      3  C   UNL     1       3.298   5.200  17.624  0.00  0.00    +0.000 C 
ATOM      4  O   UNL     1       3.510   6.349  17.235  0.00  0.00    +0.000 OA
ATOM      5  N   UNL     1       4.026   4.107  17.178  0.00  0.00    +0.000 N 
ATOM      6  H   UNL     1       3.519   3.225  17.170  0.00  0.00    +0.000 HD
BRANCH   5   7
ATOM      7  C   UNL     1       5.098   4.226  16.259  0.00  0.00    +0.000 A 
ATOM      8  C   UNL     1       4.945   3.830  14.922  0.00  0.00    +0.000 A 
ATOM      9  C   UNL     1       5.998   3.968  13.999  0.00  0.00    +0.000 A 
ATOM     10  C   UNL     1       7.223   4.490  14.444  0.00  0.00    +0.000 A 
ATOM     11  C   UNL     1       7.385   4.885  15.774  0.00  0.00    +0.000 A 
ATOM     12  C   UNL     1       6.320   4.774  16.671  0.00  0.00    +0.000 A 
ATOM     13 CL   UNL     1       6.573   5.250  18.314  0.00  0.00    +0.000 Cl
BRANCH   9  14
ATOM     14  C   UNL     1       5.825   3.581  12.550  0.00  0.00    +0.000 C 
ATOM     15  F   UNL     1       4.598   3.876  12.040  0.00  0.00    +0.000 F 
ATOM     16  F   UNL     1       6.722   4.213  11.741  0.00  0.00    +0.000 F 
ATOM     17  F   UNL     1       6.011   2.250  12.339  0.00  0.00    +0.000 F 
ENDBRANCH   9  14
ENDBRANCH   5   7
ENDBRANCH   2   3
BRANCH   2  18
ATOM     18  S   UNL     1       2.716   5.570  20.325  0.00  0.00    +0.000 S 
BRANCH  18  19
ATOM     19  C   UNL     1       1.853   7.081  20.312  0.00  0.00    +0.000 A 
ATOM     20  N   UNL     1       1.073   7.456  21.269  0.00  0.00    +0.000 NA
ATOM     21  C   UNL     1       0.522   8.715  21.163  0.00  0.00    +0.000 A 
ATOM     22  C   UNL     1       0.724   9.546  20.123  0.00  0.00    +0.000 A 
ATOM     23  C   UNL     1       1.576   9.053  19.019  0.00  0.00    +0.000 A 
ATOM     24  O   UNL     1       1.805   9.724  18.017  0.00  0.00    +0.000 OA
ATOM     25  N   UNL     1       2.105   7.814  19.200  0.00  0.00    +0.000 N 
ATOM     26  C   UNL     1       0.174  10.938  20.015  0.00  0.00    +0.000 C 
ATOM     27  C   UNL     1      -0.859  11.269  21.098  0.00  0.00    +0.000 C 
ATOM     28  C   UNL     1      -0.456  10.682  22.445  0.00  0.00    +0.000 C 
ATOM     29  C   UNL     1      -0.302   9.161  22.352  0.00  0.00    +0.000 C 
ATOM     30  H   UNL     1       2.713   7.453  18.482  0.00  0.00    +0.000 HD
ENDBRANCH  18  19
ENDBRANCH   2  18
TORSDOF 5
ENDMDL
MODEL 8
REMARK VINA RESULT:      -7.7      5.287      8.773
REMARK  Name = 
REMARK  6 active torsions:
REMARK  status: ('A' for Active; 'I' for Inactive)
REMARK    1  A    between atoms: C_1  and  C_2
REMARK    2  A    between atoms: C_2  and  S_3
REMARK    3  A    between atoms: C_2  and  C_15
REMARK    4  A    between atoms: S_3  and  C_4
REMARK    5  A    between atoms: N_17  and  C_18
REMARK    6  A    between atoms: C_20  and  C_21
REMARK                            x       y       z     vdW  Elec       q    Type
REMARK                         _______ _______ _______ _____ _____    ______ ____
ROOT
ATOM      1  C   UNL     1       1.411   8.749  20.965  0.00  0.00    +0.000 C 
ATOM      2  C   UNL     1       1.055   8.843  19.479  0.00  0.00    +0.000 C 
ENDROOT
BRANCH   2   3
ATOM      3  C   UNL     1       2.087   8.036  18.669  0.00  0.00    +0.000 C 
ATOM      4  O   UNL     1       2.619   8.495  17.658  0.00  0.00    +0.000 OA
ATOM      5  N   UNL     1       2.403   6.790  19.187  0.00  0.00    +0.000 N 
ATOM      6  H   UNL     1       1.646   6.323  19.682  0.00  0.00    +0.000 HD
BRANCH   5   7
ATOM      7  C   UNL     1       3.391   5.951  18.612  0.00  0.00    +0.000 A 
ATOM      8  C   UNL     1       4.755   6.206  18.814  0.00  0.00    +0.000 A 
ATOM      9  C   UNL     1       5.740   5.364  18.267  0.00  0.00    +0.000 A 
ATOM     10  C   UNL     1       5.335   4.268  17.487  0.00  0.00    +0.000 A 
ATOM     11  C   UNL     1       3.978   4.008  17.279  0.00  0.00    +0.000 A 
ATOM     12  C   UNL     1       3.011   4.833  17.857  0.00  0.00    +0.000 A 
ATOM     13 CL   UNL     1       1.345   4.490  17.551  0.00  0.00    +0.000 Cl
BRANCH   9  14
ATOM     14  C   UNL     1       7.209   5.611  18.516  0.00  0.00    +0.000 C 
ATOM     15  F   UNL     1       8.027   4.653  17.999  0.00  0.00    +0.000 F 
ATOM     16  F   UNL     1       7.629   6.788  17.972  0.00  0.00    +0.000 F 
ATOM     17  F   UNL     1       7.509   5.688  19.841  0.00  0.00    +0.000 F 
ENDBRANCH   9  14
ENDBRANCH   5   7
ENDBRANCH   2   3
BRANCH   2  18
ATOM     18  S   UNL     1       0.996  10.590  18.918  0.00  0.00    +0.000 S 
BRANCH  18  19
ATOM     19  C   UNL     1      -0.692  10.742  18.522  0.00  0.00    +0.000 A 
ATOM     20  N   UNL     1      -1.545  11.336  19.287  0.00  0.00    +0.000 NA
ATOM     21  C   UNL     1      -2.831  11.457  18.805  0.00  0.00    +0.000 A 
ATOM     22  C   UNL     1      -3.245  10.972  17.620  0.00  0.00    +0.000 A 
ATOM     23  C   UNL     1      -2.251  10.244  16.801  0.00  0.00    +0.000 A 
ATOM     24  O   UNL     1      -2.532   9.746  15.716  0.00  0.00    +0.000 OA
ATOM     25  N   UNL     1      -0.997  10.184  17.325  0.00  0.00    +0.000 N 
ATOM     26  C   UNL     1      -4.628  11.137  17.058  0.00  0.00    +0.000 C 
ATOM     27  C   UNL     1      -5.628  11.712  18.067  0.00  0.00    +0.000 C 
ATOM     28  C   UNL     1      -4.988  12.799  18.923  0.00  0.00    +0.000 C 
ATOM     29  C   UNL     1      -3.776  12.250  19.681  0.00  0.00    +0.000 C 
ATOM     30  H   UNL     1      -0.284   9.720  16.785  0.00  0.00    +0.000 HD
ENDBRANCH  18  19
ENDBRANCH   2  18
TORSDOF 5
ENDMDL
MODEL 9
REMARK VINA RESULT:      -7.6      4.907      8.191
REMARK  Name = 
REMARK  6 active torsions:
REMARK  status: ('A' for Active; 'I' for Inactive)
REMARK    1  A    between atoms: C_1  and  C_2
REMARK    2  A    between atoms: C_2  and  S_3
REMARK    3  A    between atoms: C_2  and  C_15
REMARK    4  A    between atoms: S_3  and  C_4
REMARK    5  A    between atoms: N_17  and  C_18
REMARK    6  A    between atoms: C_20  and  C_21
REMARK                            x       y       z     vdW  Elec       q    Type
REMARK                         _______ _______ _______ _____ _____    ______ ____
ROOT
ATOM      1  C   UNL     1       1.477   4.032  19.055  0.00  0.00    +0.000 C 
ATOM      2  C   UNL     1       1.875   5.510  19.014  0.00  0.00    +0.000 C 
ENDROOT
BRANCH   2   3
ATOM      3  C   UNL     1       3.078   5.673  18.068  0.00  0.00    +0.000 C 
ATOM      4  O   UNL     1       3.388   6.768  17.597  0.00  0.00    +0.000 OA
ATOM      5  N   UNL     1       3.807   4.517  17.831  0.00  0.00    +0.000 N 
ATOM      6  H   UNL     1       3.266   3.656  17.845  0.00  0.00    +0.000 HD
BRANCH   5   7
ATOM      7  C   UNL     1       4.990   4.506  17.050  0.00  0.00    +0.000 A 
ATOM      8  C   UNL     1       4.947   4.181  15.686  0.00  0.00    +0.000 A 
ATOM      9  C   UNL     1       6.115   4.192  14.901  0.00  0.00    +0.000 A 
ATOM     10  C   UNL     1       7.338   4.511  15.511  0.00  0.00    +0.000 A 
ATOM     11  C   UNL     1       7.390   4.834  16.870  0.00  0.00    +0.000 A 
ATOM     12  C   UNL     1       6.218   4.853  17.630  0.00  0.00    +0.000 A 
ATOM     13 CL   UNL     1       6.333   5.232  19.312  0.00  0.00    +0.000 Cl
BRANCH   9  14
ATOM     14  C   UNL     1       6.067   3.882  13.423  0.00  0.00    +0.000 C 
ATOM     15  F   UNL     1       6.381   2.593  13.117  0.00  0.00    +0.000 F 
ATOM     16  F   UNL     1       4.829   4.096  12.895  0.00  0.00    +0.000 F 
ATOM     17  F   UNL     1       6.917   4.660  12.699  0.00  0.00    +0.000 F 
ENDBRANCH   9  14
ENDBRANCH   5   7
ENDBRANCH   2   3
BRANCH   2  18
ATOM     18  S   UNL     1       2.264   6.142  20.693  0.00  0.00    +0.000 S 
BRANCH  18  19
ATOM     19  C   UNL     1       1.398   7.651  20.675  0.00  0.00    +0.000 A 
ATOM     20  N   UNL     1       0.654   8.048  21.651  0.00  0.00    +0.000 NA
ATOM     21  C   UNL     1       0.098   9.305  21.536  0.00  0.00    +0.000 A 
ATOM     22  C   UNL     1       0.260  10.111  20.470  0.00  0.00    +0.000 A 
ATOM     23  C   UNL     1       1.071   9.592  19.346  0.00  0.00    +0.000 A 
ATOM     24  O   UNL     1       1.262  10.238  18.321  0.00  0.00    +0.000 OA
ATOM     25  N   UNL     1       1.609   8.358  19.537  0.00  0.00    +0.000 N 
ATOM     26  C   UNL     1      -0.296  11.500  20.348  0.00  0.00    +0.000 C 
ATOM     27  C   UNL     1      -1.288  11.856  21.461  0.00  0.00    +0.000 C 
ATOM     28  C   UNL     1      -0.834  11.301  22.806  0.00  0.00    +0.000 C 
ATOM     29  C   UNL     1      -0.682   9.779  22.743  0.00  0.00    +0.000 C 
ATOM     30  H   UNL     1       2.190   7.980  18.806  0.00  0.00    +0.000 HD
ENDBRANCH  18  19
ENDBRANCH   2  18
TORSDOF 5
ENDMDL
