MODEL 1
REMARK VINA RESULT:      -7.7      0.000      0.000
REMARK  Name = 
REMARK  8 active torsions:
REMARK  status: ('A' for Active; 'I' for Inactive)
REMARK    1  A    between atoms: C_1  and  O_2
REMARK    2  A    between atoms: O_2  and  C_3
REMARK    3  A    between atoms: C_3  and  C_5
REMARK    4  A    between atoms: C_8  and  C_9
REMARK    5  A    between atoms: C_9  and  S_10
REMARK    6  A    between atoms: S_10  and  C_11
REMARK    7  A    between atoms: N_15  and  C_16
REMARK    8  A    between atoms: C_16  and  C_17
REMARK                            x       y       z     vdW  Elec       q    Type
REMARK                         _______ _______ _______ _____ _____    ______ ____
ROOT
ATOM      1  C   UNL     1       6.915   5.674  17.782  0.00  0.00    +0.000 A 
ATOM      2  N   UNL     1       6.799   6.521  16.784  0.00  0.00    +0.000 NA
ATOM      3  N   UNL     1       7.454   7.720  17.048  0.00  0.00    +0.000 NA
ATOM      4  C   UNL     1       8.085   7.714  18.204  0.00  0.00    +0.000 A 
ATOM      5  N   UNL     1       8.806   8.718  18.759  0.00  0.00    +0.000 N 
ATOM      6  S   UNL     1       7.902   6.231  19.066  0.00  0.00    +0.000 S 
ATOM      7  H   UNL     1       9.706   8.467  19.154  0.00  0.00    +0.000 HD
ENDROOT
BRANCH   1   8
ATOM      8  S   UNL     1       6.086   4.136  17.858  0.00  0.00    +0.000 S 
BRANCH   8   9
ATOM      9  C   UNL     1       4.716   4.387  16.695  0.00  0.00    +0.000 C 
BRANCH   9  13
ATOM     10  C   UNL     1       2.056   4.441  19.136  0.00  0.00    +0.000 A 
ATOM     11  C   UNL     1       1.339   3.797  18.144  0.00  0.00    +0.000 A 
ATOM     12  C   UNL     1       2.207   3.648  17.035  0.00  0.00    +0.000 A 
ATOM     13  C   UNL     1       3.412   4.212  17.400  0.00  0.00    +0.000 A 
ATOM     14  O   UNL     1       3.328   4.691  18.678  0.00  0.00    +0.000 OA
BRANCH  10  15
ATOM     15  C   UNL     1       1.659   4.835  20.471  0.00  0.00    +0.000 C 
ATOM     16  O   UNL     1       1.673   5.986  20.898  0.00  0.00    +0.000 OA
BRANCH  15  18
ATOM     17  C   UNL     1       2.314   2.871  21.583  0.00  0.00    +0.000 C 
ATOM     18  O   UNL     1       1.258   3.751  21.190  0.00  0.00    +0.000 OA
ENDBRANCH  15  18
ENDBRANCH  10  15
ENDBRANCH   9  13
ENDBRANCH   8   9
ENDBRANCH   1   8
BRANCH   5  19
ATOM     19  C   UNL     1       8.742  10.063  18.221  0.00  0.00    +0.000 C 
BRANCH  19  20
ATOM     20  C   UNL     1       9.832  10.940  18.823  0.00  0.00    +0.000 A 
ATOM     21  C   UNL     1      10.808  11.506  17.982  0.00  0.00    +0.000 A 
ATOM     22  C   UNL     1      11.800  12.345  18.500  0.00  0.00    +0.000 A 
ATOM     23  C   UNL     1      11.833  12.640  19.860  0.00  0.00    +0.000 A 
ATOM     24  C   UNL     1      10.860  12.108  20.705  0.00  0.00    +0.000 A 
ATOM     25  C   UNL     1       9.863  11.276  20.185  0.00  0.00    +0.000 A 
ENDBRANCH  19  20
ENDBRANCH   5  19
TORSDOF 7
ENDMDL
MODEL 2
REMARK VINA RESULT:      -7.6      0.615      1.099
REMARK  Name = 
REMARK  8 active torsions:
REMARK  status: ('A' for Active; 'I' for Inactive)
REMARK    1  A    between atoms: C_1  and  O_2
REMARK    2  A    between atoms: O_2  and  C_3
REMARK    3  A    between atoms: C_3  and  C_5
REMARK    4  A    between atoms: C_8  and  C_9
REMARK    5  A    between atoms: C_9  and  S_10
REMARK    6  A    between atoms: S_10  and  C_11
REMARK    7  A    between atoms: N_15  and  C_16
REMARK    8  A    between atoms: C_16  and  C_17
REMARK                            x       y       z     vdW  Elec       q    Type
REMARK                         _______ _______ _______ _____ _____    ______ ____
ROOT
ATOM      1  C   UNL     1       7.002   5.707  17.436  0.00  0.00    +0.000 A 
ATOM      2  N   UNL     1       6.940   6.622  16.494  0.00  0.00    +0.000 NA
ATOM      3  N   UNL     1       7.522   7.819  16.900  0.00  0.00    +0.000 NA
ATOM      4  C   UNL     1       8.052   7.747  18.104  0.00  0.00    +0.000 A 
ATOM      5  N   UNL     1       8.684   8.729  18.790  0.00  0.00    +0.000 N 
ATOM      6  S   UNL     1       7.854   6.199  18.838  0.00  0.00    +0.000 S 
ATOM      7  H   UNL     1       9.556   8.479  19.243  0.00  0.00    +0.000 HD
ENDROOT
BRANCH   1   8
ATOM      8  S   UNL     1       6.231   4.142  17.329  0.00  0.00    +0.000 S 
BRANCH   8   9
ATOM      9  C   UNL     1       4.601   4.569  16.655  0.00  0.00    +0.000 C 
BRANCH   9  13
ATOM     10  C   UNL     1       2.296   3.623  19.267  0.00  0.00    +0.000 A 
ATOM     11  C   UNL     1       1.865   2.690  18.340  0.00  0.00    +0.000 A 
ATOM     12  C   UNL     1       2.657   2.865  17.179  0.00  0.00    +0.000 A 
ATOM     13  C   UNL     1       3.530   3.899  17.449  0.00  0.00    +0.000 A 
ATOM     14  O   UNL     1       3.318   4.359  18.720  0.00  0.00    +0.000 OA
BRANCH  10  15
ATOM     15  C   UNL     1       1.840   3.878  20.617  0.00  0.00    +0.000 C 
ATOM     16  O   UNL     1       1.140   3.116  21.279  0.00  0.00    +0.000 OA
BRANCH  15  18
ATOM     17  C   UNL     1       1.390   6.169  20.885  0.00  0.00    +0.000 C 
ATOM     18  O   UNL     1       2.300   5.080  21.058  0.00  0.00    +0.000 OA
ENDBRANCH  15  18
ENDBRANCH  10  15
ENDBRANCH   9  13
ENDBRANCH   8   9
ENDBRANCH   1   8
BRANCH   5  19
ATOM     19  C   UNL     1       8.614  10.108  18.346  0.00  0.00    +0.000 C 
BRANCH  19  20
ATOM     20  C   UNL     1       9.803  10.906  18.864  0.00  0.00    +0.000 A 
ATOM     21  C   UNL     1      10.771  11.374  17.957  0.00  0.00    +0.000 A 
ATOM     22  C   UNL     1      11.855  12.140  18.397  0.00  0.00    +0.000 A 
ATOM     23  C   UNL     1      11.990  12.458  19.746  0.00  0.00    +0.000 A 
ATOM     24  C   UNL     1      11.028  12.024  20.656  0.00  0.00    +0.000 A 
ATOM     25  C   UNL     1       9.939  11.265  20.214  0.00  0.00    +0.000 A 
ENDBRANCH  19  20
ENDBRANCH   5  19
TORSDOF 7
ENDMDL
MODEL 3
REMARK VINA RESULT:      -7.5      1.254      1.501
REMARK  Name = 
REMARK  8 active torsions:
REMARK  status: ('A' for Active; 'I' for Inactive)
REMARK    1  A    between atoms: C_1  and  O_2
REMARK    2  A    between atoms: O_2  and  C_3
REMARK    3  A    between atoms: C_3  and  C_5
REMARK    4  A    between atoms: C_8  and  C_9
REMARK    5  A    between atoms: C_9  and  S_10
REMARK    6  A    between atoms: S_10  and  C_11
REMARK    7  A    between atoms: N_15  and  C_16
REMARK    8  A    between atoms: C_16  and  C_17
REMARK                            x       y       z     vdW  Elec       q    Type
REMARK                         _______ _______ _______ _____ _____    ______ ____
ROOT
ATOM      1  C   UNL     1       7.082   6.014  17.676  0.00  0.00    +0.000 A 
ATOM      2  N   UNL     1       6.843   6.878  16.714  0.00  0.00    +0.000 NA
ATOM      3  N   UNL     1       7.415   8.118  16.982  0.00  0.00    +0.000 NA
ATOM      4  C   UNL     1       8.110   8.129  18.101  0.00  0.00    +0.000 A 
ATOM      5  N   UNL     1       8.780   9.171  18.650  0.00  0.00    +0.000 N 
ATOM      6  S   UNL     1       8.093   6.612  18.922  0.00  0.00    +0.000 S 
ATOM      7  H   UNL     1       9.718   8.982  18.986  0.00  0.00    +0.000 HD
ENDROOT
BRANCH   1   8
ATOM      8  S   UNL     1       6.382   4.413  17.746  0.00  0.00    +0.000 S 
BRANCH   8   9
ATOM      9  C   UNL     1       4.960   4.574  16.630  0.00  0.00    +0.000 C 
BRANCH   9  13
ATOM     10  C   UNL     1       1.998   3.703  18.502  0.00  0.00    +0.000 A 
ATOM     11  C   UNL     1       1.840   5.074  18.598  0.00  0.00    +0.000 A 
ATOM     12  C   UNL     1       2.925   5.665  17.905  0.00  0.00    +0.000 A 
ATOM     13  C   UNL     1       3.696   4.628  17.423  0.00  0.00    +0.000 A 
ATOM     14  O   UNL     1       3.134   3.432  17.778  0.00  0.00    +0.000 OA
BRANCH  10  15
ATOM     15  C   UNL     1       1.178   2.629  19.021  0.00  0.00    +0.000 C 
ATOM     16  O   UNL     1       0.116   2.255  18.530  0.00  0.00    +0.000 OA
BRANCH  15  18
ATOM     17  C   UNL     1       1.428   2.742  21.355  0.00  0.00    +0.000 C 
ATOM     18  O   UNL     1       1.750   2.082  20.128  0.00  0.00    +0.000 OA
ENDBRANCH  15  18
ENDBRANCH  10  15
ENDBRANCH   9  13
ENDBRANCH   8   9
ENDBRANCH   1   8
BRANCH   5  19
ATOM     19  C   UNL     1       8.579  10.522  18.161  0.00  0.00    +0.000 C 
BRANCH  19  20
ATOM     20  C   UNL     1       9.775  11.403  18.497  0.00  0.00    +0.000 A 
ATOM     21  C   UNL     1       9.997  12.580  17.760  0.00  0.00    +0.000 A 
ATOM     22  C   UNL     1      11.066  13.428  18.068  0.00  0.00    +0.000 A 
ATOM     23  C   UNL     1      11.926  13.123  19.119  0.00  0.00    +0.000 A 
ATOM     24  C   UNL     1      11.708  11.973  19.876  0.00  0.00    +0.000 A 
ATOM     25  C   UNL     1      10.634  11.130  19.573  0.00  0.00    +0.000 A 
ENDBRANCH  19  20
ENDBRANCH   5  19
TORSDOF 7
ENDMDL
MODEL 4
REMARK VINA RESULT:      -7.4      1.818      2.528
REMARK  Name = 
REMARK  8 active torsions:
REMARK  status: ('A' for Active; 'I' for Inactive)
REMARK    1  A    between atoms: C_1  and  O_2
REMARK    2  A    between atoms: O_2  and  C_3
REMARK    3  A    between atoms: C_3  and  C_5
REMARK    4  A    between atoms: C_8  and  C_9
REMARK    5  A    between atoms: C_9  and  S_10
REMARK    6  A    between atoms: S_10  and  C_11
REMARK    7  A    between atoms: N_15  and  C_16
REMARK    8  A    between atoms: C_16  and  C_17
REMARK                            x       y       z     vdW  Elec       q    Type
REMARK                         _______ _______ _______ _____ _____    ______ ____
ROOT
ATOM      1  C   UNL     1       7.096   5.468  17.484  0.00  0.00    +0.000 A 
ATOM      2  N   UNL     1       7.225   6.258  16.440  0.00  0.00    +0.000 NA
ATOM      3  N   UNL     1       7.752   7.496  16.793  0.00  0.00    +0.000 NA
ATOM      4  C   UNL     1       8.054   7.577  18.073  0.00  0.00    +0.000 A 
ATOM      5  N   UNL     1       8.573   8.639  18.735  0.00  0.00    +0.000 N 
ATOM      6  S   UNL     1       7.692   6.134  18.945  0.00  0.00    +0.000 S 
ATOM      7  H   UNL     1       9.343   8.449  19.367  0.00  0.00    +0.000 HD
ENDROOT
BRANCH   1   8
ATOM      8  S   UNL     1       6.322   3.902  17.433  0.00  0.00    +0.000 S 
BRANCH   8   9
ATOM      9  C   UNL     1       5.280   3.947  18.917  0.00  0.00    +0.000 C 
BRANCH   9  13
ATOM     10  C   UNL     1       2.614   6.370  18.670  0.00  0.00    +0.000 A 
ATOM     11  C   UNL     1       1.966   5.361  17.981  0.00  0.00    +0.000 A 
ATOM     12  C   UNL     1       2.846   4.251  17.947  0.00  0.00    +0.000 A 
ATOM     13  C   UNL     1       3.991   4.636  18.613  0.00  0.00    +0.000 A 
ATOM     14  O   UNL     1       3.853   5.922  19.060  0.00  0.00    +0.000 OA
BRANCH  10  15
ATOM     15  C   UNL     1       2.174   7.709  19.001  0.00  0.00    +0.000 C 
ATOM     16  O   UNL     1       1.886   8.095  20.130  0.00  0.00    +0.000 OA
BRANCH  15  18
ATOM     17  C   UNL     1       1.524   9.768  18.073  0.00  0.00    +0.000 C 
ATOM     18  O   UNL     1       2.129   8.487  17.884  0.00  0.00    +0.000 OA
ENDBRANCH  15  18
ENDBRANCH  10  15
ENDBRANCH   9  13
ENDBRANCH   8   9
ENDBRANCH   1   8
BRANCH   5  19
ATOM     19  C   UNL     1       8.615   9.950  18.118  0.00  0.00    +0.000 C 
BRANCH  19  20
ATOM     20  C   UNL     1       9.671  10.827  18.779  0.00  0.00    +0.000 A 
ATOM     21  C   UNL     1       9.600  11.073  20.162  0.00  0.00    +0.000 A 
ATOM     22  C   UNL     1      10.575  11.844  20.804  0.00  0.00    +0.000 A 
ATOM     23  C   UNL     1      11.640  12.376  20.081  0.00  0.00    +0.000 A 
ATOM     24  C   UNL     1      11.739  12.123  18.713  0.00  0.00    +0.000 A 
ATOM     25  C   UNL     1      10.769  11.345  18.074  0.00  0.00    +0.000 A 
ENDBRANCH  19  20
ENDBRANCH   5  19
TORSDOF 7
ENDMDL
MODEL 5
REMARK VINA RESULT:      -7.2      1.778      2.675
REMARK  Name = 
REMARK  8 active torsions:
REMARK  status: ('A' for Active; 'I' for Inactive)
REMARK    1  A    between atoms: C_1  and  O_2
REMARK    2  A    between atoms: O_2  and  C_3
REMARK    3  A    between atoms: C_3  and  C_5
REMARK    4  A    between atoms: C_8  and  C_9
REMARK    5  A    between atoms: C_9  and  S_10
REMARK    6  A    between atoms: S_10  and  C_11
REMARK    7  A    between atoms: N_15  and  C_16
REMARK    8  A    between atoms: C_16  and  C_17
REMARK                            x       y       z     vdW  Elec       q    Type
REMARK                         _______ _______ _______ _____ _____    ______ ____
ROOT
ATOM      1  C   UNL     1       6.132   5.486  17.483  0.00  0.00    +0.000 A 
ATOM      2  N   UNL     1       6.144   6.301  16.452  0.00  0.00    +0.000 NA
ATOM      3  N   UNL     1       6.947   7.414  16.684  0.00  0.00    +0.000 NA
ATOM      4  C   UNL     1       7.554   7.370  17.853  0.00  0.00    +0.000 A 
ATOM      5  N   UNL     1       8.392   8.292  18.385  0.00  0.00    +0.000 N 
ATOM      6  S   UNL     1       7.164   5.959  18.765  0.00  0.00    +0.000 S 
ATOM      7  H   UNL     1       9.246   7.941  18.807  0.00  0.00    +0.000 HD
ENDROOT
BRANCH   1   8
ATOM      8  S   UNL     1       5.107   4.075  17.598  0.00  0.00    +0.000 S 
BRANCH   8   9
ATOM      9  C   UNL     1       4.908   3.898  19.393  0.00  0.00    +0.000 C 
BRANCH   9  13
ATOM     10  C   UNL     1       2.325   6.350  19.982  0.00  0.00    +0.000 A 
ATOM     11  C   UNL     1       1.701   5.310  20.647  0.00  0.00    +0.000 A 
ATOM     12  C   UNL     1       2.559   4.187  20.557  0.00  0.00    +0.000 A 
ATOM     13  C   UNL     1       3.664   4.593  19.838  0.00  0.00    +0.000 A 
ATOM     14  O   UNL     1       3.529   5.909  19.491  0.00  0.00    +0.000 OA
BRANCH  10  15
ATOM     15  C   UNL     1       1.897   7.718  19.775  0.00  0.00    +0.000 C 
ATOM     16  O   UNL     1       1.384   8.432  20.632  0.00  0.00    +0.000 OA
BRANCH  15  18
ATOM     17  C   UNL     1       1.762   9.451  18.194  0.00  0.00    +0.000 C 
ATOM     18  O   UNL     1       2.149   8.109  18.495  0.00  0.00    +0.000 OA
ENDBRANCH  15  18
ENDBRANCH  10  15
ENDBRANCH   9  13
ENDBRANCH   8   9
ENDBRANCH   1   8
BRANCH   5  19
ATOM     19  C   UNL     1       8.514   9.612  17.797  0.00  0.00    +0.000 C 
BRANCH  19  20
ATOM     20  C   UNL     1       9.338  10.530  18.690  0.00  0.00    +0.000 A 
ATOM     21  C   UNL     1       9.129  10.512  20.081  0.00  0.00    +0.000 A 
ATOM     22  C   UNL     1       9.895  11.317  20.931  0.00  0.00    +0.000 A 
ATOM     23  C   UNL     1      10.884  12.147  20.412  0.00  0.00    +0.000 A 
ATOM     24  C   UNL     1      11.122  12.161  19.038  0.00  0.00    +0.000 A 
ATOM     25  C   UNL     1      10.362  11.349  18.190  0.00  0.00    +0.000 A 
ENDBRANCH  19  20
ENDBRANCH   5  19
TORSDOF 7
ENDMDL
MODEL 6
REMARK VINA RESULT:      -7.1      0.698      1.126
REMARK  Name = 
REMARK  8 active torsions:
REMARK  status: ('A' for Active; 'I' for Inactive)
REMARK    1  A    between atoms: C_1  and  O_2
REMARK    2  A    between atoms: O_2  and  C_3
REMARK    3  A    between atoms: C_3  and  C_5
REMARK    4  A    between atoms: C_8  and  C_9
REMARK    5  A    between atoms: C_9  and  S_10
REMARK    6  A    between atoms: S_10  and  C_11
REMARK    7  A    between atoms: N_15  and  C_16
REMARK    8  A    between atoms: C_16  and  C_17
REMARK                            x       y       z     vdW  Elec       q    Type
REMARK                         _______ _______ _______ _____ _____    ______ ____
ROOT
ATOM      1  C   UNL     1       7.173   5.605  17.519  0.00  0.00    +0.000 A 
ATOM      2  N   UNL     1       7.286   6.348  16.440  0.00  0.00    +0.000 NA
ATOM      3  N   UNL     1       7.798   7.608  16.735  0.00  0.00    +0.000 NA
ATOM      4  C   UNL     1       8.105   7.750  18.008  0.00  0.00    +0.000 A 
ATOM      5  N   UNL     1       8.612   8.847  18.620  0.00  0.00    +0.000 N 
ATOM      6  S   UNL     1       7.766   6.343  18.946  0.00  0.00    +0.000 S 
ATOM      7  H   UNL     1       9.389   8.695  19.255  0.00  0.00    +0.000 HD
ENDROOT
BRANCH   1   8
ATOM      8  S   UNL     1       6.419   4.027  17.542  0.00  0.00    +0.000 S 
BRANCH   8   9
ATOM      9  C   UNL     1       4.953   4.294  16.507  0.00  0.00    +0.000 C 
BRANCH   9  13
ATOM     10  C   UNL     1       2.457   4.146  19.111  0.00  0.00    +0.000 A 
ATOM     11  C   UNL     1       1.740   3.425  18.173  0.00  0.00    +0.000 A 
ATOM     12  C   UNL     1       2.547   3.338  17.013  0.00  0.00    +0.000 A 
ATOM     13  C   UNL     1       3.717   4.013  17.295  0.00  0.00    +0.000 A 
ATOM     14  O   UNL     1       3.669   4.502  18.572  0.00  0.00    +0.000 OA
BRANCH  10  15
ATOM     15  C   UNL     1       2.110   4.522  20.466  0.00  0.00    +0.000 C 
ATOM     16  O   UNL     1       1.560   5.573  20.784  0.00  0.00    +0.000 OA
BRANCH  15  18
ATOM     17  C   UNL     1       1.396   2.711  21.781  0.00  0.00    +0.000 C 
ATOM     18  O   UNL     1       2.470   3.544  21.341  0.00  0.00    +0.000 OA
ENDBRANCH  15  18
ENDBRANCH  10  15
ENDBRANCH   9  13
ENDBRANCH   8   9
ENDBRANCH   1   8
BRANCH   5  19
ATOM     19  C   UNL     1       8.634  10.130  17.944  0.00  0.00    +0.000 C 
BRANCH  19  20
ATOM     20  C   UNL     1       9.388  11.165  18.770  0.00  0.00    +0.000 A 
ATOM     21  C   UNL     1       9.687  10.892  20.117  0.00  0.00    +0.000 A 
ATOM     22  C   UNL     1      10.410  11.806  20.890  0.00  0.00    +0.000 A 
ATOM     23  C   UNL     1      10.852  13.004  20.334  0.00  0.00    +0.000 A 
ATOM     24  C   UNL     1      10.586  13.281  18.994  0.00  0.00    +0.000 A 
ATOM     25  C   UNL     1       9.872  12.362  18.219  0.00  0.00    +0.000 A 
ENDBRANCH  19  20
ENDBRANCH   5  19
TORSDOF 7
ENDMDL
MODEL 7
REMARK VINA RESULT:      -7.1      1.450      2.187
REMARK  Name = 
REMARK  8 active torsions:
REMARK  status: ('A' for Active; 'I' for Inactive)
REMARK    1  A    between atoms: C_1  and  O_2
REMARK    2  A    between atoms: O_2  and  C_3
REMARK    3  A    between atoms: C_3  and  C_5
REMARK    4  A    between atoms: C_8  and  C_9
REMARK    5  A    between atoms: C_9  and  S_10
REMARK    6  A    between atoms: S_10  and  C_11
REMARK    7  A    between atoms: N_15  and  C_16
REMARK    8  A    between atoms: C_16  and  C_17
REMARK                            x       y       z     vdW  Elec       q    Type
REMARK                         _______ _______ _______ _____ _____    ______ ____
ROOT
ATOM      1  C   UNL     1       7.090   5.516  17.531  0.00  0.00    +0.000 A 
ATOM      2  N   UNL     1       7.288   6.264  16.468  0.00  0.00    +0.000 NA
ATOM      3  N   UNL     1       7.833   7.500  16.803  0.00  0.00    +0.000 NA
ATOM      4  C   UNL     1       8.080   7.617  18.091  0.00  0.00    +0.000 A 
ATOM      5  N   UNL     1       8.599   8.688  18.741  0.00  0.00    +0.000 N 
ATOM      6  S   UNL     1       7.639   6.216  18.995  0.00  0.00    +0.000 S 
ATOM      7  H   UNL     1       9.335   8.499  19.413  0.00  0.00    +0.000 HD
ENDROOT
BRANCH   1   8
ATOM      8  S   UNL     1       6.275   3.969  17.499  0.00  0.00    +0.000 S 
BRANCH   8   9
ATOM      9  C   UNL     1       4.740   4.371  16.619  0.00  0.00    +0.000 C 
BRANCH   9  13
ATOM     10  C   UNL     1       2.899   6.511  18.870  0.00  0.00    +0.000 A 
ATOM     11  C   UNL     1       3.212   7.494  17.949  0.00  0.00    +0.000 A 
ATOM     12  C   UNL     1       3.962   6.873  16.920  0.00  0.00    +0.000 A 
ATOM     13  C   UNL     1       4.075   5.542  17.263  0.00  0.00    +0.000 A 
ATOM     14  O   UNL     1       3.426   5.315  18.445  0.00  0.00    +0.000 OA
BRANCH  10  15
ATOM     15  C   UNL     1       2.147   6.592  20.104  0.00  0.00    +0.000 C 
ATOM     16  O   UNL     1       1.719   5.627  20.731  0.00  0.00    +0.000 OA
BRANCH  15  18
ATOM     17  C   UNL     1       0.833   8.137  21.291  0.00  0.00    +0.000 C 
ATOM     18  O   UNL     1       1.984   7.890  20.481  0.00  0.00    +0.000 OA
ENDBRANCH  15  18
ENDBRANCH  10  15
ENDBRANCH   9  13
ENDBRANCH   8   9
ENDBRANCH   1   8
BRANCH   5  19
ATOM     19  C   UNL     1       8.705   9.975  18.082  0.00  0.00    +0.000 C 
BRANCH  19  20
ATOM     20  C   UNL     1       9.770  10.838  18.747  0.00  0.00    +0.000 A 
ATOM     21  C   UNL     1       9.657  11.145  20.115  0.00  0.00    +0.000 A 
ATOM     22  C   UNL     1      10.637  11.904  20.762  0.00  0.00    +0.000 A 
ATOM     23  C   UNL     1      11.748  12.365  20.060  0.00  0.00    +0.000 A 
ATOM     24  C   UNL     1      11.889  12.050  18.709  0.00  0.00    +0.000 A 
ATOM     25  C   UNL     1      10.913  11.283  18.065  0.00  0.00    +0.000 A 
ENDBRANCH  19  20
ENDBRANCH   5  19
TORSDOF 7
ENDMDL
MODEL 8
REMARK VINA RESULT:      -7.0      4.787      7.374
REMARK  Name = 
REMARK  8 active torsions:
REMARK  status: ('A' for Active; 'I' for Inactive)
REMARK    1  A    between atoms: C_1  and  O_2
REMARK    2  A    between atoms: O_2  and  C_3
REMARK    3  A    between atoms: C_3  and  C_5
REMARK    4  A    between atoms: C_8  and  C_9
REMARK    5  A    between atoms: C_9  and  S_10
REMARK    6  A    between atoms: S_10  and  C_11
REMARK    7  A    between atoms: N_15  and  C_16
REMARK    8  A    between atoms: C_16  and  C_17
REMARK                            x       y       z     vdW  Elec       q    Type
REMARK                         _______ _______ _______ _____ _____    ______ ____
ROOT
ATOM      1  C   UNL     1       6.521   4.981  17.672  0.00  0.00    +0.000 A 
ATOM      2  N   UNL     1       7.704   4.578  17.262  0.00  0.00    +0.000 NA
ATOM      3  N   UNL     1       7.826   4.663  15.879  0.00  0.00    +0.000 NA
ATOM      4  C   UNL     1       6.760   5.180  15.303  0.00  0.00    +0.000 A 
ATOM      5  N   UNL     1       6.553   5.391  13.980  0.00  0.00    +0.000 N 
ATOM      6  S   UNL     1       5.513   5.581  16.425  0.00  0.00    +0.000 S 
ATOM      7  H   UNL     1       6.169   6.293  13.718  0.00  0.00    +0.000 HD
ENDROOT
BRANCH   1   8
ATOM      8  S   UNL     1       5.968   4.860  19.326  0.00  0.00    +0.000 S 
BRANCH   8   9
ATOM      9  C   UNL     1       4.526   3.770  19.163  0.00  0.00    +0.000 C 
BRANCH   9  13
ATOM     10  C   UNL     1       2.095   6.244  20.168  0.00  0.00    +0.000 A 
ATOM     11  C   UNL     1       1.357   5.140  20.554  0.00  0.00    +0.000 A 
ATOM     12  C   UNL     1       2.135   3.995  20.255  0.00  0.00    +0.000 A 
ATOM     13  C   UNL     1       3.310   4.453  19.695  0.00  0.00    +0.000 A 
ATOM     14  O   UNL     1       3.294   5.820  19.645  0.00  0.00    +0.000 OA
BRANCH  10  15
ATOM     15  C   UNL     1       1.781   7.655  20.251  0.00  0.00    +0.000 C 
ATOM     16  O   UNL     1       1.345   8.220  21.250  0.00  0.00    +0.000 OA
BRANCH  15  18
ATOM     17  C   UNL     1       1.276   9.455  18.829  0.00  0.00    +0.000 C 
ATOM     18  O   UNL     1       2.044   8.274  19.068  0.00  0.00    +0.000 OA
ENDBRANCH  15  18
ENDBRANCH  10  15
ENDBRANCH   9  13
ENDBRANCH   8   9
ENDBRANCH   1   8
BRANCH   5  19
ATOM     19  C   UNL     1       7.434   4.805  12.989  0.00  0.00    +0.000 C 
BRANCH  19  20
ATOM     20  C   UNL     1       6.742   3.663  12.256  0.00  0.00    +0.000 A 
ATOM     21  C   UNL     1       7.515   2.624  11.707  0.00  0.00    +0.000 A 
ATOM     22  C   UNL     1       6.906   1.543  11.060  0.00  0.00    +0.000 A 
ATOM     23  C   UNL     1       5.519   1.476  10.955  0.00  0.00    +0.000 A 
ATOM     24  C   UNL     1       4.736   2.484  11.515  0.00  0.00    +0.000 A 
ATOM     25  C   UNL     1       5.345   3.560  12.170  0.00  0.00    +0.000 A 
ENDBRANCH  19  20
ENDBRANCH   5  19
TORSDOF 7
ENDMDL
MODEL 9
REMARK VINA RESULT:      -7.0      4.658      7.327
REMARK  Name = 
REMARK  8 active torsions:
REMARK  status: ('A' for Active; 'I' for Inactive)
REMARK    1  A    between atoms: C_1  and  O_2
REMARK    2  A    between atoms: O_2  and  C_3
REMARK    3  A    between atoms: C_3  and  C_5
REMARK    4  A    between atoms: C_8  and  C_9
REMARK    5  A    between atoms: C_9  and  S_10
REMARK    6  A    between atoms: S_10  and  C_11
REMARK    7  A    between atoms: N_15  and  C_16
REMARK    8  A    between atoms: C_16  and  C_17
REMARK                            x       y       z     vdW  Elec       q    Type
REMARK                         _______ _______ _______ _____ _____    ______ ____
ROOT
ATOM      1  C   UNL     1       6.358   5.293  17.662  0.00  0.00    +0.000 A 
ATOM      2  N   UNL     1       7.574   4.933  17.314  0.00  0.00    +0.000 NA
ATOM      3  N   UNL     1       7.723   4.888  15.931  0.00  0.00    +0.000 NA
ATOM      4  C   UNL     1       6.638   5.271  15.288  0.00  0.00    +0.000 A 
ATOM      5  N   UNL     1       6.449   5.335  13.948  0.00  0.00    +0.000 N 
ATOM      6  S   UNL     1       5.341   5.696  16.343  0.00  0.00    +0.000 S 
ATOM      7  H   UNL     1       6.013   6.178  13.590  0.00  0.00    +0.000 HD
ENDROOT
BRANCH   1   8
ATOM      8  S   UNL     1       5.776   5.299  19.310  0.00  0.00    +0.000 S 
BRANCH   8   9
ATOM      9  C   UNL     1       4.246   6.265  19.167  0.00  0.00    +0.000 C 
BRANCH   9  13
ATOM     10  C   UNL     1       1.771   3.636  19.144  0.00  0.00    +0.000 A 
ATOM     11  C   UNL     1       1.235   4.341  20.207  0.00  0.00    +0.000 A 
ATOM     12  C   UNL     1       2.063   5.470  20.416  0.00  0.00    +0.000 A 
ATOM     13  C   UNL     1       3.068   5.401  19.473  0.00  0.00    +0.000 A 
ATOM     14  O   UNL     1       2.893   4.291  18.694  0.00  0.00    +0.000 OA
BRANCH  10  15
ATOM     15  C   UNL     1       1.323   2.414  18.512  0.00  0.00    +0.000 C 
ATOM     16  O   UNL     1       0.214   1.909  18.664  0.00  0.00    +0.000 OA
BRANCH  15  18
ATOM     17  C   UNL     1       3.424   1.366  18.415  0.00  0.00    +0.000 C 
ATOM     18  O   UNL     1       2.300   1.902  17.714  0.00  0.00    +0.000 OA
ENDBRANCH  15  18
ENDBRANCH  10  15
ENDBRANCH   9  13
ENDBRANCH   8   9
ENDBRANCH   1   8
BRANCH   5  19
ATOM     19  C   UNL     1       7.390   4.715  13.036  0.00  0.00    +0.000 C 
BRANCH  19  20
ATOM     20  C   UNL     1       6.728   3.583  12.260  0.00  0.00    +0.000 A 
ATOM     21  C   UNL     1       7.526   2.572  11.696  0.00  0.00    +0.000 A 
ATOM     22  C   UNL     1       6.945   1.500  11.010  0.00  0.00    +0.000 A 
ATOM     23  C   UNL     1       5.561   1.415  10.880  0.00  0.00    +0.000 A 
ATOM     24  C   UNL     1       4.753   2.396  11.453  0.00  0.00    +0.000 A 
ATOM     25  C   UNL     1       5.334   3.462  12.147  0.00  0.00    +0.000 A 
ENDBRANCH  19  20
ENDBRANCH   5  19
TORSDOF 7
ENDMDL
