MODEL 1
REMARK VINA RESULT:      -8.3      0.000      0.000
REMARK  Name = 
REMARK  3 active torsions:
REMARK  status: ('A' for Active; 'I' for Inactive)
REMARK    1  A    between atoms: C_12  and  C_13
REMARK    2  A    between atoms: C_15  and  C_16
REMARK    3  A    between atoms: C_17  and  C_18
REMARK                            x       y       z     vdW  Elec       q    Type
REMARK                         _______ _______ _______ _____ _____    ______ ____
ROOT
ATOM      1  C   UNL     1       6.952   5.977  17.550  0.00  0.00    +0.000 A 
ATOM      2  C   UNL     1       7.058   7.280  17.091  0.00  0.00    +0.000 A 
ATOM      3  C   UNL     1       7.909   8.113  17.870  0.00  0.00    +0.000 A 
ATOM      4  C   UNL     1       8.386   7.430  18.966  0.00  0.00    +0.000 A 
ATOM      5  S   UNL     1       7.824   5.808  19.020  0.00  0.00    +0.000 S 
ENDROOT
BRANCH   1  17
ATOM      6  O   UNL     1       4.644   2.653  16.161  0.00  0.00    +0.000 OA
ATOM      7  C   UNL     1       4.259   3.415  17.039  0.00  0.00    +0.000 C 
ATOM      8  N   UNL     1       3.282   3.061  17.936  0.00  0.00    +0.000 N 
ATOM      9  C   UNL     1       2.766   3.958  18.876  0.00  0.00    +0.000 A 
ATOM     10  C   UNL     1       1.841   3.541  19.829  0.00  0.00    +0.000 A 
ATOM     11  C   UNL     1       1.288   4.478  20.707  0.00  0.00    +0.000 A 
ATOM     12  C   UNL     1       1.641   5.827  20.616  0.00  0.00    +0.000 A 
ATOM     13  C   UNL     1       2.585   6.238  19.676  0.00  0.00    +0.000 A 
ATOM     14  C   UNL     1       3.163   5.294  18.829  0.00  0.00    +0.000 A 
ATOM     15  O   UNL     1       4.144   5.727  17.977  0.00  0.00    +0.000 OA
ATOM     16  C   UNL     1       4.874   4.751  17.308  0.00  0.00    +0.000 C 
ATOM     17  C   UNL     1       6.181   4.900  17.016  0.00  0.00    +0.000 C 
ATOM     18  H   UNL     1       2.924   2.118  17.868  0.00  0.00    +0.000 HD
ENDBRANCH   1  17
BRANCH   3  19
ATOM     19  C   UNL     1       8.248   9.476  17.571  0.00  0.00    +0.000 C 
ATOM     20  C   UNL     1       8.991  10.259  18.375  0.00  0.00    +0.000 C 
BRANCH  20  21
ATOM     21  C   UNL     1       9.227  11.694  18.088  0.00  0.00    +0.000 C 
ATOM     22  O   UNL     1       8.343  12.386  17.592  0.00  0.00    +0.000 OA
ATOM     23  N   UNL     1      10.451  12.197  18.471  0.00  0.00    +0.000 N 
ATOM     24  C   UNL     1      11.645  11.492  18.915  0.00  0.00    +0.000 C 
ATOM     25  C   UNL     1      12.333  12.514  19.798  0.00  0.00    +0.000 C 
ATOM     26  C   UNL     1      12.059  13.831  19.083  0.00  0.00    +0.000 C 
ATOM     27  C   UNL     1      10.712  13.624  18.392  0.00  0.00    +0.000 C 
ENDBRANCH  20  21
ENDBRANCH   3  19
TORSDOF 3
ENDMDL
MODEL 2
REMARK VINA RESULT:      -8.2      5.889      9.374
REMARK  Name = 
REMARK  3 active torsions:
REMARK  status: ('A' for Active; 'I' for Inactive)
REMARK    1  A    between atoms: C_12  and  C_13
REMARK    2  A    between atoms: C_15  and  C_16
REMARK    3  A    between atoms: C_17  and  C_18
REMARK                            x       y       z     vdW  Elec       q    Type
REMARK                         _______ _______ _______ _____ _____    ______ ____
ROOT
ATOM      1  C   UNL     1       1.830   8.653  18.467  0.00  0.00    +0.000 A 
ATOM      2  C   UNL     1       0.824   9.231  17.709  0.00  0.00    +0.000 A 
ATOM      3  C   UNL     1      -0.134   9.965  18.462  0.00  0.00    +0.000 A 
ATOM      4  C   UNL     1       0.130   9.869  19.810  0.00  0.00    +0.000 A 
ATOM      5  S   UNL     1       1.528   8.925  20.136  0.00  0.00    +0.000 S 
ENDROOT
BRANCH   1  17
ATOM      6  O   UNL     1       5.182   6.223  17.387  0.00  0.00    +0.000 OA
ATOM      7  C   UNL     1       4.265   5.823  18.095  0.00  0.00    +0.000 C 
ATOM      8  N   UNL     1       4.408   4.746  18.934  0.00  0.00    +0.000 N 
ATOM      9  C   UNL     1       3.340   4.222  19.669  0.00  0.00    +0.000 A 
ATOM     10  C   UNL     1       3.539   3.187  20.579  0.00  0.00    +0.000 A 
ATOM     11  C   UNL     1       2.439   2.634  21.243  0.00  0.00    +0.000 A 
ATOM     12  C   UNL     1       1.147   3.098  20.979  0.00  0.00    +0.000 A 
ATOM     13  C   UNL     1       0.954   4.150  20.085  0.00  0.00    +0.000 A 
ATOM     14  C   UNL     1       2.056   4.724  19.455  0.00  0.00    +0.000 A 
ATOM     15  O   UNL     1       1.829   5.807  18.648  0.00  0.00    +0.000 OA
ATOM     16  C   UNL     1       2.945   6.515  18.213  0.00  0.00    +0.000 C 
ATOM     17  C   UNL     1       2.928   7.850  18.032  0.00  0.00    +0.000 C 
ATOM     18  H   UNL     1       5.324   4.323  18.977  0.00  0.00    +0.000 HD
ENDBRANCH   1  17
BRANCH   3  19
ATOM     19  C   UNL     1      -1.228  10.720  17.918  0.00  0.00    +0.000 C 
ATOM     20  C   UNL     1      -2.268  10.171  17.264  0.00  0.00    +0.000 C 
BRANCH  20  21
ATOM     21  C   UNL     1      -3.321  10.990  16.619  0.00  0.00    +0.000 C 
ATOM     22  O   UNL     1      -3.369  11.098  15.397  0.00  0.00    +0.000 OA
ATOM     23  N   UNL     1      -4.258  11.548  17.461  0.00  0.00    +0.000 N 
ATOM     24  C   UNL     1      -4.256  11.648  18.913  0.00  0.00    +0.000 C 
ATOM     25  C   UNL     1      -5.733  11.694  19.252  0.00  0.00    +0.000 C 
ATOM     26  C   UNL     1      -6.325  12.515  18.113  0.00  0.00    +0.000 C 
ATOM     27  C   UNL     1      -5.425  12.219  16.914  0.00  0.00    +0.000 C 
ENDBRANCH  20  21
ENDBRANCH   3  19
TORSDOF 3
ENDMDL
MODEL 3
REMARK VINA RESULT:      -8.1      1.313      1.323
REMARK  Name = 
REMARK  3 active torsions:
REMARK  status: ('A' for Active; 'I' for Inactive)
REMARK    1  A    between atoms: C_12  and  C_13
REMARK    2  A    between atoms: C_15  and  C_16
REMARK    3  A    between atoms: C_17  and  C_18
REMARK                            x       y       z     vdW  Elec       q    Type
REMARK                         _______ _______ _______ _____ _____    ______ ____
ROOT
ATOM      1  C   UNL     1       7.045   6.323  17.473  0.00  0.00    +0.000 A 
ATOM      2  C   UNL     1       7.262   7.655  17.156  0.00  0.00    +0.000 A 
ATOM      3  C   UNL     1       8.120   8.344  18.058  0.00  0.00    +0.000 A 
ATOM      4  C   UNL     1       8.487   7.524  19.101  0.00  0.00    +0.000 A 
ATOM      5  S   UNL     1       7.817   5.949  18.961  0.00  0.00    +0.000 S 
ENDROOT
BRANCH   1  17
ATOM      6  O   UNL     1       4.625   3.315  15.630  0.00  0.00    +0.000 OA
ATOM      7  C   UNL     1       4.273   3.942  16.622  0.00  0.00    +0.000 C 
ATOM      8  N   UNL     1       3.298   3.480  17.470  0.00  0.00    +0.000 N 
ATOM      9  C   UNL     1       2.820   4.235  18.545  0.00  0.00    +0.000 A 
ATOM     10  C   UNL     1       1.896   3.700  19.439  0.00  0.00    +0.000 A 
ATOM     11  C   UNL     1       1.381   4.505  20.460  0.00  0.00    +0.000 A 
ATOM     12  C   UNL     1       1.771   5.843  20.571  0.00  0.00    +0.000 A 
ATOM     13  C   UNL     1       2.714   6.368  19.689  0.00  0.00    +0.000 A 
ATOM     14  C   UNL     1       3.254   5.552  18.697  0.00  0.00    +0.000 A 
ATOM     15  O   UNL     1       4.236   6.085  17.905  0.00  0.00    +0.000 OA
ATOM     16  C   UNL     1       4.930   5.205  17.082  0.00  0.00    +0.000 C 
ATOM     17  C   UNL     1       6.236   5.363  16.793  0.00  0.00    +0.000 C 
ATOM     18  H   UNL     1       2.912   2.569  17.264  0.00  0.00    +0.000 HD
ENDBRANCH   1  17
BRANCH   3  19
ATOM     19  C   UNL     1       8.565   9.702  17.918  0.00  0.00    +0.000 C 
ATOM     20  C   UNL     1       9.232  10.377  18.872  0.00  0.00    +0.000 C 
BRANCH  20  21
ATOM     21  C   UNL     1       9.577  11.812  18.736  0.00  0.00    +0.000 C 
ATOM     22  O   UNL     1       9.634  12.339  17.629  0.00  0.00    +0.000 OA
ATOM     23  N   UNL     1       9.755  12.508  19.911  0.00  0.00    +0.000 N 
ATOM     24  C   UNL     1       9.878  12.011  21.274  0.00  0.00    +0.000 C 
ATOM     25  C   UNL     1       9.367  13.170  22.106  0.00  0.00    +0.000 C 
ATOM     26  C   UNL     1       9.879  14.391  21.350  0.00  0.00    +0.000 C 
ATOM     27  C   UNL     1       9.922  13.951  19.888  0.00  0.00    +0.000 C 
ENDBRANCH  20  21
ENDBRANCH   3  19
TORSDOF 3
ENDMDL
MODEL 4
REMARK VINA RESULT:      -7.8      5.767      8.428
REMARK  Name = 
REMARK  3 active torsions:
REMARK  status: ('A' for Active; 'I' for Inactive)
REMARK    1  A    between atoms: C_12  and  C_13
REMARK    2  A    between atoms: C_15  and  C_16
REMARK    3  A    between atoms: C_17  and  C_18
REMARK                            x       y       z     vdW  Elec       q    Type
REMARK                         _______ _______ _______ _____ _____    ______ ____
ROOT
ATOM      1  C   UNL     1       2.420   8.153  18.446  0.00  0.00    +0.000 A 
ATOM      2  C   UNL     1       1.786   8.198  19.678  0.00  0.00    +0.000 A 
ATOM      3  C   UNL     1       0.969   9.345  19.879  0.00  0.00    +0.000 A 
ATOM      4  C   UNL     1       1.056  10.199  18.803  0.00  0.00    +0.000 A 
ATOM      5  S   UNL     1       2.092   9.595  17.573  0.00  0.00    +0.000 S 
ENDROOT
BRANCH   1  17
ATOM      6  O   UNL     1       5.174   5.157  17.128  0.00  0.00    +0.000 OA
ATOM      7  C   UNL     1       4.309   4.947  17.969  0.00  0.00    +0.000 C 
ATOM      8  N   UNL     1       4.391   3.902  18.856  0.00  0.00    +0.000 N 
ATOM      9  C   UNL     1       3.362   3.597  19.751  0.00  0.00    +0.000 A 
ATOM     10  C   UNL     1       3.515   2.587  20.698  0.00  0.00    +0.000 A 
ATOM     11  C   UNL     1       2.441   2.255  21.529  0.00  0.00    +0.000 A 
ATOM     12  C   UNL     1       1.214   2.912  21.397  0.00  0.00    +0.000 A 
ATOM     13  C   UNL     1       1.071   3.938  20.464  0.00  0.00    +0.000 A 
ATOM     14  C   UNL     1       2.156   4.292  19.664  0.00  0.00    +0.000 A 
ATOM     15  O   UNL     1       1.996   5.358  18.819  0.00  0.00    +0.000 OA
ATOM     16  C   UNL     1       3.141   5.851  18.203  0.00  0.00    +0.000 C 
ATOM     17  C   UNL     1       3.310   7.161  17.934  0.00  0.00    +0.000 C 
ATOM     18  H   UNL     1       5.227   3.336  18.814  0.00  0.00    +0.000 HD
ENDBRANCH   1  17
BRANCH   3  19
ATOM     19  C   UNL     1       0.148   9.597  21.031  0.00  0.00    +0.000 C 
ATOM     20  C   UNL     1      -0.412  10.789  21.309  0.00  0.00    +0.000 C 
BRANCH  20  21
ATOM     21  C   UNL     1      -1.159  11.041  22.563  0.00  0.00    +0.000 C 
ATOM     22  O   UNL     1      -0.827  10.493  23.610  0.00  0.00    +0.000 OA
ATOM     23  N   UNL     1      -2.180  11.963  22.487  0.00  0.00    +0.000 N 
ATOM     24  C   UNL     1      -2.794  12.573  21.316  0.00  0.00    +0.000 C 
ATOM     25  C   UNL     1      -3.292  13.902  21.847  0.00  0.00    +0.000 C 
ATOM     26  C   UNL     1      -3.758  13.559  23.257  0.00  0.00    +0.000 C 
ATOM     27  C   UNL     1      -2.855  12.408  23.695  0.00  0.00    +0.000 C 
ENDBRANCH  20  21
ENDBRANCH   3  19
TORSDOF 3
ENDMDL
MODEL 5
REMARK VINA RESULT:      -7.7      5.564      8.865
REMARK  Name = 
REMARK  3 active torsions:
REMARK  status: ('A' for Active; 'I' for Inactive)
REMARK    1  A    between atoms: C_12  and  C_13
REMARK    2  A    between atoms: C_15  and  C_16
REMARK    3  A    between atoms: C_17  and  C_18
REMARK                            x       y       z     vdW  Elec       q    Type
REMARK                         _______ _______ _______ _____ _____    ______ ____
ROOT
ATOM      1  C   UNL     1       1.227   9.444  19.896  0.00  0.00    +0.000 A 
ATOM      2  C   UNL     1       1.850   8.547  19.043  0.00  0.00    +0.000 A 
ATOM      3  C   UNL     1       2.055   7.253  19.596  0.00  0.00    +0.000 A 
ATOM      4  C   UNL     1       1.639   7.213  20.907  0.00  0.00    +0.000 A 
ATOM      5  S   UNL     1       0.993   8.715  21.433  0.00  0.00    +0.000 S 
ENDROOT
BRANCH   1  17
ATOM      6  O   UNL     1       0.238  13.502  18.969  0.00  0.00    +0.000 OA
ATOM      7  C   UNL     1      -0.419  12.546  18.575  0.00  0.00    +0.000 C 
ATOM      8  N   UNL     1      -1.257  12.633  17.491  0.00  0.00    +0.000 N 
ATOM      9  C   UNL     1      -2.084  11.578  17.096  0.00  0.00    +0.000 A 
ATOM     10  C   UNL     1      -2.854  11.668  15.939  0.00  0.00    +0.000 A 
ATOM     11  C   UNL     1      -3.728  10.627  15.612  0.00  0.00    +0.000 A 
ATOM     12  C   UNL     1      -3.848   9.514  16.449  0.00  0.00    +0.000 A 
ATOM     13  C   UNL     1      -3.058   9.416  17.594  0.00  0.00    +0.000 A 
ATOM     14  C   UNL     1      -2.161  10.438  17.896  0.00  0.00    +0.000 A 
ATOM     15  O   UNL     1      -1.348  10.264  18.985  0.00  0.00    +0.000 OA
ATOM     16  C   UNL     1      -0.303  11.168  19.143  0.00  0.00    +0.000 C 
ATOM     17  C   UNL     1       0.888  10.812  19.663  0.00  0.00    +0.000 C 
ATOM     18  H   UNL     1      -1.272  13.516  16.999  0.00  0.00    +0.000 HD
ENDBRANCH   1  17
BRANCH   3  19
ATOM     19  C   UNL     1       2.608   6.123  18.902  0.00  0.00    +0.000 C 
ATOM     20  C   UNL     1       3.740   5.495  19.269  0.00  0.00    +0.000 C 
BRANCH  20  21
ATOM     21  C   UNL     1       4.339   4.405  18.464  0.00  0.00    +0.000 C 
ATOM     22  O   UNL     1       4.207   3.232  18.801  0.00  0.00    +0.000 OA
ATOM     23  N   UNL     1       4.978   4.787  17.304  0.00  0.00    +0.000 N 
ATOM     24  C   UNL     1       5.356   6.117  16.849  0.00  0.00    +0.000 C 
ATOM     25  C   UNL     1       5.357   5.971  15.340  0.00  0.00    +0.000 C 
ATOM     26  C   UNL     1       5.898   4.562  15.128  0.00  0.00    +0.000 C 
ATOM     27  C   UNL     1       5.444   3.784  16.362  0.00  0.00    +0.000 C 
ENDBRANCH  20  21
ENDBRANCH   3  19
TORSDOF 3
ENDMDL
MODEL 6
REMARK VINA RESULT:      -7.6      6.038      9.444
REMARK  Name = 
REMARK  3 active torsions:
REMARK  status: ('A' for Active; 'I' for Inactive)
REMARK    1  A    between atoms: C_12  and  C_13
REMARK    2  A    between atoms: C_15  and  C_16
REMARK    3  A    between atoms: C_17  and  C_18
REMARK                            x       y       z     vdW  Elec       q    Type
REMARK                         _______ _______ _______ _____ _____    ______ ____
ROOT
ATOM      1  C   UNL     1       1.875   8.784  18.381  0.00  0.00    +0.000 A 
ATOM      2  C   UNL     1       0.795   9.271  17.662  0.00  0.00    +0.000 A 
ATOM      3  C   UNL     1      -0.231   9.850  18.459  0.00  0.00    +0.000 A 
ATOM      4  C   UNL     1       0.065   9.728  19.797  0.00  0.00    +0.000 A 
ATOM      5  S   UNL     1       1.571   8.945  20.064  0.00  0.00    +0.000 S 
ENDROOT
BRANCH   1  17
ATOM      6  O   UNL     1       5.461   6.798  17.154  0.00  0.00    +0.000 OA
ATOM      7  C   UNL     1       4.552   6.232  17.749  0.00  0.00    +0.000 C 
ATOM      8  N   UNL     1       4.748   5.060  18.436  0.00  0.00    +0.000 N 
ATOM      9  C   UNL     1       3.698   4.356  19.032  0.00  0.00    +0.000 A 
ATOM     10  C   UNL     1       3.944   3.220  19.799  0.00  0.00    +0.000 A 
ATOM     11  C   UNL     1       2.868   2.495  20.319  0.00  0.00    +0.000 A 
ATOM     12  C   UNL     1       1.554   2.891  20.054  0.00  0.00    +0.000 A 
ATOM     13  C   UNL     1       1.311   4.042  19.306  0.00  0.00    +0.000 A 
ATOM     14  C   UNL     1       2.387   4.784  18.822  0.00  0.00    +0.000 A 
ATOM     15  O   UNL     1       2.105   5.951  18.163  0.00  0.00    +0.000 OA
ATOM     16  C   UNL     1       3.174   6.796  17.892  0.00  0.00    +0.000 C 
ATOM     17  C   UNL     1       3.054   8.138  17.897  0.00  0.00    +0.000 C 
ATOM     18  H   UNL     1       5.694   4.707  18.469  0.00  0.00    +0.000 HD
ENDBRANCH   1  17
BRANCH   3  19
ATOM     19  C   UNL     1      -1.416  10.491  17.961  0.00  0.00    +0.000 C 
ATOM     20  C   UNL     1      -2.308  11.132  18.740  0.00  0.00    +0.000 C 
BRANCH  20  21
ATOM     21  C   UNL     1      -3.575  11.684  18.206  0.00  0.00    +0.000 C 
ATOM     22  O   UNL     1      -3.858  11.565  17.018  0.00  0.00    +0.000 OA
ATOM     23  N   UNL     1      -4.421  12.262  19.127  0.00  0.00    +0.000 N 
ATOM     24  C   UNL     1      -4.175  12.621  20.516  0.00  0.00    +0.000 C 
ATOM     25  C   UNL     1      -5.554  12.541  21.138  0.00  0.00    +0.000 C 
ATOM     26  C   UNL     1      -6.463  13.065  20.032  0.00  0.00    +0.000 C 
ATOM     27  C   UNL     1      -5.758  12.674  18.734  0.00  0.00    +0.000 C 
ENDBRANCH  20  21
ENDBRANCH   3  19
TORSDOF 3
ENDMDL
MODEL 7
REMARK VINA RESULT:      -7.6      5.048      7.898
REMARK  Name = 
REMARK  3 active torsions:
REMARK  status: ('A' for Active; 'I' for Inactive)
REMARK    1  A    between atoms: C_12  and  C_13
REMARK    2  A    between atoms: C_15  and  C_16
REMARK    3  A    between atoms: C_17  and  C_18
REMARK                            x       y       z     vdW  Elec       q    Type
REMARK                         _______ _______ _______ _____ _____    ______ ____
ROOT
ATOM      1  C   UNL     1       2.146   6.099  19.677  0.00  0.00    +0.000 A 
ATOM      2  C   UNL     1       1.628   6.730  20.798  0.00  0.00    +0.000 A 
ATOM      3  C   UNL     1       1.384   8.121  20.632  0.00  0.00    +0.000 A 
ATOM      4  C   UNL     1       1.796   8.541  19.387  0.00  0.00    +0.000 A 
ATOM      5  S   UNL     1       2.439   7.258  18.444  0.00  0.00    +0.000 S 
ENDROOT
BRANCH   1  17
ATOM      6  O   UNL     1       3.206   2.018  18.951  0.00  0.00    +0.000 OA
ATOM      7  C   UNL     1       3.818   2.964  18.471  0.00  0.00    +0.000 C 
ATOM      8  N   UNL     1       4.609   2.832  17.357  0.00  0.00    +0.000 N 
ATOM      9  C   UNL     1       5.388   3.881  16.862  0.00  0.00    +0.000 A 
ATOM     10  C   UNL     1       6.108   3.740  15.679  0.00  0.00    +0.000 A 
ATOM     11  C   UNL     1       6.938   4.781  15.250  0.00  0.00    +0.000 A 
ATOM     12  C   UNL     1       7.064   5.946  16.012  0.00  0.00    +0.000 A 
ATOM     13  C   UNL     1       6.323   6.093  17.185  0.00  0.00    +0.000 A 
ATOM     14  C   UNL     1       5.468   5.070  17.588  0.00  0.00    +0.000 A 
ATOM     15  O   UNL     1       4.700   5.290  18.700  0.00  0.00    +0.000 OA
ATOM     16  C   UNL     1       3.689   4.372  18.960  0.00  0.00    +0.000 C 
ATOM     17  C   UNL     1       2.513   4.729  19.512  0.00  0.00    +0.000 C 
ATOM     18  H   UNL     1       4.627   1.921  16.920  0.00  0.00    +0.000 HD
ENDBRANCH   1  17
BRANCH   3  19
ATOM     19  C   UNL     1       0.783   8.988  21.606  0.00  0.00    +0.000 C 
ATOM     20  C   UNL     1       0.106  10.110  21.299  0.00  0.00    +0.000 C 
BRANCH  20  21
ATOM     21  C   UNL     1      -0.403  11.039  22.335  0.00  0.00    +0.000 C 
ATOM     22  O   UNL     1      -0.459  10.693  23.512  0.00  0.00    +0.000 OA
ATOM     23  N   UNL     1      -0.734  12.306  21.906  0.00  0.00    +0.000 N 
ATOM     24  C   UNL     1      -0.875  12.818  20.551  0.00  0.00    +0.000 C 
ATOM     25  C   UNL     1      -0.560  14.292  20.711  0.00  0.00    +0.000 C 
ATOM     26  C   UNL     1      -1.172  14.633  22.065  0.00  0.00    +0.000 C 
ATOM     27  C   UNL     1      -1.075  13.338  22.870  0.00  0.00    +0.000 C 
ENDBRANCH  20  21
ENDBRANCH   3  19
TORSDOF 3
ENDMDL
MODEL 8
REMARK VINA RESULT:      -7.5      5.595      8.633
REMARK  Name = 
REMARK  3 active torsions:
REMARK  status: ('A' for Active; 'I' for Inactive)
REMARK    1  A    between atoms: C_12  and  C_13
REMARK    2  A    between atoms: C_15  and  C_16
REMARK    3  A    between atoms: C_17  and  C_18
REMARK                            x       y       z     vdW  Elec       q    Type
REMARK                         _______ _______ _______ _____ _____    ______ ____
ROOT
ATOM      1  C   UNL     1       2.286   8.276  18.742  0.00  0.00    +0.000 A 
ATOM      2  C   UNL     1       1.407   9.309  18.456  0.00  0.00    +0.000 A 
ATOM      3  C   UNL     1       0.532   9.652  19.524  0.00  0.00    +0.000 A 
ATOM      4  C   UNL     1       0.720   8.809  20.596  0.00  0.00    +0.000 A 
ATOM      5  S   UNL     1       1.953   7.648  20.305  0.00  0.00    +0.000 S 
ENDROOT
BRANCH   1  17
ATOM      6  O   UNL     1       5.331   6.389  16.403  0.00  0.00    +0.000 OA
ATOM      7  C   UNL     1       4.454   5.766  16.988  0.00  0.00    +0.000 C 
ATOM      8  N   UNL     1       4.588   4.436  17.300  0.00  0.00    +0.000 N 
ATOM      9  C   UNL     1       3.553   3.693  17.877  0.00  0.00    +0.000 A 
ATOM     10  C   UNL     1       3.753   2.371  18.264  0.00  0.00    +0.000 A 
ATOM     11  C   UNL     1       2.678   1.632  18.768  0.00  0.00    +0.000 A 
ATOM     12  C   UNL     1       1.407   2.206  18.862  0.00  0.00    +0.000 A 
ATOM     13  C   UNL     1       1.216   3.537  18.496  0.00  0.00    +0.000 A 
ATOM     14  C   UNL     1       2.298   4.282  18.030  0.00  0.00    +0.000 A 
ATOM     15  O   UNL     1       2.083   5.607  17.759  0.00  0.00    +0.000 OA
ATOM     16  C   UNL     1       3.206   6.393  17.524  0.00  0.00    +0.000 C 
ATOM     17  C   UNL     1       3.276   7.685  17.899  0.00  0.00    +0.000 C 
ATOM     18  H   UNL     1       5.470   4.002  17.065  0.00  0.00    +0.000 HD
ENDBRANCH   1  17
BRANCH   3  19
ATOM     19  C   UNL     1      -0.418  10.729  19.515  0.00  0.00    +0.000 C 
ATOM     20  C   UNL     1      -0.957  11.265  20.626  0.00  0.00    +0.000 C 
BRANCH  20  21
ATOM     21  C   UNL     1      -2.017  12.298  20.574  0.00  0.00    +0.000 C 
ATOM     22  O   UNL     1      -2.361  12.790  19.503  0.00  0.00    +0.000 OA
ATOM     23  N   UNL     1      -2.622  12.609  21.772  0.00  0.00    +0.000 N 
ATOM     24  C   UNL     1      -2.236  12.245  23.128  0.00  0.00    +0.000 C 
ATOM     25  C   UNL     1      -3.556  12.257  23.872  0.00  0.00    +0.000 C 
ATOM     26  C   UNL     1      -4.301  13.426  23.238  0.00  0.00    +0.000 C 
ATOM     27  C   UNL     1      -3.787  13.478  21.800  0.00  0.00    +0.000 C 
ENDBRANCH  20  21
ENDBRANCH   3  19
TORSDOF 3
ENDMDL
MODEL 9
REMARK VINA RESULT:      -7.4      6.249      9.717
REMARK  Name = 
REMARK  3 active torsions:
REMARK  status: ('A' for Active; 'I' for Inactive)
REMARK    1  A    between atoms: C_12  and  C_13
REMARK    2  A    between atoms: C_15  and  C_16
REMARK    3  A    between atoms: C_17  and  C_18
REMARK                            x       y       z     vdW  Elec       q    Type
REMARK                         _______ _______ _______ _____ _____    ______ ____
ROOT
ATOM      1  C   UNL     1       0.934   9.761  20.129  0.00  0.00    +0.000 A 
ATOM      2  C   UNL     1       1.753   8.890  19.429  0.00  0.00    +0.000 A 
ATOM      3  C   UNL     1       1.943   7.627  20.055  0.00  0.00    +0.000 A 
ATOM      4  C   UNL     1       1.309   7.589  21.276  0.00  0.00    +0.000 A 
ATOM      5  S   UNL     1       0.485   9.054  21.629  0.00  0.00    +0.000 S 
ENDROOT
BRANCH   1  17
ATOM      6  O   UNL     1      -0.160  13.709  18.897  0.00  0.00    +0.000 OA
ATOM      7  C   UNL     1      -0.730  12.701  18.498  0.00  0.00    +0.000 C 
ATOM      8  N   UNL     1      -1.467  12.690  17.339  0.00  0.00    +0.000 N 
ATOM      9  C   UNL     1      -2.202  11.573  16.929  0.00  0.00    +0.000 A 
ATOM     10  C   UNL     1      -2.864  11.564  15.704  0.00  0.00    +0.000 A 
ATOM     11  C   UNL     1      -3.652  10.463  15.356  0.00  0.00    +0.000 A 
ATOM     12  C   UNL     1      -3.795   9.388  16.239  0.00  0.00    +0.000 A 
ATOM     13  C   UNL     1      -3.112   9.390  17.455  0.00  0.00    +0.000 A 
ATOM     14  C   UNL     1      -2.297  10.472  17.780  0.00  0.00    +0.000 A 
ATOM     15  O   UNL     1      -1.581  10.396  18.946  0.00  0.00    +0.000 OA
ATOM     16  C   UNL     1      -0.601  11.361  19.148  0.00  0.00    +0.000 C 
ATOM     17  C   UNL     1       0.552  11.095  19.792  0.00  0.00    +0.000 C 
ATOM     18  H   UNL     1      -1.479  13.545  16.801  0.00  0.00    +0.000 HD
ENDBRANCH   1  17
BRANCH   3  19
ATOM     19  C   UNL     1       2.680   6.523  19.507  0.00  0.00    +0.000 C 
ATOM     20  C   UNL     1       2.791   6.272  18.189  0.00  0.00    +0.000 C 
BRANCH  20  21
ATOM     21  C   UNL     1       3.465   5.061  17.666  0.00  0.00    +0.000 C 
ATOM     22  O   UNL     1       4.494   5.154  17.003  0.00  0.00    +0.000 OA
ATOM     23  N   UNL     1       2.909   3.852  18.025  0.00  0.00    +0.000 N 
ATOM     24  C   UNL     1       1.628   3.573  18.659  0.00  0.00    +0.000 C 
ATOM     25  C   UNL     1       1.886   2.269  19.386  0.00  0.00    +0.000 C 
ATOM     26  C   UNL     1       2.808   1.517  18.432  0.00  0.00    +0.000 C 
ATOM     27  C   UNL     1       3.593   2.610  17.710  0.00  0.00    +0.000 C 
ENDBRANCH  20  21
ENDBRANCH   3  19
TORSDOF 3
ENDMDL
