MODEL 1
REMARK VINA RESULT:      -8.3      0.000      0.000
REMARK  Name = 
REMARK  9 active torsions:
REMARK  status: ('A' for Active; 'I' for Inactive)
REMARK    1  A    between atoms: C_1  and  C_2
REMARK    2  A    between atoms: C_2  and  C_3
REMARK    3  A    between atoms: C_2  and  N_4
REMARK    4  A    between atoms: C_6  and  C_7
REMARK    5  A    between atoms: C_7  and  C_9
REMARK    6  A    between atoms: C_13  and  N_14
REMARK    7  A    between atoms: C_15  and  C_17
REMARK    8  A    between atoms: C_17  and  C_18
REMARK    9  A    between atoms: C_21  and  C_22
REMARK                            x       y       z     vdW  Elec       q    Type
REMARK                         _______ _______ _______ _____ _____    ______ ____
ROOT
ATOM      1  C   UNL     1      -1.794  12.037  21.798  0.00  0.00    +0.000 A 
ATOM      2  C   UNL     1      -1.346  11.647  23.053  0.00  0.00    +0.000 A 
ATOM      3  N   UNL     1      -0.454  10.658  23.251  0.00  0.00    +0.000 NA
ATOM      4  C   UNL     1       0.002  10.019  22.144  0.00  0.00    +0.000 A 
ATOM      5  C   UNL     1      -0.398  10.305  20.836  0.00  0.00    +0.000 A 
ATOM      6  C   UNL     1      -1.340  11.327  20.674  0.00  0.00    +0.000 A 
ENDROOT
BRANCH   5   7
ATOM      7  N   UNL     1       0.100   9.622  19.701  0.00  0.00    +0.000 N 
ATOM      8  C   UNL     1       1.145  10.080  18.905  0.00  0.00    +0.000 C 
ATOM      9  O   UNL     1       1.732  11.151  19.054  0.00  0.00    +0.000 OA
ATOM     10  H   UNL     1      -0.420   8.815  19.376  0.00  0.00    +0.000 HD
BRANCH   8  11
ATOM     11  C   UNL     1       1.497   9.179  17.732  0.00  0.00    +0.000 C 
BRANCH  11  12
ATOM     12  C   UNL     1       2.379   8.030  18.156  0.00  0.00    +0.000 A 
ATOM     13  C   UNL     1       3.459   7.629  17.353  0.00  0.00    +0.000 A 
ATOM     14  C   UNL     1       4.225   6.513  17.696  0.00  0.00    +0.000 A 
ATOM     15  C   UNL     1       3.933   5.796  18.856  0.00  0.00    +0.000 A 
ATOM     16  C   UNL     1       2.885   6.215  19.686  0.00  0.00    +0.000 A 
ATOM     17  C   UNL     1       2.116   7.329  19.338  0.00  0.00    +0.000 A 
BRANCH  15  18
ATOM     18  C   UNL     1       4.689   4.625  19.195  0.00  0.00    +0.000 C 
ATOM     19  N   UNL     1       5.296   3.668  19.467  0.00  0.00    +0.000 NA
ENDBRANCH  15  18
ENDBRANCH  11  12
ENDBRANCH   8  11
ENDBRANCH   5   7
BRANCH   1  20
ATOM     20  C   UNL     1      -2.771  13.143  21.661  0.00  0.00    +0.000 C 
ATOM     21  O   UNL     1      -2.360  14.294  21.798  0.00  0.00    +0.000 OA
BRANCH  20  24
ATOM     22  N   UNL     1      -6.061  12.271  20.275  0.00  0.00    +0.000 N 
ATOM     23  C   UNL     1      -4.707  12.484  20.130  0.00  0.00    +0.000 A 
ATOM     24  C   UNL     1      -4.175  12.846  21.363  0.00  0.00    +0.000 A 
ATOM     25  C   UNL     1      -5.269  12.837  22.291  0.00  0.00    +0.000 A 
ATOM     26  C   UNL     1      -5.442  13.124  23.657  0.00  0.00    +0.000 A 
ATOM     27  N   UNL     1      -4.429  13.586  24.475  0.00  0.00    +0.000 N 
ATOM     28  N   UNL     1      -6.670  12.998  24.200  0.00  0.00    +0.000 NA
ATOM     29  C   UNL     1      -7.688  12.633  23.399  0.00  0.00    +0.000 A 
ATOM     30  N   UNL     1      -7.654  12.364  22.084  0.00  0.00    +0.000 NA
ATOM     31  C   UNL     1      -6.413  12.483  21.585  0.00  0.00    +0.000 A 
ATOM     32  H   UNL     1      -3.471  13.418  24.175  0.00  0.00    +0.000 HD
ATOM     33  H   UNL     1      -4.639  13.570  25.463  0.00  0.00    +0.000 HD
BRANCH  22  35
ATOM     34  C   UNL     1      -6.885  12.713  17.969  0.00  0.00    +0.000 C 
ATOM     35  C   UNL     1      -6.976  11.836  19.219  0.00  0.00    +0.000 C 
ATOM     36  C   UNL     1      -6.759  10.361  18.878  0.00  0.00    +0.000 C 
ENDBRANCH  22  35
ENDBRANCH  20  24
ENDBRANCH   1  20
TORSDOF 7
ENDMDL
MODEL 2
REMARK VINA RESULT:      -8.2      2.409      4.126
REMARK  Name = 
REMARK  9 active torsions:
REMARK  status: ('A' for Active; 'I' for Inactive)
REMARK    1  A    between atoms: C_1  and  C_2
REMARK    2  A    between atoms: C_2  and  C_3
REMARK    3  A    between atoms: C_2  and  N_4
REMARK    4  A    between atoms: C_6  and  C_7
REMARK    5  A    between atoms: C_7  and  C_9
REMARK    6  A    between atoms: C_13  and  N_14
REMARK    7  A    between atoms: C_15  and  C_17
REMARK    8  A    between atoms: C_17  and  C_18
REMARK    9  A    between atoms: C_21  and  C_22
REMARK                            x       y       z     vdW  Elec       q    Type
REMARK                         _______ _______ _______ _____ _____    ______ ____
ROOT
ATOM      1  C   UNL     1      -0.221  10.762  20.629  0.00  0.00    +0.000 A 
ATOM      2  C   UNL     1      -0.114  11.207  21.941  0.00  0.00    +0.000 A 
ATOM      3  N   UNL     1       0.366  10.450  22.946  0.00  0.00    +0.000 NA
ATOM      4  C   UNL     1       0.745   9.186  22.629  0.00  0.00    +0.000 A 
ATOM      5  C   UNL     1       0.658   8.623  21.354  0.00  0.00    +0.000 A 
ATOM      6  C   UNL     1       0.136   9.435  20.341  0.00  0.00    +0.000 A 
ENDROOT
BRANCH   5   7
ATOM      7  N   UNL     1       1.066   7.301  21.056  0.00  0.00    +0.000 N 
ATOM      8  C   UNL     1       1.941   6.964  20.028  0.00  0.00    +0.000 C 
ATOM      9  O   UNL     1       2.430   7.756  19.223  0.00  0.00    +0.000 OA
ATOM     10  H   UNL     1       0.593   6.546  21.538  0.00  0.00    +0.000 HD
BRANCH   8  11
ATOM     11  C   UNL     1       2.223   5.476  19.893  0.00  0.00    +0.000 C 
BRANCH  11  12
ATOM     12  C   UNL     1       3.416   5.212  19.007  0.00  0.00    +0.000 A 
ATOM     13  C   UNL     1       4.718   5.296  19.525  0.00  0.00    +0.000 A 
ATOM     14  C   UNL     1       5.828   5.139  18.691  0.00  0.00    +0.000 A 
ATOM     15  C   UNL     1       5.648   4.875  17.333  0.00  0.00    +0.000 A 
ATOM     16  C   UNL     1       4.352   4.746  16.817  0.00  0.00    +0.000 A 
ATOM     17  C   UNL     1       3.243   4.909  17.651  0.00  0.00    +0.000 A 
BRANCH  15  18
ATOM     18  C   UNL     1       6.780   4.751  16.462  0.00  0.00    +0.000 C 
ATOM     19  N   UNL     1       7.704   4.644  15.760  0.00  0.00    +0.000 NA
ENDBRANCH  15  18
ENDBRANCH  11  12
ENDBRANCH   8  11
ENDBRANCH   5   7
BRANCH   1  20
ATOM     20  C   UNL     1      -0.751  11.658  19.575  0.00  0.00    +0.000 C 
ATOM     21  O   UNL     1       0.043  12.112  18.753  0.00  0.00    +0.000 OA
BRANCH  20  24
ATOM     22  N   UNL     1      -4.229  12.727  20.089  0.00  0.00    +0.000 N 
ATOM     23  C   UNL     1      -2.929  12.600  20.524  0.00  0.00    +0.000 A 
ATOM     24  C   UNL     1      -2.182  11.971  19.533  0.00  0.00    +0.000 A 
ATOM     25  C   UNL     1      -3.087  11.720  18.447  0.00  0.00    +0.000 A 
ATOM     26  C   UNL     1      -3.009  11.108  17.184  0.00  0.00    +0.000 A 
ATOM     27  N   UNL     1      -1.868  10.498  16.700  0.00  0.00    +0.000 N 
ATOM     28  N   UNL     1      -4.114  11.060  16.413  0.00  0.00    +0.000 NA
ATOM     29  C   UNL     1      -5.259  11.572  16.903  0.00  0.00    +0.000 A 
ATOM     30  N   UNL     1      -5.464  12.149  18.098  0.00  0.00    +0.000 NA
ATOM     31  C   UNL     1      -4.337  12.195  18.827  0.00  0.00    +0.000 A 
ATOM     32  H   UNL     1      -0.980  10.765  17.119  0.00  0.00    +0.000 HD
ATOM     33  H   UNL     1      -1.893  10.269  15.715  0.00  0.00    +0.000 HD
BRANCH  22  35
ATOM     34  C   UNL     1      -5.367  12.943  22.292  0.00  0.00    +0.000 C 
ATOM     35  C   UNL     1      -5.318  13.372  20.824  0.00  0.00    +0.000 C 
ATOM     36  C   UNL     1      -5.243  14.894  20.695  0.00  0.00    +0.000 C 
ENDBRANCH  22  35
ENDBRANCH  20  24
ENDBRANCH   1  20
TORSDOF 7
ENDMDL
MODEL 3
REMARK VINA RESULT:      -8.2      2.347     10.832
REMARK  Name = 
REMARK  9 active torsions:
REMARK  status: ('A' for Active; 'I' for Inactive)
REMARK    1  A    between atoms: C_1  and  C_2
REMARK    2  A    between atoms: C_2  and  C_3
REMARK    3  A    between atoms: C_2  and  N_4
REMARK    4  A    between atoms: C_6  and  C_7
REMARK    5  A    between atoms: C_7  and  C_9
REMARK    6  A    between atoms: C_13  and  N_14
REMARK    7  A    between atoms: C_15  and  C_17
REMARK    8  A    between atoms: C_17  and  C_18
REMARK    9  A    between atoms: C_21  and  C_22
REMARK                            x       y       z     vdW  Elec       q    Type
REMARK                         _______ _______ _______ _____ _____    ______ ____
ROOT
ATOM      1  C   UNL     1       1.882   7.983  19.382  0.00  0.00    +0.000 A 
ATOM      2  C   UNL     1       2.044   8.257  18.031  0.00  0.00    +0.000 A 
ATOM      3  N   UNL     1       1.859   9.478  17.491  0.00  0.00    +0.000 NA
ATOM      4  C   UNL     1       1.484  10.467  18.339  0.00  0.00    +0.000 A 
ATOM      5  C   UNL     1       1.264  10.304  19.709  0.00  0.00    +0.000 A 
ATOM      6  C   UNL     1       1.448   9.017  20.228  0.00  0.00    +0.000 A 
ENDROOT
BRANCH   5   7
ATOM      7  N   UNL     1       0.876  11.359  20.568  0.00  0.00    +0.000 N 
ATOM      8  C   UNL     1      -0.430  11.818  20.706  0.00  0.00    +0.000 C 
ATOM      9  O   UNL     1      -1.399  11.404  20.071  0.00  0.00    +0.000 OA
ATOM     10  H   UNL     1       1.613  11.896  21.011  0.00  0.00    +0.000 HD
BRANCH   8  11
ATOM     11  C   UNL     1      -0.601  12.972  21.681  0.00  0.00    +0.000 C 
BRANCH  11  12
ATOM     12  C   UNL     1      -1.998  13.018  22.252  0.00  0.00    +0.000 A 
ATOM     13  C   UNL     1      -2.336  12.236  23.368  0.00  0.00    +0.000 A 
ATOM     14  C   UNL     1      -3.648  12.208  23.847  0.00  0.00    +0.000 A 
ATOM     15  C   UNL     1      -4.633  12.978  23.229  0.00  0.00    +0.000 A 
ATOM     16  C   UNL     1      -4.295  13.795  22.142  0.00  0.00    +0.000 A 
ATOM     17  C   UNL     1      -2.983  13.817  21.660  0.00  0.00    +0.000 A 
BRANCH  15  18
ATOM     18  C   UNL     1      -5.990  12.925  23.689  0.00  0.00    +0.000 C 
ATOM     19  N   UNL     1      -7.090  12.874  24.068  0.00  0.00    +0.000 NA
ENDBRANCH  15  18
ENDBRANCH  11  12
ENDBRANCH   8  11
ENDBRANCH   5   7
BRANCH   1  20
ATOM     20  C   UNL     1       2.113   6.615  19.902  0.00  0.00    +0.000 C 
ATOM     21  O   UNL     1       1.606   6.317  20.982  0.00  0.00    +0.000 OA
BRANCH  20  24
ATOM     22  N   UNL     1       4.539   4.777  17.844  0.00  0.00    +0.000 N 
ATOM     23  C   UNL     1       4.074   5.944  18.408  0.00  0.00    +0.000 A 
ATOM     24  C   UNL     1       2.918   5.665  19.130  0.00  0.00    +0.000 A 
ATOM     25  C   UNL     1       2.691   4.254  18.994  0.00  0.00    +0.000 A 
ATOM     26  C   UNL     1       1.716   3.339  19.428  0.00  0.00    +0.000 A 
ATOM     27  N   UNL     1       0.593   3.701  20.144  0.00  0.00    +0.000 N 
ATOM     28  N   UNL     1       1.844   2.040  19.089  0.00  0.00    +0.000 NA
ATOM     29  C   UNL     1       2.887   1.681  18.317  0.00  0.00    +0.000 A 
ATOM     30  N   UNL     1       3.858   2.462  17.818  0.00  0.00    +0.000 NA
ATOM     31  C   UNL     1       3.706   3.743  18.194  0.00  0.00    +0.000 A 
ATOM     32  H   UNL     1       0.620   4.588  20.642  0.00  0.00    +0.000 HD
ATOM     33  H   UNL     1       0.079   2.931  20.551  0.00  0.00    +0.000 HD
BRANCH  22  35
ATOM     34  C   UNL     1       5.667   5.391  15.712  0.00  0.00    +0.000 C 
ATOM     35  C   UNL     1       5.756   4.641  17.042  0.00  0.00    +0.000 C 
ATOM     36  C   UNL     1       6.989   5.069  17.838  0.00  0.00    +0.000 C 
ENDBRANCH  22  35
ENDBRANCH  20  24
ENDBRANCH   1  20
TORSDOF 7
ENDMDL
MODEL 4
REMARK VINA RESULT:      -8.0      2.277     10.823
REMARK  Name = 
REMARK  9 active torsions:
REMARK  status: ('A' for Active; 'I' for Inactive)
REMARK    1  A    between atoms: C_1  and  C_2
REMARK    2  A    between atoms: C_2  and  C_3
REMARK    3  A    between atoms: C_2  and  N_4
REMARK    4  A    between atoms: C_6  and  C_7
REMARK    5  A    between atoms: C_7  and  C_9
REMARK    6  A    between atoms: C_13  and  N_14
REMARK    7  A    between atoms: C_15  and  C_17
REMARK    8  A    between atoms: C_17  and  C_18
REMARK    9  A    between atoms: C_21  and  C_22
REMARK                            x       y       z     vdW  Elec       q    Type
REMARK                         _______ _______ _______ _____ _____    ______ ____
ROOT
ATOM      1  C   UNL     1       1.909   7.932  19.430  0.00  0.00    +0.000 A 
ATOM      2  C   UNL     1       2.151   8.248  18.100  0.00  0.00    +0.000 A 
ATOM      3  N   UNL     1       1.914   9.462  17.568  0.00  0.00    +0.000 NA
ATOM      4  C   UNL     1       1.402  10.402  18.401  0.00  0.00    +0.000 A 
ATOM      5  C   UNL     1       1.093  10.193  19.747  0.00  0.00    +0.000 A 
ATOM      6  C   UNL     1       1.335   8.912  20.257  0.00  0.00    +0.000 A 
ENDROOT
BRANCH   5   7
ATOM      7  N   UNL     1       0.562  11.197  20.591  0.00  0.00    +0.000 N 
ATOM      8  C   UNL     1      -0.250  10.948  21.693  0.00  0.00    +0.000 C 
ATOM      9  O   UNL     1      -0.648   9.838  22.043  0.00  0.00    +0.000 OA
ATOM     10  H   UNL     1       0.676  12.161  20.298  0.00  0.00    +0.000 HD
BRANCH   8  11
ATOM     11  C   UNL     1      -0.709  12.189  22.441  0.00  0.00    +0.000 C 
BRANCH  11  12
ATOM     12  C   UNL     1      -2.200  12.394  22.320  0.00  0.00    +0.000 A 
ATOM     13  C   UNL     1      -2.788  12.609  21.063  0.00  0.00    +0.000 A 
ATOM     14  C   UNL     1      -4.153  12.885  20.954  0.00  0.00    +0.000 A 
ATOM     15  C   UNL     1      -4.949  12.930  22.099  0.00  0.00    +0.000 A 
ATOM     16  C   UNL     1      -4.378  12.674  23.352  0.00  0.00    +0.000 A 
ATOM     17  C   UNL     1      -3.012  12.403  23.460  0.00  0.00    +0.000 A 
BRANCH  15  18
ATOM     18  C   UNL     1      -6.343  13.253  22.000  0.00  0.00    +0.000 C 
ATOM     19  N   UNL     1      -7.475  13.521  21.928  0.00  0.00    +0.000 NA
ENDBRANCH  15  18
ENDBRANCH  11  12
ENDBRANCH   8  11
ENDBRANCH   5   7
BRANCH   1  20
ATOM     20  C   UNL     1       2.204   6.575  19.945  0.00  0.00    +0.000 C 
ATOM     21  O   UNL     1       1.758   6.268  21.049  0.00  0.00    +0.000 OA
BRANCH  20  24
ATOM     22  N   UNL     1       4.605   4.784  17.816  0.00  0.00    +0.000 N 
ATOM     23  C   UNL     1       4.152   5.936  18.421  0.00  0.00    +0.000 A 
ATOM     24  C   UNL     1       2.997   5.643  19.138  0.00  0.00    +0.000 A 
ATOM     25  C   UNL     1       2.757   4.240  18.957  0.00  0.00    +0.000 A 
ATOM     26  C   UNL     1       1.775   3.319  19.365  0.00  0.00    +0.000 A 
ATOM     27  N   UNL     1       0.658   3.668  20.098  0.00  0.00    +0.000 N 
ATOM     28  N   UNL     1       1.891   2.031  18.983  0.00  0.00    +0.000 NA
ATOM     29  C   UNL     1       2.927   1.688  18.194  0.00  0.00    +0.000 A 
ATOM     30  N   UNL     1       3.903   2.477  17.718  0.00  0.00    +0.000 NA
ATOM     31  C   UNL     1       3.764   3.746  18.135  0.00  0.00    +0.000 A 
ATOM     32  H   UNL     1       0.695   4.538  20.624  0.00  0.00    +0.000 HD
ATOM     33  H   UNL     1       0.140   2.889  20.481  0.00  0.00    +0.000 HD
BRANCH  22  35
ATOM     34  C   UNL     1       5.653   5.278  15.614  0.00  0.00    +0.000 C 
ATOM     35  C   UNL     1       5.817   4.663  17.005  0.00  0.00    +0.000 C 
ATOM     36  C   UNL     1       7.026   5.253  17.732  0.00  0.00    +0.000 C 
ENDBRANCH  22  35
ENDBRANCH  20  24
ENDBRANCH   1  20
TORSDOF 7
ENDMDL
MODEL 5
REMARK VINA RESULT:      -8.0      2.404      3.972
REMARK  Name = 
REMARK  9 active torsions:
REMARK  status: ('A' for Active; 'I' for Inactive)
REMARK    1  A    between atoms: C_1  and  C_2
REMARK    2  A    between atoms: C_2  and  C_3
REMARK    3  A    between atoms: C_2  and  N_4
REMARK    4  A    between atoms: C_6  and  C_7
REMARK    5  A    between atoms: C_7  and  C_9
REMARK    6  A    between atoms: C_13  and  N_14
REMARK    7  A    between atoms: C_15  and  C_17
REMARK    8  A    between atoms: C_17  and  C_18
REMARK    9  A    between atoms: C_21  and  C_22
REMARK                            x       y       z     vdW  Elec       q    Type
REMARK                         _______ _______ _______ _____ _____    ______ ____
ROOT
ATOM      1  C   UNL     1      -0.811  11.196  21.189  0.00  0.00    +0.000 A 
ATOM      2  C   UNL     1      -0.877  11.453  22.552  0.00  0.00    +0.000 A 
ATOM      3  N   UNL     1      -0.513  10.564  23.497  0.00  0.00    +0.000 NA
ATOM      4  C   UNL     1      -0.074   9.358  23.059  0.00  0.00    +0.000 A 
ATOM      5  C   UNL     1       0.008   8.976  21.718  0.00  0.00    +0.000 A 
ATOM      6  C   UNL     1      -0.397   9.921  20.768  0.00  0.00    +0.000 A 
ENDROOT
BRANCH   5   7
ATOM      7  N   UNL     1       0.475   7.709  21.295  0.00  0.00    +0.000 N 
ATOM      8  C   UNL     1       1.617   7.510  20.525  0.00  0.00    +0.000 C 
ATOM      9  O   UNL     1       2.334   8.403  20.076  0.00  0.00    +0.000 OA
ATOM     10  H   UNL     1      -0.130   6.912  21.454  0.00  0.00    +0.000 HD
BRANCH   8  11
ATOM     11  C   UNL     1       1.911   6.058  20.184  0.00  0.00    +0.000 C 
BRANCH  11  12
ATOM     12  C   UNL     1       3.083   5.933  19.241  0.00  0.00    +0.000 A 
ATOM     13  C   UNL     1       4.280   5.338  19.670  0.00  0.00    +0.000 A 
ATOM     14  C   UNL     1       5.396   5.297  18.831  0.00  0.00    +0.000 A 
ATOM     15  C   UNL     1       5.322   5.834  17.545  0.00  0.00    +0.000 A 
ATOM     16  C   UNL     1       4.118   6.390  17.094  0.00  0.00    +0.000 A 
ATOM     17  C   UNL     1       3.004   6.435  17.937  0.00  0.00    +0.000 A 
BRANCH  15  18
ATOM     18  C   UNL     1       6.474   5.833  16.691  0.00  0.00    +0.000 C 
ATOM     19  N   UNL     1       7.415   5.837  16.004  0.00  0.00    +0.000 NA
ENDBRANCH  15  18
ENDBRANCH  11  12
ENDBRANCH   8  11
ENDBRANCH   5   7
BRANCH   1  20
ATOM     20  C   UNL     1      -1.221  12.229  20.210  0.00  0.00    +0.000 C 
ATOM     21  O   UNL     1      -0.407  13.106  19.924  0.00  0.00    +0.000 OA
BRANCH  20  24
ATOM     22  N   UNL     1      -4.766  12.454  19.269  0.00  0.00    +0.000 N 
ATOM     23  C   UNL     1      -3.734  12.682  20.154  0.00  0.00    +0.000 A 
ATOM     24  C   UNL     1      -2.557  12.179  19.610  0.00  0.00    +0.000 A 
ATOM     25  C   UNL     1      -2.906  11.632  18.330  0.00  0.00    +0.000 A 
ATOM     26  C   UNL     1      -2.230  10.962  17.296  0.00  0.00    +0.000 A 
ATOM     27  N   UNL     1      -0.895  10.613  17.356  0.00  0.00    +0.000 N 
ATOM     28  N   UNL     1      -2.921  10.586  16.200  0.00  0.00    +0.000 NA
ATOM     29  C   UNL     1      -4.243  10.840  16.161  0.00  0.00    +0.000 A 
ATOM     30  N   UNL     1      -5.000  11.440  17.092  0.00  0.00    +0.000 NA
ATOM     31  C   UNL     1      -4.273  11.816  18.157  0.00  0.00    +0.000 A 
ATOM     32  H   UNL     1      -0.307  11.120  18.014  0.00  0.00    +0.000 HD
ATOM     33  H   UNL     1      -0.494  10.309  16.479  0.00  0.00    +0.000 HD
BRANCH  22  35
ATOM     34  C   UNL     1      -6.806  12.213  20.672  0.00  0.00    +0.000 C 
ATOM     35  C   UNL     1      -6.157  12.869  19.453  0.00  0.00    +0.000 C 
ATOM     36  C   UNL     1      -6.272  14.392  19.516  0.00  0.00    +0.000 C 
ENDBRANCH  22  35
ENDBRANCH  20  24
ENDBRANCH   1  20
TORSDOF 7
ENDMDL
MODEL 6
REMARK VINA RESULT:      -8.0      2.462      4.015
REMARK  Name = 
REMARK  9 active torsions:
REMARK  status: ('A' for Active; 'I' for Inactive)
REMARK    1  A    between atoms: C_1  and  C_2
REMARK    2  A    between atoms: C_2  and  C_3
REMARK    3  A    between atoms: C_2  and  N_4
REMARK    4  A    between atoms: C_6  and  C_7
REMARK    5  A    between atoms: C_7  and  C_9
REMARK    6  A    between atoms: C_13  and  N_14
REMARK    7  A    between atoms: C_15  and  C_17
REMARK    8  A    between atoms: C_17  and  C_18
REMARK    9  A    between atoms: C_21  and  C_22
REMARK                            x       y       z     vdW  Elec       q    Type
REMARK                         _______ _______ _______ _____ _____    ______ ____
ROOT
ATOM      1  C   UNL     1      -4.482  11.374  17.553  0.00  0.00    +0.000 A 
ATOM      2  C   UNL     1      -4.244  11.255  16.190  0.00  0.00    +0.000 A 
ATOM      3  N   UNL     1      -3.105  10.752  15.675  0.00  0.00    +0.000 NA
ATOM      4  C   UNL     1      -2.156  10.360  16.561  0.00  0.00    +0.000 A 
ATOM      5  C   UNL     1      -2.273  10.458  17.950  0.00  0.00    +0.000 A 
ATOM      6  C   UNL     1      -3.463  11.004  18.446  0.00  0.00    +0.000 A 
ENDROOT
BRANCH   5   7
ATOM      7  N   UNL     1      -1.264  10.037  18.849  0.00  0.00    +0.000 N 
ATOM      8  C   UNL     1      -0.220  10.843  19.290  0.00  0.00    +0.000 C 
ATOM      9  O   UNL     1      -0.011  11.998  18.922  0.00  0.00    +0.000 OA
ATOM     10  H   UNL     1      -1.230   9.051  19.083  0.00  0.00    +0.000 HD
BRANCH   8  11
ATOM     11  C   UNL     1       0.750  10.165  20.245  0.00  0.00    +0.000 C 
BRANCH  11  12
ATOM     12  C   UNL     1       1.419   8.972  19.607  0.00  0.00    +0.000 A 
ATOM     13  C   UNL     1       1.635   7.799  20.347  0.00  0.00    +0.000 A 
ATOM     14  C   UNL     1       2.332   6.724  19.790  0.00  0.00    +0.000 A 
ATOM     15  C   UNL     1       2.802   6.801  18.479  0.00  0.00    +0.000 A 
ATOM     16  C   UNL     1       2.552   7.951  17.719  0.00  0.00    +0.000 A 
ATOM     17  C   UNL     1       1.861   9.028  18.280  0.00  0.00    +0.000 A 
BRANCH  15  18
ATOM     18  C   UNL     1       3.552   5.718  17.912  0.00  0.00    +0.000 C 
ATOM     19  N   UNL     1       4.153   4.834  17.450  0.00  0.00    +0.000 NA
ENDBRANCH  15  18
ENDBRANCH  11  12
ENDBRANCH   8  11
ENDBRANCH   5   7
BRANCH   1  20
ATOM     20  C   UNL     1      -5.764  11.930  18.044  0.00  0.00    +0.000 C 
ATOM     21  O   UNL     1      -6.732  11.902  17.286  0.00  0.00    +0.000 OA
BRANCH  20  24
ATOM     22  N   UNL     1      -5.607  13.833  21.184  0.00  0.00    +0.000 N 
ATOM     23  C   UNL     1      -5.270  13.658  19.859  0.00  0.00    +0.000 A 
ATOM     24  C   UNL     1      -5.851  12.481  19.399  0.00  0.00    +0.000 A 
ATOM     25  C   UNL     1      -6.580  11.933  20.508  0.00  0.00    +0.000 A 
ATOM     26  C   UNL     1      -7.351  10.781  20.743  0.00  0.00    +0.000 A 
ATOM     27  N   UNL     1      -7.539   9.783  19.807  0.00  0.00    +0.000 N 
ATOM     28  N   UNL     1      -7.900  10.601  21.961  0.00  0.00    +0.000 NA
ATOM     29  C   UNL     1      -7.656  11.520  22.914  0.00  0.00    +0.000 A 
ATOM     30  N   UNL     1      -6.917  12.637  22.820  0.00  0.00    +0.000 NA
ATOM     31  C   UNL     1      -6.404  12.790  21.588  0.00  0.00    +0.000 A 
ATOM     32  H   UNL     1      -7.386  10.022  18.829  0.00  0.00    +0.000 HD
ATOM     33  H   UNL     1      -8.260   9.113  20.037  0.00  0.00    +0.000 HD
BRANCH  22  35
ATOM     34  C   UNL     1      -3.761  14.914  22.455  0.00  0.00    +0.000 C 
ATOM     35  C   UNL     1      -5.227  14.972  22.020  0.00  0.00    +0.000 C 
ATOM     36  C   UNL     1      -5.545  16.296  21.323  0.00  0.00    +0.000 C 
ENDBRANCH  22  35
ENDBRANCH  20  24
ENDBRANCH   1  20
TORSDOF 7
ENDMDL
MODEL 7
REMARK VINA RESULT:      -8.0      2.515      4.092
REMARK  Name = 
REMARK  9 active torsions:
REMARK  status: ('A' for Active; 'I' for Inactive)
REMARK    1  A    between atoms: C_1  and  C_2
REMARK    2  A    between atoms: C_2  and  C_3
REMARK    3  A    between atoms: C_2  and  N_4
REMARK    4  A    between atoms: C_6  and  C_7
REMARK    5  A    between atoms: C_7  and  C_9
REMARK    6  A    between atoms: C_13  and  N_14
REMARK    7  A    between atoms: C_15  and  C_17
REMARK    8  A    between atoms: C_17  and  C_18
REMARK    9  A    between atoms: C_21  and  C_22
REMARK                            x       y       z     vdW  Elec       q    Type
REMARK                         _______ _______ _______ _____ _____    ______ ____
ROOT
ATOM      1  C   UNL     1      -0.684  11.089  21.080  0.00  0.00    +0.000 A 
ATOM      2  C   UNL     1      -0.624  11.505  22.403  0.00  0.00    +0.000 A 
ATOM      3  N   UNL     1      -0.265  10.700  23.421  0.00  0.00    +0.000 NA
ATOM      4  C   UNL     1       0.037   9.416  23.104  0.00  0.00    +0.000 A 
ATOM      5  C   UNL     1      -0.014   8.879  21.816  0.00  0.00    +0.000 A 
ATOM      6  C   UNL     1      -0.410   9.743  20.788  0.00  0.00    +0.000 A 
ENDROOT
BRANCH   5   7
ATOM      7  N   UNL     1       0.312   7.534  21.518  0.00  0.00    +0.000 N 
ATOM      8  C   UNL     1       1.369   7.146  20.701  0.00  0.00    +0.000 C 
ATOM      9  O   UNL     1       2.119   7.913  20.099  0.00  0.00    +0.000 OA
ATOM     10  H   UNL     1      -0.342   6.819  21.814  0.00  0.00    +0.000 HD
BRANCH   8  11
ATOM     11  C   UNL     1       1.515   5.644  20.518  0.00  0.00    +0.000 C 
BRANCH  11  12
ATOM     12  C   UNL     1       2.495   5.308  19.420  0.00  0.00    +0.000 A 
ATOM     13  C   UNL     1       2.044   4.773  18.203  0.00  0.00    +0.000 A 
ATOM     14  C   UNL     1       2.952   4.379  17.218  0.00  0.00    +0.000 A 
ATOM     15  C   UNL     1       4.322   4.535  17.430  0.00  0.00    +0.000 A 
ATOM     16  C   UNL     1       4.779   5.108  18.624  0.00  0.00    +0.000 A 
ATOM     17  C   UNL     1       3.869   5.495  19.611  0.00  0.00    +0.000 A 
BRANCH  15  18
ATOM     18  C   UNL     1       5.263   4.096  16.440  0.00  0.00    +0.000 C 
ATOM     19  N   UNL     1       6.032   3.735  15.643  0.00  0.00    +0.000 NA
ENDBRANCH  15  18
ENDBRANCH  11  12
ENDBRANCH   8  11
ENDBRANCH   5   7
BRANCH   1  20
ATOM     20  C   UNL     1      -1.079  12.038  20.013  0.00  0.00    +0.000 C 
ATOM     21  O   UNL     1      -0.242  12.852  19.627  0.00  0.00    +0.000 OA
BRANCH  20  24
ATOM     22  N   UNL     1      -4.643  12.269  19.146  0.00  0.00    +0.000 N 
ATOM     23  C   UNL     1      -3.588  12.521  19.996  0.00  0.00    +0.000 A 
ATOM     24  C   UNL     1      -2.430  11.981  19.447  0.00  0.00    +0.000 A 
ATOM     25  C   UNL     1      -2.817  11.385  18.200  0.00  0.00    +0.000 A 
ATOM     26  C   UNL     1      -2.173  10.663  17.179  0.00  0.00    +0.000 A 
ATOM     27  N   UNL     1      -0.842  10.299  17.223  0.00  0.00    +0.000 N 
ATOM     28  N   UNL     1      -2.895  10.251  16.117  0.00  0.00    +0.000 NA
ATOM     29  C   UNL     1      -4.214  10.520  16.097  0.00  0.00    +0.000 A 
ATOM     30  N   UNL     1      -4.942  11.169  17.020  0.00  0.00    +0.000 NA
ATOM     31  C   UNL     1      -4.185  11.579  18.051  0.00  0.00    +0.000 A 
ATOM     32  H   UNL     1      -0.232  10.826  17.845  0.00  0.00    +0.000 HD
ATOM     33  H   UNL     1      -0.466   9.953  16.350  0.00  0.00    +0.000 HD
BRANCH  22  35
ATOM     34  C   UNL     1      -6.426  12.727  20.820  0.00  0.00    +0.000 C 
ATOM     35  C   UNL     1      -6.024  12.710  19.345  0.00  0.00    +0.000 C 
ATOM     36  C   UNL     1      -6.267  14.070  18.689  0.00  0.00    +0.000 C 
ENDBRANCH  22  35
ENDBRANCH  20  24
ENDBRANCH   1  20
TORSDOF 7
ENDMDL
MODEL 8
REMARK VINA RESULT:      -7.9      2.265     10.611
REMARK  Name = 
REMARK  9 active torsions:
REMARK  status: ('A' for Active; 'I' for Inactive)
REMARK    1  A    between atoms: C_1  and  C_2
REMARK    2  A    between atoms: C_2  and  C_3
REMARK    3  A    between atoms: C_2  and  N_4
REMARK    4  A    between atoms: C_6  and  C_7
REMARK    5  A    between atoms: C_7  and  C_9
REMARK    6  A    between atoms: C_13  and  N_14
REMARK    7  A    between atoms: C_15  and  C_17
REMARK    8  A    between atoms: C_17  and  C_18
REMARK    9  A    between atoms: C_21  and  C_22
REMARK                            x       y       z     vdW  Elec       q    Type
REMARK                         _______ _______ _______ _____ _____    ______ ____
ROOT
ATOM      1  C   UNL     1       1.873   7.930  19.464  0.00  0.00    +0.000 A 
ATOM      2  C   UNL     1       2.098   8.285  18.140  0.00  0.00    +0.000 A 
ATOM      3  N   UNL     1       1.813   9.501  17.637  0.00  0.00    +0.000 NA
ATOM      4  C   UNL     1       1.266  10.401  18.493  0.00  0.00    +0.000 A 
ATOM      5  C   UNL     1       0.970  10.148  19.835  0.00  0.00    +0.000 A 
ATOM      6  C   UNL     1       1.264   8.866  20.314  0.00  0.00    +0.000 A 
ENDROOT
BRANCH   5   7
ATOM      7  N   UNL     1       0.403  11.111  20.703  0.00  0.00    +0.000 N 
ATOM      8  C   UNL     1       0.789  12.447  20.752  0.00  0.00    +0.000 C 
ATOM      9  O   UNL     1       1.696  12.948  20.090  0.00  0.00    +0.000 OA
ATOM     10  H   UNL     1      -0.232  10.778  21.419  0.00  0.00    +0.000 HD
BRANCH   8  11
ATOM     11  C   UNL     1       0.043  13.289  21.775  0.00  0.00    +0.000 C 
BRANCH  11  12
ATOM     12  C   UNL     1      -1.447  13.050  21.715  0.00  0.00    +0.000 A 
ATOM     13  C   UNL     1      -2.150  13.241  20.515  0.00  0.00    +0.000 A 
ATOM     14  C   UNL     1      -3.539  13.107  20.475  0.00  0.00    +0.000 A 
ATOM     15  C   UNL     1      -4.240  12.759  21.629  0.00  0.00    +0.000 A 
ATOM     16  C   UNL     1      -3.542  12.524  22.821  0.00  0.00    +0.000 A 
ATOM     17  C   UNL     1      -2.152  12.665  22.861  0.00  0.00    +0.000 A 
BRANCH  15  18
ATOM     18  C   UNL     1      -5.671  12.658  21.607  0.00  0.00    +0.000 C 
ATOM     19  N   UNL     1      -6.833  12.575  21.579  0.00  0.00    +0.000 NA
ENDBRANCH  15  18
ENDBRANCH  11  12
ENDBRANCH   8  11
ENDBRANCH   5   7
BRANCH   1  20
ATOM     20  C   UNL     1       2.222   6.573  19.946  0.00  0.00    +0.000 C 
ATOM     21  O   UNL     1       1.833   6.242  21.064  0.00  0.00    +0.000 OA
BRANCH  20  24
ATOM     22  N   UNL     1       4.574   4.865  17.698  0.00  0.00    +0.000 N 
ATOM     23  C   UNL     1       4.127   5.996  18.343  0.00  0.00    +0.000 A 
ATOM     24  C   UNL     1       3.001   5.671  19.092  0.00  0.00    +0.000 A 
ATOM     25  C   UNL     1       2.773   4.269  18.887  0.00  0.00    +0.000 A 
ATOM     26  C   UNL     1       1.819   3.326  19.306  0.00  0.00    +0.000 A 
ATOM     27  N   UNL     1       0.722   3.641  20.084  0.00  0.00    +0.000 N 
ATOM     28  N   UNL     1       1.939   2.048  18.891  0.00  0.00    +0.000 NA
ATOM     29  C   UNL     1       2.952   1.738  18.061  0.00  0.00    +0.000 A 
ATOM     30  N   UNL     1       3.900   2.551  17.570  0.00  0.00    +0.000 NA
ATOM     31  C   UNL     1       3.759   3.808  18.021  0.00  0.00    +0.000 A 
ATOM     32  H   UNL     1       0.765   4.500  20.629  0.00  0.00    +0.000 HD
ATOM     33  H   UNL     1       0.227   2.847  20.466  0.00  0.00    +0.000 HD
BRANCH  22  35
ATOM     34  C   UNL     1       5.529   5.388  15.460  0.00  0.00    +0.000 C 
ATOM     35  C   UNL     1       5.760   4.780  16.844  0.00  0.00    +0.000 C 
ATOM     36  C   UNL     1       6.975   5.407  17.528  0.00  0.00    +0.000 C 
ENDBRANCH  22  35
ENDBRANCH  20  24
ENDBRANCH   1  20
TORSDOF 7
ENDMDL
MODEL 9
REMARK VINA RESULT:      -7.9      3.382      5.578
REMARK  Name = 
REMARK  9 active torsions:
REMARK  status: ('A' for Active; 'I' for Inactive)
REMARK    1  A    between atoms: C_1  and  C_2
REMARK    2  A    between atoms: C_2  and  C_3
REMARK    3  A    between atoms: C_2  and  N_4
REMARK    4  A    between atoms: C_6  and  C_7
REMARK    5  A    between atoms: C_7  and  C_9
REMARK    6  A    between atoms: C_13  and  N_14
REMARK    7  A    between atoms: C_15  and  C_17
REMARK    8  A    between atoms: C_17  and  C_18
REMARK    9  A    between atoms: C_21  and  C_22
REMARK                            x       y       z     vdW  Elec       q    Type
REMARK                         _______ _______ _______ _____ _____    ______ ____
ROOT
ATOM      1  C   UNL     1       1.516   8.715  19.230  0.00  0.00    +0.000 A 
ATOM      2  C   UNL     1       1.060   8.624  20.539  0.00  0.00    +0.000 A 
ATOM      3  N   UNL     1       1.201   7.523  21.302  0.00  0.00    +0.000 NA
ATOM      4  C   UNL     1       1.816   6.459  20.728  0.00  0.00    +0.000 A 
ATOM      5  C   UNL     1       2.289   6.425  19.414  0.00  0.00    +0.000 A 
ATOM      6  C   UNL     1       2.106   7.582  18.647  0.00  0.00    +0.000 A 
ENDROOT
BRANCH   5   7
ATOM      7  N   UNL     1       2.930   5.298  18.845  0.00  0.00    +0.000 N 
ATOM      8  C   UNL     1       4.256   4.948  19.081  0.00  0.00    +0.000 C 
ATOM      9  O   UNL     1       5.048   5.592  19.767  0.00  0.00    +0.000 OA
ATOM     10  H   UNL     1       2.430   4.792  18.124  0.00  0.00    +0.000 HD
BRANCH   8  11
ATOM     11  C   UNL     1       4.726   3.702  18.348  0.00  0.00    +0.000 C 
BRANCH  11  12
ATOM     12  C   UNL     1       5.490   4.047  17.093  0.00  0.00    +0.000 A 
ATOM     13  C   UNL     1       6.838   4.434  17.165  0.00  0.00    +0.000 A 
ATOM     14  C   UNL     1       7.525   4.838  16.018  0.00  0.00    +0.000 A 
ATOM     15  C   UNL     1       6.878   4.841  14.782  0.00  0.00    +0.000 A 
ATOM     16  C   UNL     1       5.546   4.415  14.695  0.00  0.00    +0.000 A 
ATOM     17  C   UNL     1       4.859   4.017  15.844  0.00  0.00    +0.000 A 
BRANCH  15  18
ATOM     18  C   UNL     1       7.563   5.293  13.606  0.00  0.00    +0.000 C 
ATOM     19  N   UNL     1       8.116   5.669  12.652  0.00  0.00    +0.000 NA
ENDBRANCH  15  18
ENDBRANCH  11  12
ENDBRANCH   8  11
ENDBRANCH   5   7
BRANCH   1  20
ATOM     20  C   UNL     1       1.331   9.964  18.457  0.00  0.00    +0.000 C 
ATOM     21  O   UNL     1       2.296  10.404  17.834  0.00  0.00    +0.000 OA
BRANCH  20  24
ATOM     22  N   UNL     1      -2.083  11.208  17.904  0.00  0.00    +0.000 N 
ATOM     23  C   UNL     1      -1.026  10.391  17.567  0.00  0.00    +0.000 A 
ATOM     24  C   UNL     1       0.026  10.631  18.445  0.00  0.00    +0.000 A 
ATOM     25  C   UNL     1      -0.435  11.639  19.357  0.00  0.00    +0.000 A 
ATOM     26  C   UNL     1       0.109  12.347  20.443  0.00  0.00    +0.000 A 
ATOM     27  N   UNL     1       1.415  12.208  20.869  0.00  0.00    +0.000 N 
ATOM     28  N   UNL     1      -0.659  13.254  21.081  0.00  0.00    +0.000 NA
ATOM     29  C   UNL     1      -1.908  13.467  20.625  0.00  0.00    +0.000 A 
ATOM     30  N   UNL     1      -2.523  12.881  19.587  0.00  0.00    +0.000 NA
ATOM     31  C   UNL     1      -1.734  11.972  18.991  0.00  0.00    +0.000 A 
ATOM     32  H   UNL     1       1.907  11.357  20.605  0.00  0.00    +0.000 HD
ATOM     33  H   UNL     1       1.618  12.629  21.766  0.00  0.00    +0.000 HD
BRANCH  22  35
ATOM     34  C   UNL     1      -3.300  10.913  15.753  0.00  0.00    +0.000 C 
ATOM     35  C   UNL     1      -3.390  11.229  17.247  0.00  0.00    +0.000 C 
ATOM     36  C   UNL     1      -4.374  10.295  17.952  0.00  0.00    +0.000 C 
ENDBRANCH  22  35
ENDBRANCH  20  24
ENDBRANCH   1  20
TORSDOF 7
ENDMDL
