MODEL 1
REMARK VINA RESULT:      -7.1      0.000      0.000
REMARK  Name = 
REMARK  6 active torsions:
REMARK  status: ('A' for Active; 'I' for Inactive)
REMARK    1  A    between atoms: C_1  and  C_2
REMARK    2  A    between atoms: C_2  and  C_3
REMARK    3  A    between atoms: C_3  and  C_4
REMARK    4  A    between atoms: C_4  and  C_6
REMARK    5  A    between atoms: C_7  and  C_8
REMARK    6  A    between atoms: C_13  and  C_14
REMARK                            x       y       z     vdW  Elec       q    Type
REMARK                         _______ _______ _______ _____ _____    ______ ____
ROOT
ATOM      1  C   UNL     1       6.515   5.957  17.159  0.00  0.00    +0.000 C 
ATOM      2  C   UNL     1       7.375   6.824  17.760  0.00  0.00    +0.000 C 
ATOM      3  C   UNL     1       7.970   8.130  17.300  0.00  0.00    +0.000 C 
ATOM      4  N   UNL     1       7.869   6.494  19.008  0.00  0.00    +0.000 N 
ATOM      5  C   UNL     1       7.508   5.429  19.760  0.00  0.00    +0.000 C 
ATOM      6  O   UNL     1       7.996   5.230  20.867  0.00  0.00    +0.000 OA
ATOM      7  N   UNL     1       6.557   4.629  19.243  0.00  0.00    +0.000 N 
ATOM      8  C   UNL     1       6.126   4.656  17.861  0.00  0.00    +0.000 C 
ATOM      9  H   UNL     1       8.562   7.087  19.448  0.00  0.00    +0.000 HD
ATOM     10  H   UNL     1       6.315   3.835  19.819  0.00  0.00    +0.000 HD
ENDROOT
BRANCH   8  11
ATOM     11  C   UNL     1       4.653   4.316  17.907  0.00  0.00    +0.000 A 
ATOM     12  C   UNL     1       4.038   3.119  17.398  0.00  0.00    +0.000 A 
ATOM     13  C   UNL     1       2.675   3.093  17.596  0.00  0.00    +0.000 A 
ATOM     14  S   UNL     1       2.109   4.513  18.356  0.00  0.00    +0.000 S 
ATOM     15  C   UNL     1       3.686   5.163  18.430  0.00  0.00    +0.000 A 
ENDBRANCH   8  11
BRANCH   1  16
ATOM     16  C   UNL     1       6.000   6.046  15.730  0.00  0.00    +0.000 C 
ATOM     17  O   UNL     1       5.125   6.858  15.429  0.00  0.00    +0.000 OA
BRANCH  16  18
ATOM     18  C   UNL     1       6.531   5.084  14.689  0.00  0.00    +0.000 C 
BRANCH  18  20
ATOM     19  C   UNL     1       6.129   3.576  12.768  0.00  0.00    +0.000 C 
ATOM     20  C   UNL     1       5.552   4.088  14.085  0.00  0.00    +0.000 C 
ENDBRANCH  18  20
ENDBRANCH  16  18
ENDBRANCH   1  16
TORSDOF 4
ENDMDL
MODEL 2
REMARK VINA RESULT:      -6.9      0.679      1.069
REMARK  Name = 
REMARK  6 active torsions:
REMARK  status: ('A' for Active; 'I' for Inactive)
REMARK    1  A    between atoms: C_1  and  C_2
REMARK    2  A    between atoms: C_2  and  C_3
REMARK    3  A    between atoms: C_3  and  C_4
REMARK    4  A    between atoms: C_4  and  C_6
REMARK    5  A    between atoms: C_7  and  C_8
REMARK    6  A    between atoms: C_13  and  C_14
REMARK                            x       y       z     vdW  Elec       q    Type
REMARK                         _______ _______ _______ _____ _____    ______ ____
ROOT
ATOM      1  C   UNL     1       6.212   5.876  17.174  0.00  0.00    +0.000 C 
ATOM      2  C   UNL     1       7.136   6.736  17.683  0.00  0.00    +0.000 C 
ATOM      3  C   UNL     1       7.709   8.025  17.152  0.00  0.00    +0.000 C 
ATOM      4  N   UNL     1       7.733   6.414  18.887  0.00  0.00    +0.000 N 
ATOM      5  C   UNL     1       7.423   5.366  19.684  0.00  0.00    +0.000 C 
ATOM      6  O   UNL     1       8.004   5.174  20.746  0.00  0.00    +0.000 OA
ATOM      7  N   UNL     1       6.416   4.576  19.266  0.00  0.00    +0.000 N 
ATOM      8  C   UNL     1       5.865   4.592  17.927  0.00  0.00    +0.000 C 
ATOM      9  H   UNL     1       8.472   7.001  19.255  0.00  0.00    +0.000 HD
ATOM     10  H   UNL     1       6.213   3.794  19.873  0.00  0.00    +0.000 HD
ENDROOT
BRANCH   8  11
ATOM     11  C   UNL     1       4.396   4.279  18.109  0.00  0.00    +0.000 A 
ATOM     12  C   UNL     1       3.392   5.174  18.619  0.00  0.00    +0.000 A 
ATOM     13  C   UNL     1       2.138   4.603  18.659  0.00  0.00    +0.000 A 
ATOM     14  S   UNL     1       2.154   2.981  18.125  0.00  0.00    +0.000 S 
ATOM     15  C   UNL     1       3.835   3.041  17.832  0.00  0.00    +0.000 A 
ENDBRANCH   8  11
BRANCH   1  16
ATOM     16  C   UNL     1       5.573   5.955  15.795  0.00  0.00    +0.000 C 
ATOM     17  O   UNL     1       5.045   6.997  15.407  0.00  0.00    +0.000 OA
BRANCH  16  18
ATOM     18  C   UNL     1       5.538   4.718  14.923  0.00  0.00    +0.000 C 
BRANCH  18  20
ATOM     19  C   UNL     1       6.234   3.592  12.831  0.00  0.00    +0.000 C 
ATOM     20  C   UNL     1       6.703   4.496  13.968  0.00  0.00    +0.000 C 
ENDBRANCH  18  20
ENDBRANCH  16  18
ENDBRANCH   1  16
TORSDOF 4
ENDMDL
MODEL 3
REMARK VINA RESULT:      -6.9      3.209      5.309
REMARK  Name = 
REMARK  6 active torsions:
REMARK  status: ('A' for Active; 'I' for Inactive)
REMARK    1  A    between atoms: C_1  and  C_2
REMARK    2  A    between atoms: C_2  and  C_3
REMARK    3  A    between atoms: C_3  and  C_4
REMARK    4  A    between atoms: C_4  and  C_6
REMARK    5  A    between atoms: C_7  and  C_8
REMARK    6  A    between atoms: C_13  and  C_14
REMARK                            x       y       z     vdW  Elec       q    Type
REMARK                         _______ _______ _______ _____ _____    ______ ____
ROOT
ATOM      1  C   UNL     1       3.112   4.313  18.730  0.00  0.00    +0.000 C 
ATOM      2  C   UNL     1       4.102   3.481  18.308  0.00  0.00    +0.000 C 
ATOM      3  C   UNL     1       4.065   2.177  17.552  0.00  0.00    +0.000 C 
ATOM      4  N   UNL     1       5.407   3.802  18.630  0.00  0.00    +0.000 N 
ATOM      5  C   UNL     1       5.829   4.930  19.246  0.00  0.00    +0.000 C 
ATOM      6  O   UNL     1       7.016   5.130  19.476  0.00  0.00    +0.000 OA
ATOM      7  N   UNL     1       4.879   5.833  19.552  0.00  0.00    +0.000 N 
ATOM      8  C   UNL     1       3.457   5.561  19.543  0.00  0.00    +0.000 C 
ATOM      9  H   UNL     1       6.157   3.166  18.388  0.00  0.00    +0.000 HD
ATOM     10  H   UNL     1       5.219   6.661  20.023  0.00  0.00    +0.000 HD
ENDROOT
BRANCH   8  11
ATOM     11  C   UNL     1       2.816   6.861  19.108  0.00  0.00    +0.000 A 
ATOM     12  C   UNL     1       2.993   7.515  17.839  0.00  0.00    +0.000 A 
ATOM     13  C   UNL     1       2.269   8.683  17.735  0.00  0.00    +0.000 A 
ATOM     14  S   UNL     1       1.403   9.032  19.164  0.00  0.00    +0.000 S 
ATOM     15  C   UNL     1       1.986   7.618  19.923  0.00  0.00    +0.000 A 
ENDBRANCH   8  11
BRANCH   1  16
ATOM     16  C   UNL     1       1.616   4.054  18.633  0.00  0.00    +0.000 C 
ATOM     17  O   UNL     1       1.037   4.120  17.549  0.00  0.00    +0.000 OA
BRANCH  16  18
ATOM     18  C   UNL     1       0.830   3.771  19.895  0.00  0.00    +0.000 C 
BRANCH  18  20
ATOM     19  C   UNL     1       2.090   3.054  21.902  0.00  0.00    +0.000 C 
ATOM     20  C   UNL     1       1.244   2.566  20.729  0.00  0.00    +0.000 C 
ENDBRANCH  18  20
ENDBRANCH  16  18
ENDBRANCH   1  16
TORSDOF 4
ENDMDL
MODEL 4
REMARK VINA RESULT:      -6.8      2.940      5.082
REMARK  Name = 
REMARK  6 active torsions:
REMARK  status: ('A' for Active; 'I' for Inactive)
REMARK    1  A    between atoms: C_1  and  C_2
REMARK    2  A    between atoms: C_2  and  C_3
REMARK    3  A    between atoms: C_3  and  C_4
REMARK    4  A    between atoms: C_4  and  C_6
REMARK    5  A    between atoms: C_7  and  C_8
REMARK    6  A    between atoms: C_13  and  C_14
REMARK                            x       y       z     vdW  Elec       q    Type
REMARK                         _______ _______ _______ _____ _____    ______ ____
ROOT
ATOM      1  C   UNL     1       3.090   4.190  19.157  0.00  0.00    +0.000 C 
ATOM      2  C   UNL     1       2.510   3.231  19.929  0.00  0.00    +0.000 C 
ATOM      3  C   UNL     1       1.068   2.939  20.254  0.00  0.00    +0.000 C 
ATOM      4  N   UNL     1       3.334   2.352  20.606  0.00  0.00    +0.000 N 
ATOM      5  C   UNL     1       4.681   2.271  20.505  0.00  0.00    +0.000 C 
ATOM      6  O   UNL     1       5.324   1.442  21.139  0.00  0.00    +0.000 OA
ATOM      7  N   UNL     1       5.266   3.122  19.641  0.00  0.00    +0.000 N 
ATOM      8  C   UNL     1       4.613   4.277  19.060  0.00  0.00    +0.000 C 
ATOM      9  H   UNL     1       2.932   1.672  21.240  0.00  0.00    +0.000 HD
ATOM     10  H   UNL     1       6.273   3.050  19.594  0.00  0.00    +0.000 HD
ENDROOT
BRANCH   8  11
ATOM     11  C   UNL     1       5.206   4.401  17.674  0.00  0.00    +0.000 A 
ATOM     12  C   UNL     1       4.720   3.764  16.480  0.00  0.00    +0.000 A 
ATOM     13  C   UNL     1       5.467   4.077  15.365  0.00  0.00    +0.000 A 
ATOM     14  S   UNL     1       6.780   5.102  15.739  0.00  0.00    +0.000 S 
ATOM     15  C   UNL     1       6.347   5.137  17.390  0.00  0.00    +0.000 A 
ENDBRANCH   8  11
BRANCH   1  16
ATOM     16  C   UNL     1       2.378   5.350  18.478  0.00  0.00    +0.000 C 
ATOM     17  O   UNL     1       1.576   5.147  17.566  0.00  0.00    +0.000 OA
BRANCH  16  18
ATOM     18  C   UNL     1       2.709   6.768  18.892  0.00  0.00    +0.000 C 
BRANCH  18  20
ATOM     19  C   UNL     1       2.076   8.910  17.823  0.00  0.00    +0.000 C 
ATOM     20  C   UNL     1       3.076   7.757  17.794  0.00  0.00    +0.000 C 
ENDBRANCH  18  20
ENDBRANCH  16  18
ENDBRANCH   1  16
TORSDOF 4
ENDMDL
MODEL 5
REMARK VINA RESULT:      -6.4      3.003      5.604
REMARK  Name = 
REMARK  6 active torsions:
REMARK  status: ('A' for Active; 'I' for Inactive)
REMARK    1  A    between atoms: C_1  and  C_2
REMARK    2  A    between atoms: C_2  and  C_3
REMARK    3  A    between atoms: C_3  and  C_4
REMARK    4  A    between atoms: C_4  and  C_6
REMARK    5  A    between atoms: C_7  and  C_8
REMARK    6  A    between atoms: C_13  and  C_14
REMARK                            x       y       z     vdW  Elec       q    Type
REMARK                         _______ _______ _______ _____ _____    ______ ____
ROOT
ATOM      1  C   UNL     1       3.075   4.436  19.280  0.00  0.00    +0.000 C 
ATOM      2  C   UNL     1       2.512   3.425  19.997  0.00  0.00    +0.000 C 
ATOM      3  C   UNL     1       1.091   3.174  20.434  0.00  0.00    +0.000 C 
ATOM      4  N   UNL     1       3.339   2.429  20.482  0.00  0.00    +0.000 N 
ATOM      5  C   UNL     1       4.661   2.290  20.234  0.00  0.00    +0.000 C 
ATOM      6  O   UNL     1       5.307   1.359  20.701  0.00  0.00    +0.000 OA
ATOM      7  N   UNL     1       5.214   3.204  19.415  0.00  0.00    +0.000 N 
ATOM      8  C   UNL     1       4.584   4.453  19.037  0.00  0.00    +0.000 C 
ATOM      9  H   UNL     1       2.956   1.703  21.074  0.00  0.00    +0.000 HD
ATOM     10  H   UNL     1       6.205   3.085  19.257  0.00  0.00    +0.000 HD
ENDROOT
BRANCH   8  11
ATOM     11  C   UNL     1       5.048   4.707  17.620  0.00  0.00    +0.000 A 
ATOM     12  C   UNL     1       5.557   5.948  17.100  0.00  0.00    +0.000 A 
ATOM     13  C   UNL     1       5.907   5.866  15.769  0.00  0.00    +0.000 A 
ATOM     14  S   UNL     1       5.596   4.319  15.118  0.00  0.00    +0.000 S 
ATOM     15  C   UNL     1       5.000   3.753  16.614  0.00  0.00    +0.000 A 
ENDBRANCH   8  11
BRANCH   1  16
ATOM     16  C   UNL     1       2.377   5.704  18.812  0.00  0.00    +0.000 C 
ATOM     17  O   UNL     1       1.816   5.744  17.718  0.00  0.00    +0.000 OA
BRANCH  16  18
ATOM     18  C   UNL     1       2.430   6.943  19.681  0.00  0.00    +0.000 C 
BRANCH  18  20
ATOM     19  C   UNL     1       1.156   8.491  21.134  0.00  0.00    +0.000 C 
ATOM     20  C   UNL     1       1.465   7.022  20.856  0.00  0.00    +0.000 C 
ENDBRANCH  18  20
ENDBRANCH  16  18
ENDBRANCH   1  16
TORSDOF 4
ENDMDL
MODEL 6
REMARK VINA RESULT:      -6.4      3.215      5.479
REMARK  Name = 
REMARK  6 active torsions:
REMARK  status: ('A' for Active; 'I' for Inactive)
REMARK    1  A    between atoms: C_1  and  C_2
REMARK    2  A    between atoms: C_2  and  C_3
REMARK    3  A    between atoms: C_3  and  C_4
REMARK    4  A    between atoms: C_4  and  C_6
REMARK    5  A    between atoms: C_7  and  C_8
REMARK    6  A    between atoms: C_13  and  C_14
REMARK                            x       y       z     vdW  Elec       q    Type
REMARK                         _______ _______ _______ _____ _____    ______ ____
ROOT
ATOM      1  C   UNL     1       3.509   3.871  19.789  0.00  0.00    +0.000 C 
ATOM      2  C   UNL     1       2.616   4.245  20.745  0.00  0.00    +0.000 C 
ATOM      3  C   UNL     1       1.986   3.484  21.884  0.00  0.00    +0.000 C 
ATOM      4  N   UNL     1       2.117   5.533  20.704  0.00  0.00    +0.000 N 
ATOM      5  C   UNL     1       2.501   6.518  19.861  0.00  0.00    +0.000 C 
ATOM      6  O   UNL     1       2.007   7.638  19.915  0.00  0.00    +0.000 OA
ATOM      7  N   UNL     1       3.483   6.211  18.993  0.00  0.00    +0.000 N 
ATOM      8  C   UNL     1       3.929   4.863  18.705  0.00  0.00    +0.000 C 
ATOM      9  H   UNL     1       1.401   5.816  21.363  0.00  0.00    +0.000 HD
ATOM     10  H   UNL     1       3.743   6.960  18.366  0.00  0.00    +0.000 HD
ENDROOT
BRANCH   8  11
ATOM     11  C   UNL     1       5.412   4.995  18.434  0.00  0.00    +0.000 A 
ATOM     12  C   UNL     1       6.108   4.539  17.261  0.00  0.00    +0.000 A 
ATOM     13  C   UNL     1       7.458   4.812  17.300  0.00  0.00    +0.000 A 
ATOM     14  S   UNL     1       7.916   5.580  18.754  0.00  0.00    +0.000 S 
ATOM     15  C   UNL     1       6.309   5.557  19.331  0.00  0.00    +0.000 A 
ENDBRANCH   8  11
BRANCH   1  16
ATOM     16  C   UNL     1       4.038   2.464  19.553  0.00  0.00    +0.000 C 
ATOM     17  O   UNL     1       4.989   2.033  20.206  0.00  0.00    +0.000 OA
BRANCH  16  18
ATOM     18  C   UNL     1       3.423   1.614  18.462  0.00  0.00    +0.000 C 
BRANCH  18  20
ATOM     19  C   UNL     1       0.982   2.015  18.566  0.00  0.00    +0.000 C 
ATOM     20  C   UNL     1       2.232   2.188  17.707  0.00  0.00    +0.000 C 
ENDBRANCH  18  20
ENDBRANCH  16  18
ENDBRANCH   1  16
TORSDOF 4
ENDMDL
MODEL 7
REMARK VINA RESULT:      -6.4      3.064      5.248
REMARK  Name = 
REMARK  6 active torsions:
REMARK  status: ('A' for Active; 'I' for Inactive)
REMARK    1  A    between atoms: C_1  and  C_2
REMARK    2  A    between atoms: C_2  and  C_3
REMARK    3  A    between atoms: C_3  and  C_4
REMARK    4  A    between atoms: C_4  and  C_6
REMARK    5  A    between atoms: C_7  and  C_8
REMARK    6  A    between atoms: C_13  and  C_14
REMARK                            x       y       z     vdW  Elec       q    Type
REMARK                         _______ _______ _______ _____ _____    ______ ____
ROOT
ATOM      1  C   UNL     1       3.191   4.777  19.620  0.00  0.00    +0.000 C 
ATOM      2  C   UNL     1       2.519   3.700  20.110  0.00  0.00    +0.000 C 
ATOM      3  C   UNL     1       1.075   3.509  20.499  0.00  0.00    +0.000 C 
ATOM      4  N   UNL     1       3.233   2.544  20.363  0.00  0.00    +0.000 N 
ATOM      5  C   UNL     1       4.536   2.325  20.077  0.00  0.00    +0.000 C 
ATOM      6  O   UNL     1       5.077   1.254  20.328  0.00  0.00    +0.000 OA
ATOM      7  N   UNL     1       5.190   3.330  19.466  0.00  0.00    +0.000 N 
ATOM      8  C   UNL     1       4.697   4.689  19.370  0.00  0.00    +0.000 C 
ATOM      9  H   UNL     1       2.770   1.751  20.791  0.00  0.00    +0.000 HD
ATOM     10  H   UNL     1       6.165   3.146  19.275  0.00  0.00    +0.000 HD
ENDROOT
BRANCH   8  11
ATOM     11  C   UNL     1       5.200   5.190  18.034  0.00  0.00    +0.000 A 
ATOM     12  C   UNL     1       6.047   6.333  17.817  0.00  0.00    +0.000 A 
ATOM     13  C   UNL     1       6.344   6.533  16.486  0.00  0.00    +0.000 A 
ATOM     14  S   UNL     1       5.585   5.382  15.479  0.00  0.00    +0.000 S 
ATOM     15  C   UNL     1       4.863   4.610  16.820  0.00  0.00    +0.000 A 
ENDBRANCH   8  11
BRANCH   1  16
ATOM     16  C   UNL     1       2.633   6.181  19.440  0.00  0.00    +0.000 C 
ATOM     17  O   UNL     1       2.395   6.891  20.417  0.00  0.00    +0.000 OA
BRANCH  16  18
ATOM     18  C   UNL     1       2.315   6.679  18.047  0.00  0.00    +0.000 C 
BRANCH  18  20
ATOM     19  C   UNL     1       1.593   9.038  17.827  0.00  0.00    +0.000 C 
ATOM     20  C   UNL     1       2.775   8.083  17.678  0.00  0.00    +0.000 C 
ENDBRANCH  18  20
ENDBRANCH  16  18
ENDBRANCH   1  16
TORSDOF 4
ENDMDL
MODEL 8
REMARK VINA RESULT:      -6.4      3.048      4.447
REMARK  Name = 
REMARK  6 active torsions:
REMARK  status: ('A' for Active; 'I' for Inactive)
REMARK    1  A    between atoms: C_1  and  C_2
REMARK    2  A    between atoms: C_2  and  C_3
REMARK    3  A    between atoms: C_3  and  C_4
REMARK    4  A    between atoms: C_4  and  C_6
REMARK    5  A    between atoms: C_7  and  C_8
REMARK    6  A    between atoms: C_13  and  C_14
REMARK                            x       y       z     vdW  Elec       q    Type
REMARK                         _______ _______ _______ _____ _____    ______ ____
ROOT
ATOM      1  C   UNL     1       4.105   5.811  18.303  0.00  0.00    +0.000 C 
ATOM      2  C   UNL     1       4.091   6.749  17.318  0.00  0.00    +0.000 C 
ATOM      3  C   UNL     1       4.891   6.886  16.048  0.00  0.00    +0.000 C 
ATOM      4  N   UNL     1       3.238   7.829  17.457  0.00  0.00    +0.000 N 
ATOM      5  C   UNL     1       2.324   8.010  18.436  0.00  0.00    +0.000 C 
ATOM      6  O   UNL     1       1.601   9.000  18.464  0.00  0.00    +0.000 OA
ATOM      7  N   UNL     1       2.225   7.027  19.350  0.00  0.00    +0.000 N 
ATOM      8  C   UNL     1       3.201   5.971  19.525  0.00  0.00    +0.000 C 
ATOM      9  H   UNL     1       3.256   8.575  16.772  0.00  0.00    +0.000 HD
ATOM     10  H   UNL     1       1.544   7.193  20.078  0.00  0.00    +0.000 HD
ENDROOT
BRANCH   8  11
ATOM     11  C   UNL     1       2.393   4.762  19.942  0.00  0.00    +0.000 A 
ATOM     12  C   UNL     1       1.456   4.039  19.123  0.00  0.00    +0.000 A 
ATOM     13  C   UNL     1       0.881   2.974  19.781  0.00  0.00    +0.000 A 
ATOM     14  S   UNL     1       1.423   2.849  21.395  0.00  0.00    +0.000 S 
ATOM     15  C   UNL     1       2.434   4.213  21.215  0.00  0.00    +0.000 A 
ENDBRANCH   8  11
BRANCH   1  16
ATOM     16  C   UNL     1       5.083   4.652  18.427  0.00  0.00    +0.000 C 
ATOM     17  O   UNL     1       4.783   3.531  18.015  0.00  0.00    +0.000 OA
BRANCH  16  18
ATOM     18  C   UNL     1       6.412   4.873  19.117  0.00  0.00    +0.000 C 
BRANCH  18  20
ATOM     19  C   UNL     1       7.838   6.762  18.387  0.00  0.00    +0.000 C 
ATOM     20  C   UNL     1       7.602   5.259  18.250  0.00  0.00    +0.000 C 
ENDBRANCH  18  20
ENDBRANCH  16  18
ENDBRANCH   1  16
TORSDOF 4
ENDMDL
MODEL 9
REMARK VINA RESULT:      -6.3      3.103      4.389
REMARK  Name = 
REMARK  6 active torsions:
REMARK  status: ('A' for Active; 'I' for Inactive)
REMARK    1  A    between atoms: C_1  and  C_2
REMARK    2  A    between atoms: C_2  and  C_3
REMARK    3  A    between atoms: C_3  and  C_4
REMARK    4  A    between atoms: C_4  and  C_6
REMARK    5  A    between atoms: C_7  and  C_8
REMARK    6  A    between atoms: C_13  and  C_14
REMARK                            x       y       z     vdW  Elec       q    Type
REMARK                         _______ _______ _______ _____ _____    ______ ____
ROOT
ATOM      1  C   UNL     1       4.112   5.699  18.435  0.00  0.00    +0.000 C 
ATOM      2  C   UNL     1       4.116   6.640  17.452  0.00  0.00    +0.000 C 
ATOM      3  C   UNL     1       4.894   6.747  16.165  0.00  0.00    +0.000 C 
ATOM      4  N   UNL     1       3.313   7.753  17.612  0.00  0.00    +0.000 N 
ATOM      5  C   UNL     1       2.428   7.970  18.612  0.00  0.00    +0.000 C 
ATOM      6  O   UNL     1       1.748   8.989  18.657  0.00  0.00    +0.000 OA
ATOM      7  N   UNL     1       2.308   6.989  19.525  0.00  0.00    +0.000 N 
ATOM      8  C   UNL     1       3.242   5.892  19.677  0.00  0.00    +0.000 C 
ATOM      9  H   UNL     1       3.347   8.500  16.929  0.00  0.00    +0.000 HD
ATOM     10  H   UNL     1       1.650   7.181  20.268  0.00  0.00    +0.000 HD
ENDROOT
BRANCH   8  11
ATOM     11  C   UNL     1       2.393   4.717  20.109  0.00  0.00    +0.000 A 
ATOM     12  C   UNL     1       1.259   4.181  19.404  0.00  0.00    +0.000 A 
ATOM     13  C   UNL     1       0.694   3.099  20.045  0.00  0.00    +0.000 A 
ATOM     14  S   UNL     1       1.487   2.736  21.512  0.00  0.00    +0.000 S 
ATOM     15  C   UNL     1       2.592   4.019  21.291  0.00  0.00    +0.000 A 
ENDBRANCH   8  11
BRANCH   1  16
ATOM     16  C   UNL     1       5.043   4.499  18.535  0.00  0.00    +0.000 C 
ATOM     17  O   UNL     1       5.886   4.432  19.430  0.00  0.00    +0.000 OA
BRANCH  16  18
ATOM     18  C   UNL     1       4.965   3.411  17.485  0.00  0.00    +0.000 C 
BRANCH  18  20
ATOM     19  C   UNL     1       3.692   1.530  18.472  0.00  0.00    +0.000 C 
ATOM     20  C   UNL     1       3.673   2.611  17.394  0.00  0.00    +0.000 C 
ENDBRANCH  18  20
ENDBRANCH  16  18
ENDBRANCH   1  16
TORSDOF 4
ENDMDL
