MODEL 1
REMARK VINA RESULT:      -7.6      0.000      0.000
REMARK  Name = 
REMARK  6 active torsions:
REMARK  status: ('A' for Active; 'I' for Inactive)
REMARK    1  A    between atoms: C_1  and  S_2
REMARK    2  A    between atoms: S_2  and  N_5
REMARK    3  A    between atoms: N_5  and  C_6
REMARK    4  A    between atoms: N_5  and  C_16
REMARK    5  A    between atoms: C_6  and  C_7
REMARK    6  A    between atoms: N_9  and  C_10
REMARK                            x       y       z     vdW  Elec       q    Type
REMARK                         _______ _______ _______ _____ _____    ______ ____
ROOT
ATOM      1  N   UNL     1       5.093   5.719  18.479  0.00  0.00    +0.000 N 
ENDROOT
BRANCH   1   2
ATOM      2  C   UNL     1       4.215   4.640  18.980  0.00  0.00    +0.000 A 
ATOM      3  C   UNL     1       4.528   3.318  18.619  0.00  0.00    +0.000 A 
ATOM      4  C   UNL     1       3.711   2.248  19.022  0.00  0.00    +0.000 A 
ATOM      5  C   UNL     1       2.587   2.474  19.812  0.00  0.00    +0.000 A 
ATOM      6  C   UNL     1       2.267   3.779  20.182  0.00  0.00    +0.000 A 
ATOM      7  C   UNL     1       3.049   4.857  19.740  0.00  0.00    +0.000 A 
ATOM      8 CL   UNL     1       2.484   6.436  20.177  0.00  0.00    +0.000 Cl
ENDBRANCH   1   2
BRANCH   1  10
ATOM      9  C   UNL     1       7.662   6.835  18.160  0.00  0.00    +0.000 C 
ATOM     10  S   UNL     1       6.748   5.381  18.678  0.00  0.00    +0.000 S 
ATOM     11  O   UNL     1       7.095   4.292  17.806  0.00  0.00    +0.000 OA
ATOM     12  O   UNL     1       6.990   5.254  20.092  0.00  0.00    +0.000 OA
ENDBRANCH   1  10
BRANCH   1  13
ATOM     13  C   UNL     1       4.567   6.442  17.283  0.00  0.00    +0.000 C 
BRANCH  13  14
ATOM     14  C   UNL     1       5.139   6.205  15.905  0.00  0.00    +0.000 C 
ATOM     15  O   UNL     1       5.202   7.138  15.096  0.00  0.00    +0.000 OA
ATOM     16  N   UNL     1       5.511   4.916  15.609  0.00  0.00    +0.000 N 
ATOM     17  H   UNL     1       5.068   4.167  16.135  0.00  0.00    +0.000 HD
BRANCH  16  18
ATOM     18  C   UNL     1       6.101   4.565  14.377  0.00  0.00    +0.000 A 
ATOM     19  C   UNL     1       7.297   5.141  13.926  0.00  0.00    +0.000 A 
ATOM     20  C   UNL     1       7.828   4.776  12.690  0.00  0.00    +0.000 A 
ATOM     21  C   UNL     1       7.155   3.857  11.889  0.00  0.00    +0.000 A 
ATOM     22  C   UNL     1       5.963   3.286  12.336  0.00  0.00    +0.000 A 
ATOM     23  C   UNL     1       5.453   3.617  13.591  0.00  0.00    +0.000 A 
ENDBRANCH  16  18
ENDBRANCH  13  14
ENDBRANCH   1  13
TORSDOF 5
ENDMDL
MODEL 2
REMARK VINA RESULT:      -7.6      3.910      6.215
REMARK  Name = 
REMARK  6 active torsions:
REMARK  status: ('A' for Active; 'I' for Inactive)
REMARK    1  A    between atoms: C_1  and  S_2
REMARK    2  A    between atoms: S_2  and  N_5
REMARK    3  A    between atoms: N_5  and  C_6
REMARK    4  A    between atoms: N_5  and  C_16
REMARK    5  A    between atoms: C_6  and  C_7
REMARK    6  A    between atoms: N_9  and  C_10
REMARK                            x       y       z     vdW  Elec       q    Type
REMARK                         _______ _______ _______ _____ _____    ______ ____
ROOT
ATOM      1  N   UNL     1       3.849   5.483  19.095  0.00  0.00    +0.000 N 
ENDROOT
BRANCH   1   2
ATOM      2  C   UNL     1       2.819   4.503  19.502  0.00  0.00    +0.000 A 
ATOM      3  C   UNL     1       2.472   4.444  20.864  0.00  0.00    +0.000 A 
ATOM      4  C   UNL     1       1.534   3.505  21.328  0.00  0.00    +0.000 A 
ATOM      5  C   UNL     1       0.910   2.631  20.442  0.00  0.00    +0.000 A 
ATOM      6  C   UNL     1       1.240   2.682  19.090  0.00  0.00    +0.000 A 
ATOM      7  C   UNL     1       2.213   3.581  18.627  0.00  0.00    +0.000 A 
ATOM      8 CL   UNL     1       2.613   3.470  16.944  0.00  0.00    +0.000 Cl
ENDBRANCH   1   2
BRANCH   1  10
ATOM      9  C   UNL     1       5.877   4.925  17.218  0.00  0.00    +0.000 C 
ATOM     10  S   UNL     1       5.398   4.799  18.943  0.00  0.00    +0.000 S 
ATOM     11  O   UNL     1       5.315   3.407  19.290  0.00  0.00    +0.000 OA
ATOM     12  O   UNL     1       6.311   5.650  19.662  0.00  0.00    +0.000 OA
ENDBRANCH   1  10
BRANCH   1  13
ATOM     13  C   UNL     1       3.358   6.553  18.176  0.00  0.00    +0.000 C 
BRANCH  13  14
ATOM     14  C   UNL     1       2.484   7.679  18.676  0.00  0.00    +0.000 C 
ATOM     15  O   UNL     1       2.139   7.711  19.863  0.00  0.00    +0.000 OA
ATOM     16  N   UNL     1       2.068   8.594  17.738  0.00  0.00    +0.000 N 
ATOM     17  H   UNL     1       2.039   8.291  16.768  0.00  0.00    +0.000 HD
BRANCH  16  18
ATOM     18  C   UNL     1       1.286   9.719  18.077  0.00  0.00    +0.000 A 
ATOM     19  C   UNL     1      -0.115   9.688  18.071  0.00  0.00    +0.000 A 
ATOM     20  C   UNL     1      -0.843  10.833  18.393  0.00  0.00    +0.000 A 
ATOM     21  C   UNL     1      -0.174  12.017  18.695  0.00  0.00    +0.000 A 
ATOM     22  C   UNL     1       1.220  12.049  18.698  0.00  0.00    +0.000 A 
ATOM     23  C   UNL     1       1.949  10.892  18.418  0.00  0.00    +0.000 A 
ENDBRANCH  16  18
ENDBRANCH  13  14
ENDBRANCH   1  13
TORSDOF 5
ENDMDL
MODEL 3
REMARK VINA RESULT:      -7.6      3.879      6.105
REMARK  Name = 
REMARK  6 active torsions:
REMARK  status: ('A' for Active; 'I' for Inactive)
REMARK    1  A    between atoms: C_1  and  S_2
REMARK    2  A    between atoms: S_2  and  N_5
REMARK    3  A    between atoms: N_5  and  C_6
REMARK    4  A    between atoms: N_5  and  C_16
REMARK    5  A    between atoms: C_6  and  C_7
REMARK    6  A    between atoms: N_9  and  C_10
REMARK                            x       y       z     vdW  Elec       q    Type
REMARK                         _______ _______ _______ _____ _____    ______ ____
ROOT
ATOM      1  N   UNL     1       3.864   5.435  19.113  0.00  0.00    +0.000 N 
ENDROOT
BRANCH   1   2
ATOM      2  C   UNL     1       2.866   4.446  19.572  0.00  0.00    +0.000 A 
ATOM      3  C   UNL     1       2.577   4.396  20.948  0.00  0.00    +0.000 A 
ATOM      4  C   UNL     1       1.673   3.450  21.460  0.00  0.00    +0.000 A 
ATOM      5  C   UNL     1       1.023   2.559  20.610  0.00  0.00    +0.000 A 
ATOM      6  C   UNL     1       1.295   2.601  19.243  0.00  0.00    +0.000 A 
ATOM      7  C   UNL     1       2.236   3.508  18.732  0.00  0.00    +0.000 A 
ATOM      8 CL   UNL     1       2.565   3.386  17.035  0.00  0.00    +0.000 Cl
ENDBRANCH   1   2
BRANCH   1  10
ATOM      9  C   UNL     1       5.889   4.927  17.218  0.00  0.00    +0.000 C 
ATOM     10  S   UNL     1       5.425   4.780  18.945  0.00  0.00    +0.000 S 
ATOM     11  O   UNL     1       5.369   3.385  19.283  0.00  0.00    +0.000 OA
ATOM     12  O   UNL     1       6.328   5.642  19.663  0.00  0.00    +0.000 OA
ENDBRANCH   1  10
BRANCH   1  13
ATOM     13  C   UNL     1       3.330   6.466  18.175  0.00  0.00    +0.000 C 
BRANCH  13  14
ATOM     14  C   UNL     1       2.488   7.620  18.670  0.00  0.00    +0.000 C 
ATOM     15  O   UNL     1       2.178   7.687  19.865  0.00  0.00    +0.000 OA
ATOM     16  N   UNL     1       2.058   8.516  17.721  0.00  0.00    +0.000 N 
ATOM     17  H   UNL     1       1.997   8.189  16.760  0.00  0.00    +0.000 HD
BRANCH  16  18
ATOM     18  C   UNL     1       1.304   9.661  18.052  0.00  0.00    +0.000 A 
ATOM     19  C   UNL     1       1.903  10.862  18.458  0.00  0.00    +0.000 A 
ATOM     20  C   UNL     1       1.113  11.960  18.796  0.00  0.00    +0.000 A 
ATOM     21  C   UNL     1      -0.276  11.855  18.755  0.00  0.00    +0.000 A 
ATOM     22  C   UNL     1      -0.871  10.659  18.354  0.00  0.00    +0.000 A 
ATOM     23  C   UNL     1      -0.082   9.574  17.975  0.00  0.00    +0.000 A 
ENDBRANCH  16  18
ENDBRANCH  13  14
ENDBRANCH   1  13
TORSDOF 5
ENDMDL
MODEL 4
REMARK VINA RESULT:      -7.6      0.117      1.034
REMARK  Name = 
REMARK  6 active torsions:
REMARK  status: ('A' for Active; 'I' for Inactive)
REMARK    1  A    between atoms: C_1  and  S_2
REMARK    2  A    between atoms: S_2  and  N_5
REMARK    3  A    between atoms: N_5  and  C_6
REMARK    4  A    between atoms: N_5  and  C_16
REMARK    5  A    between atoms: C_6  and  C_7
REMARK    6  A    between atoms: N_9  and  C_10
REMARK                            x       y       z     vdW  Elec       q    Type
REMARK                         _______ _______ _______ _____ _____    ______ ____
ROOT
ATOM      1  N   UNL     1       5.093   5.704  18.456  0.00  0.00    +0.000 N 
ENDROOT
BRANCH   1   2
ATOM      2  C   UNL     1       4.238   4.600  18.942  0.00  0.00    +0.000 A 
ATOM      3  C   UNL     1       4.545   3.296  18.516  0.00  0.00    +0.000 A 
ATOM      4  C   UNL     1       3.747   2.205  18.903  0.00  0.00    +0.000 A 
ATOM      5  C   UNL     1       2.650   2.391  19.739  0.00  0.00    +0.000 A 
ATOM      6  C   UNL     1       2.337   3.678  20.174  0.00  0.00    +0.000 A 
ATOM      7  C   UNL     1       3.099   4.778  19.750  0.00  0.00    +0.000 A 
ATOM      8 CL   UNL     1       2.541   6.334  20.272  0.00  0.00    +0.000 Cl
ENDBRANCH   1   2
BRANCH   1  10
ATOM      9  C   UNL     1       7.643   6.826  18.026  0.00  0.00    +0.000 C 
ATOM     10  S   UNL     1       6.755   5.390  18.632  0.00  0.00    +0.000 S 
ATOM     11  O   UNL     1       7.093   4.265  17.805  0.00  0.00    +0.000 OA
ATOM     12  O   UNL     1       7.030   5.332  20.045  0.00  0.00    +0.000 OA
ENDBRANCH   1  10
BRANCH   1  13
ATOM     13  C   UNL     1       4.543   6.442  17.281  0.00  0.00    +0.000 C 
BRANCH  13  14
ATOM     14  C   UNL     1       5.065   6.199  15.884  0.00  0.00    +0.000 C 
ATOM     15  O   UNL     1       5.126   7.136  15.078  0.00  0.00    +0.000 OA
ATOM     16  N   UNL     1       5.393   4.902  15.569  0.00  0.00    +0.000 N 
ATOM     17  H   UNL     1       4.946   4.162  16.104  0.00  0.00    +0.000 HD
BRANCH  16  18
ATOM     18  C   UNL     1       5.933   4.544  14.316  0.00  0.00    +0.000 A 
ATOM     19  C   UNL     1       5.281   3.664  13.442  0.00  0.00    +0.000 A 
ATOM     20  C   UNL     1       5.867   3.324  12.223  0.00  0.00    +0.000 A 
ATOM     21  C   UNL     1       7.116   3.840  11.886  0.00  0.00    +0.000 A 
ATOM     22  C   UNL     1       7.766   4.714  12.757  0.00  0.00    +0.000 A 
ATOM     23  C   UNL     1       7.161   5.089  13.957  0.00  0.00    +0.000 A 
ENDBRANCH  16  18
ENDBRANCH  13  14
ENDBRANCH   1  13
TORSDOF 5
ENDMDL
MODEL 5
REMARK VINA RESULT:      -7.5      3.653      7.109
REMARK  Name = 
REMARK  6 active torsions:
REMARK  status: ('A' for Active; 'I' for Inactive)
REMARK    1  A    between atoms: C_1  and  S_2
REMARK    2  A    between atoms: S_2  and  N_5
REMARK    3  A    between atoms: N_5  and  C_6
REMARK    4  A    between atoms: N_5  and  C_16
REMARK    5  A    between atoms: C_6  and  C_7
REMARK    6  A    between atoms: N_9  and  C_10
REMARK                            x       y       z     vdW  Elec       q    Type
REMARK                         _______ _______ _______ _____ _____    ______ ____
ROOT
ATOM      1  N   UNL     1       3.916   4.848  18.506  0.00  0.00    +0.000 N 
ENDROOT
BRANCH   1   2
ATOM      2  C   UNL     1       5.248   5.476  18.376  0.00  0.00    +0.000 A 
ATOM      3  C   UNL     1       6.230   5.133  19.321  0.00  0.00    +0.000 A 
ATOM      4  C   UNL     1       7.504   5.727  19.284  0.00  0.00    +0.000 A 
ATOM      5  C   UNL     1       7.826   6.649  18.292  0.00  0.00    +0.000 A 
ATOM      6  C   UNL     1       6.864   6.994  17.345  0.00  0.00    +0.000 A 
ATOM      7  C   UNL     1       5.575   6.444  17.406  0.00  0.00    +0.000 A 
ATOM      8 CL   UNL     1       4.439   7.036  16.239  0.00  0.00    +0.000 Cl
ENDBRANCH   1   2
BRANCH   1  10
ATOM      9  C   UNL     1       3.721   2.036  18.563  0.00  0.00    +0.000 C 
ATOM     10  S   UNL     1       3.718   3.486  17.506  0.00  0.00    +0.000 S 
ATOM     11  O   UNL     1       4.849   3.405  16.623  0.00  0.00    +0.000 OA
ATOM     12  O   UNL     1       2.393   3.556  16.948  0.00  0.00    +0.000 OA
ENDBRANCH   1  10
BRANCH   1  13
ATOM     13  C   UNL     1       3.327   4.921  19.876  0.00  0.00    +0.000 C 
BRANCH  13  14
ATOM     14  C   UNL     1       2.213   5.888  20.204  0.00  0.00    +0.000 C 
ATOM     15  O   UNL     1       1.095   5.457  20.509  0.00  0.00    +0.000 OA
ATOM     16  N   UNL     1       2.506   7.225  20.081  0.00  0.00    +0.000 N 
ATOM     17  H   UNL     1       3.265   7.483  19.457  0.00  0.00    +0.000 HD
BRANCH  16  18
ATOM     18  C   UNL     1       1.572   8.233  20.399  0.00  0.00    +0.000 A 
ATOM     19  C   UNL     1       1.080   8.417  21.698  0.00  0.00    +0.000 A 
ATOM     20  C   UNL     1       0.142   9.416  21.958  0.00  0.00    +0.000 A 
ATOM     21  C   UNL     1      -0.327  10.214  20.918  0.00  0.00    +0.000 A 
ATOM     22  C   UNL     1       0.161  10.030  19.624  0.00  0.00    +0.000 A 
ATOM     23  C   UNL     1       1.132   9.060  19.371  0.00  0.00    +0.000 A 
ENDBRANCH  16  18
ENDBRANCH  13  14
ENDBRANCH   1  13
TORSDOF 5
ENDMDL
MODEL 6
REMARK VINA RESULT:      -7.5      3.482      6.262
REMARK  Name = 
REMARK  6 active torsions:
REMARK  status: ('A' for Active; 'I' for Inactive)
REMARK    1  A    between atoms: C_1  and  S_2
REMARK    2  A    between atoms: S_2  and  N_5
REMARK    3  A    between atoms: N_5  and  C_6
REMARK    4  A    between atoms: N_5  and  C_16
REMARK    5  A    between atoms: C_6  and  C_7
REMARK    6  A    between atoms: N_9  and  C_10
REMARK                            x       y       z     vdW  Elec       q    Type
REMARK                         _______ _______ _______ _____ _____    ______ ____
ROOT
ATOM      1  N   UNL     1       6.549   6.456  17.385  0.00  0.00    +0.000 N 
ENDROOT
BRANCH   1   2
ATOM      2  C   UNL     1       5.144   6.325  17.828  0.00  0.00    +0.000 A 
ATOM      3  C   UNL     1       4.202   7.224  17.299  0.00  0.00    +0.000 A 
ATOM      4  C   UNL     1       2.859   7.186  17.711  0.00  0.00    +0.000 A 
ATOM      5  C   UNL     1       2.428   6.236  18.634  0.00  0.00    +0.000 A 
ATOM      6  C   UNL     1       3.350   5.335  19.163  0.00  0.00    +0.000 A 
ATOM      7  C   UNL     1       4.703   5.401  18.795  0.00  0.00    +0.000 A 
ATOM      8 CL   UNL     1       5.766   4.298  19.606  0.00  0.00    +0.000 Cl
ENDBRANCH   1   2
BRANCH   1  10
ATOM      9  C   UNL     1       5.600   4.224  15.949  0.00  0.00    +0.000 C 
ATOM     10  S   UNL     1       7.055   5.180  16.382  0.00  0.00    +0.000 S 
ATOM     11  O   UNL     1       7.943   4.338  17.135  0.00  0.00    +0.000 OA
ATOM     12  O   UNL     1       7.516   5.764  15.149  0.00  0.00    +0.000 OA
ENDBRANCH   1  10
BRANCH   1  13
ATOM     13  C   UNL     1       7.003   7.863  17.173  0.00  0.00    +0.000 C 
BRANCH  13  14
ATOM     14  C   UNL     1       8.086   8.478  18.028  0.00  0.00    +0.000 C 
ATOM     15  O   UNL     1       8.716   7.773  18.825  0.00  0.00    +0.000 OA
ATOM     16  N   UNL     1       8.267   9.835  17.905  0.00  0.00    +0.000 N 
ATOM     17  H   UNL     1       7.481  10.385  17.568  0.00  0.00    +0.000 HD
BRANCH  16  18
ATOM     18  C   UNL     1       9.273  10.528  18.611  0.00  0.00    +0.000 A 
ATOM     19  C   UNL     1       9.212  10.731  19.997  0.00  0.00    +0.000 A 
ATOM     20  C   UNL     1      10.221  11.443  20.645  0.00  0.00    +0.000 A 
ATOM     21  C   UNL     1      11.278  11.974  19.910  0.00  0.00    +0.000 A 
ATOM     22  C   UNL     1      11.336  11.774  18.531  0.00  0.00    +0.000 A 
ATOM     23  C   UNL     1      10.350  11.027  17.887  0.00  0.00    +0.000 A 
ENDBRANCH  16  18
ENDBRANCH  13  14
ENDBRANCH   1  13
TORSDOF 5
ENDMDL
MODEL 7
REMARK VINA RESULT:      -7.3      4.491      7.106
REMARK  Name = 
REMARK  6 active torsions:
REMARK  status: ('A' for Active; 'I' for Inactive)
REMARK    1  A    between atoms: C_1  and  S_2
REMARK    2  A    between atoms: S_2  and  N_5
REMARK    3  A    between atoms: N_5  and  C_6
REMARK    4  A    between atoms: N_5  and  C_16
REMARK    5  A    between atoms: C_6  and  C_7
REMARK    6  A    between atoms: N_9  and  C_10
REMARK                            x       y       z     vdW  Elec       q    Type
REMARK                         _______ _______ _______ _____ _____    ______ ____
ROOT
ATOM      1  N   UNL     1       3.265   5.855  18.071  0.00  0.00    +0.000 N 
ENDROOT
BRANCH   1   2
ATOM      2  C   UNL     1       4.743   5.852  18.070  0.00  0.00    +0.000 A 
ATOM      3  C   UNL     1       5.400   5.463  19.250  0.00  0.00    +0.000 A 
ATOM      4  C   UNL     1       6.803   5.481  19.334  0.00  0.00    +0.000 A 
ATOM      5  C   UNL     1       7.573   5.860  18.237  0.00  0.00    +0.000 A 
ATOM      6  C   UNL     1       6.935   6.243  17.058  0.00  0.00    +0.000 A 
ATOM      7  C   UNL     1       5.535   6.277  16.985  0.00  0.00    +0.000 A 
ATOM      8 CL   UNL     1       4.866   6.877  15.503  0.00  0.00    +0.000 Cl
ENDBRANCH   1   2
BRANCH   1  10
ATOM      9  C   UNL     1       2.425   3.536  19.436  0.00  0.00    +0.000 C 
ATOM     10  S   UNL     1       2.593   4.312  17.827  0.00  0.00    +0.000 S 
ATOM     11  O   UNL     1       3.515   3.536  17.043  0.00  0.00    +0.000 OA
ATOM     12  O   UNL     1       1.249   4.504  17.346  0.00  0.00    +0.000 OA
ENDBRANCH   1  10
BRANCH   1  13
ATOM     13  C   UNL     1       2.647   6.854  18.993  0.00  0.00    +0.000 C 
BRANCH  13  14
ATOM     14  C   UNL     1       2.109   8.170  18.482  0.00  0.00    +0.000 C 
ATOM     15  O   UNL     1       2.383   8.543  17.335  0.00  0.00    +0.000 OA
ATOM     16  N   UNL     1       1.377   8.920  19.371  0.00  0.00    +0.000 N 
ATOM     17  H   UNL     1       1.538   8.763  20.362  0.00  0.00    +0.000 HD
BRANCH  16  18
ATOM     18  C   UNL     1       0.779  10.146  19.010  0.00  0.00    +0.000 A 
ATOM     19  C   UNL     1       1.467  11.365  19.080  0.00  0.00    +0.000 A 
ATOM     20  C   UNL     1       0.825  12.553  18.733  0.00  0.00    +0.000 A 
ATOM     21  C   UNL     1      -0.512  12.531  18.341  0.00  0.00    +0.000 A 
ATOM     22  C   UNL     1      -1.197  11.317  18.274  0.00  0.00    +0.000 A 
ATOM     23  C   UNL     1      -0.543  10.124  18.580  0.00  0.00    +0.000 A 
ENDBRANCH  16  18
ENDBRANCH  13  14
ENDBRANCH   1  13
TORSDOF 5
ENDMDL
MODEL 8
REMARK VINA RESULT:      -7.3      3.582      6.593
REMARK  Name = 
REMARK  6 active torsions:
REMARK  status: ('A' for Active; 'I' for Inactive)
REMARK    1  A    between atoms: C_1  and  S_2
REMARK    2  A    between atoms: S_2  and  N_5
REMARK    3  A    between atoms: N_5  and  C_6
REMARK    4  A    between atoms: N_5  and  C_16
REMARK    5  A    between atoms: C_6  and  C_7
REMARK    6  A    between atoms: N_9  and  C_10
REMARK                            x       y       z     vdW  Elec       q    Type
REMARK                         _______ _______ _______ _____ _____    ______ ____
ROOT
ATOM      1  N   UNL     1       3.896   5.428  19.131  0.00  0.00    +0.000 N 
ENDROOT
BRANCH   1   2
ATOM      2  C   UNL     1       2.879   4.452  19.579  0.00  0.00    +0.000 A 
ATOM      3  C   UNL     1       2.566   4.412  20.949  0.00  0.00    +0.000 A 
ATOM      4  C   UNL     1       1.643   3.478  21.450  0.00  0.00    +0.000 A 
ATOM      5  C   UNL     1       0.997   2.591  20.593  0.00  0.00    +0.000 A 
ATOM      6  C   UNL     1       1.293   2.623  19.232  0.00  0.00    +0.000 A 
ATOM      7  C   UNL     1       2.252   3.518  18.732  0.00  0.00    +0.000 A 
ATOM      8 CL   UNL     1       2.608   3.384  17.041  0.00  0.00    +0.000 Cl
ENDBRANCH   1   2
BRANCH   1  10
ATOM      9  C   UNL     1       5.930   4.813  17.279  0.00  0.00    +0.000 C 
ATOM     10  S   UNL     1       5.454   4.759  19.009  0.00  0.00    +0.000 S 
ATOM     11  O   UNL     1       5.390   3.384  19.419  0.00  0.00    +0.000 OA
ATOM     12  O   UNL     1       6.356   5.654  19.687  0.00  0.00    +0.000 OA
ENDBRANCH   1  10
BRANCH   1  13
ATOM     13  C   UNL     1       3.391   6.453  18.170  0.00  0.00    +0.000 C 
BRANCH  13  14
ATOM     14  C   UNL     1       2.480   7.572  18.617  0.00  0.00    +0.000 C 
ATOM     15  O   UNL     1       2.069   8.397  17.793  0.00  0.00    +0.000 OA
ATOM     16  N   UNL     1       2.206   7.638  19.962  0.00  0.00    +0.000 N 
ATOM     17  H   UNL     1       2.874   7.212  20.599  0.00  0.00    +0.000 HD
BRANCH  16  18
ATOM     18  C   UNL     1       1.335   8.605  20.507  0.00  0.00    +0.000 A 
ATOM     19  C   UNL     1       0.777   9.633  19.735  0.00  0.00    +0.000 A 
ATOM     20  C   UNL     1      -0.062  10.577  20.325  0.00  0.00    +0.000 A 
ATOM     21  C   UNL     1      -0.323  10.515  21.691  0.00  0.00    +0.000 A 
ATOM     22  C   UNL     1       0.234   9.494  22.461  0.00  0.00    +0.000 A 
ATOM     23  C   UNL     1       1.039   8.523  21.863  0.00  0.00    +0.000 A 
ENDBRANCH  16  18
ENDBRANCH  13  14
ENDBRANCH   1  13
TORSDOF 5
ENDMDL
MODEL 9
REMARK VINA RESULT:      -7.3      3.952      7.336
REMARK  Name = 
REMARK  6 active torsions:
REMARK  status: ('A' for Active; 'I' for Inactive)
REMARK    1  A    between atoms: C_1  and  S_2
REMARK    2  A    between atoms: S_2  and  N_5
REMARK    3  A    between atoms: N_5  and  C_6
REMARK    4  A    between atoms: N_5  and  C_16
REMARK    5  A    between atoms: C_6  and  C_7
REMARK    6  A    between atoms: N_9  and  C_10
REMARK                            x       y       z     vdW  Elec       q    Type
REMARK                         _______ _______ _______ _____ _____    ______ ____
ROOT
ATOM      1  N   UNL     1       3.791   5.187  18.369  0.00  0.00    +0.000 N 
ENDROOT
BRANCH   1   2
ATOM      2  C   UNL     1       5.211   5.595  18.344  0.00  0.00    +0.000 A 
ATOM      3  C   UNL     1       6.013   5.249  19.445  0.00  0.00    +0.000 A 
ATOM      4  C   UNL     1       7.361   5.645  19.509  0.00  0.00    +0.000 A 
ATOM      5  C   UNL     1       7.936   6.367  18.466  0.00  0.00    +0.000 A 
ATOM      6  C   UNL     1       7.154   6.712  17.365  0.00  0.00    +0.000 A 
ATOM      7  C   UNL     1       5.796   6.365  17.319  0.00  0.00    +0.000 A 
ATOM      8 CL   UNL     1       4.908   6.948  15.949  0.00  0.00    +0.000 Cl
ENDBRANCH   1   2
BRANCH   1  10
ATOM      9  C   UNL     1       3.511   2.454  19.004  0.00  0.00    +0.000 C 
ATOM     10  S   UNL     1       3.523   3.658  17.674  0.00  0.00    +0.000 S 
ATOM     11  O   UNL     1       4.624   3.358  16.801  0.00  0.00    +0.000 OA
ATOM     12  O   UNL     1       2.184   3.660  17.142  0.00  0.00    +0.000 OA
ENDBRANCH   1  10
BRANCH   1  13
ATOM     13  C   UNL     1       3.029   5.662  19.562  0.00  0.00    +0.000 C 
BRANCH  13  14
ATOM     14  C   UNL     1       2.321   6.997  19.563  0.00  0.00    +0.000 C 
ATOM     15  O   UNL     1       2.285   7.675  18.530  0.00  0.00    +0.000 OA
ATOM     16  N   UNL     1       1.797   7.411  20.764  0.00  0.00    +0.000 N 
ATOM     17  H   UNL     1       2.205   7.027  21.612  0.00  0.00    +0.000 HD
BRANCH  16  18
ATOM     18  C   UNL     1       1.072   8.615  20.895  0.00  0.00    +0.000 A 
ATOM     19  C   UNL     1       0.817   9.460  19.806  0.00  0.00    +0.000 A 
ATOM     20  C   UNL     1       0.115  10.650  19.992  0.00  0.00    +0.000 A 
ATOM     21  C   UNL     1      -0.312  11.012  21.267  0.00  0.00    +0.000 A 
ATOM     22  C   UNL     1      -0.057  10.172  22.351  0.00  0.00    +0.000 A 
ATOM     23  C   UNL     1       0.608   8.961  22.160  0.00  0.00    +0.000 A 
ENDBRANCH  16  18
ENDBRANCH  13  14
ENDBRANCH   1  13
TORSDOF 5
ENDMDL
