MODEL 1
REMARK VINA RESULT:      -7.4      0.000      0.000
REMARK  Name = 
REMARK  10 active torsions:
REMARK  status: ('A' for Active; 'I' for Inactive)
REMARK    1  A    between atoms: C_1  and  C_2
REMARK    2  A    between atoms: C_2  and  C_3
REMARK    3  A    between atoms: C_3  and  C_4
REMARK    4  A    between atoms: N_5  and  C_6
REMARK    5  A    between atoms: C_6  and  C_7
REMARK    6  A    between atoms: C_7  and  C_8
REMARK    7  A    between atoms: C_8  and  N_9
REMARK    8  A    between atoms: N_9  and  C_10
REMARK    9  A    between atoms: C_13  and  C_14
REMARK   10  A    between atoms: N_23  and  C_24
REMARK                            x       y       z     vdW  Elec       q    Type
REMARK                         _______ _______ _______ _____ _____    ______ ____
ROOT
ATOM      1  C   UNL     1       2.754   7.028  18.800  0.00  0.00    +0.000 A 
ATOM      2  N   UNL     1       1.988   6.893  19.912  0.00  0.00    +0.000 NA
ATOM      3  C   UNL     1       1.777   5.679  20.454  0.00  0.00    +0.000 A 
ATOM      4  C   UNL     1       2.292   4.475  19.983  0.00  0.00    +0.000 A 
ATOM      5  C   UNL     1       1.938   3.200  20.685  0.00  0.00    +0.000 C 
ATOM      6  C   UNL     1       3.124   4.607  18.854  0.00  0.00    +0.000 A 
ATOM      7  C   UNL     1       3.368   5.859  18.255  0.00  0.00    +0.000 A 
ATOM      8  C   UNL     1       4.261   5.627  17.144  0.00  0.00    +0.000 A 
ATOM      9  C   UNL     1       4.877   6.452  16.188  0.00  0.00    +0.000 A 
ATOM     10  N   UNL     1       5.711   5.943  15.248  0.00  0.00    +0.000 NA
ATOM     11  C   UNL     1       5.937   4.618  15.230  0.00  0.00    +0.000 A 
ATOM     12  C   UNL     1       5.379   3.716  16.117  0.00  0.00    +0.000 A 
ATOM     13  C   UNL     1       4.529   4.258  17.091  0.00  0.00    +0.000 A 
ATOM     14  N   UNL     1       3.829   3.664  18.117  0.00  0.00    +0.000 N 
ATOM     15  C   UNL     1       3.850   2.242  18.396  0.00  0.00    +0.000 C 
ENDROOT
BRANCH   1  16
ATOM     16  N   UNL     1       2.877   8.297  18.234  0.00  0.00    +0.000 N 
ATOM     17  H   UNL     1       3.461   8.917  18.769  0.00  0.00    +0.000 HD
BRANCH  16  18
ATOM     18  C   UNL     1       1.648   8.914  17.740  0.00  0.00    +0.000 C 
BRANCH  18  19
ATOM     19  C   UNL     1       1.405  10.224  18.493  0.00  0.00    +0.000 C 
BRANCH  19  20
ATOM     20  C   UNL     1      -0.044  10.363  18.961  0.00  0.00    +0.000 C 
BRANCH  20  22
ATOM     21  C   UNL     1      -2.170  10.134  18.052  0.00  0.00    +0.000 C 
ATOM     22  N   UNL     1      -0.911  10.174  17.790  0.00  0.00    +0.000 NA
BRANCH  21  23
ATOM     23  C   UNL     1      -3.165   9.936  16.938  0.00  0.00    +0.000 C 
BRANCH  23  25
ATOM     24  C   UNL     1      -3.066  10.064  14.405  0.00  0.00    +0.000 C 
ATOM     25  C   UNL     1      -2.835  10.795  15.720  0.00  0.00    +0.000 C 
ENDBRANCH  23  25
ENDBRANCH  21  23
ENDBRANCH  20  22
ENDBRANCH  19  20
ENDBRANCH  18  19
ENDBRANCH  16  18
ENDBRANCH   1  16
TORSDOF 7
ENDMDL
MODEL 2
REMARK VINA RESULT:      -7.2      1.754      2.854
REMARK  Name = 
REMARK  10 active torsions:
REMARK  status: ('A' for Active; 'I' for Inactive)
REMARK    1  A    between atoms: C_1  and  C_2
REMARK    2  A    between atoms: C_2  and  C_3
REMARK    3  A    between atoms: C_3  and  C_4
REMARK    4  A    between atoms: N_5  and  C_6
REMARK    5  A    between atoms: C_6  and  C_7
REMARK    6  A    between atoms: C_7  and  C_8
REMARK    7  A    between atoms: C_8  and  N_9
REMARK    8  A    between atoms: N_9  and  C_10
REMARK    9  A    between atoms: C_13  and  C_14
REMARK   10  A    between atoms: N_23  and  C_24
REMARK                            x       y       z     vdW  Elec       q    Type
REMARK                         _______ _______ _______ _____ _____    ______ ____
ROOT
ATOM      1  C   UNL     1       2.591   6.607  19.208  0.00  0.00    +0.000 A 
ATOM      2  N   UNL     1       1.792   6.286  20.257  0.00  0.00    +0.000 NA
ATOM      3  C   UNL     1       1.551   4.998  20.563  0.00  0.00    +0.000 A 
ATOM      4  C   UNL     1       2.063   3.891  19.894  0.00  0.00    +0.000 A 
ATOM      5  C   UNL     1       1.672   2.516  20.343  0.00  0.00    +0.000 C 
ATOM      6  C   UNL     1       2.927   4.211  18.829  0.00  0.00    +0.000 A 
ATOM      7  C   UNL     1       3.204   5.546  18.474  0.00  0.00    +0.000 A 
ATOM      8  C   UNL     1       4.124   5.503  17.362  0.00  0.00    +0.000 A 
ATOM      9  C   UNL     1       4.777   6.478  16.588  0.00  0.00    +0.000 A 
ATOM     10  N   UNL     1       5.630   6.133  15.592  0.00  0.00    +0.000 NA
ATOM     11  C   UNL     1       5.839   4.829  15.338  0.00  0.00    +0.000 A 
ATOM     12  C   UNL     1       5.244   3.791  16.032  0.00  0.00    +0.000 A 
ATOM     13  C   UNL     1       4.375   4.162  17.067  0.00  0.00    +0.000 A 
ATOM     14  N   UNL     1       3.639   3.405  17.950  0.00  0.00    +0.000 N 
ATOM     15  C   UNL     1       3.634   1.956  17.966  0.00  0.00    +0.000 C 
ENDROOT
BRANCH   1  16
ATOM     16  N   UNL     1       2.746   7.956  18.885  0.00  0.00    +0.000 N 
ATOM     17  H   UNL     1       2.781   8.556  19.692  0.00  0.00    +0.000 HD
BRANCH  16  18
ATOM     18  C   UNL     1       1.916   8.467  17.797  0.00  0.00    +0.000 C 
BRANCH  18  19
ATOM     19  C   UNL     1       1.597   9.941  18.057  0.00  0.00    +0.000 C 
BRANCH  19  20
ATOM     20  C   UNL     1       0.148  10.150  18.499  0.00  0.00    +0.000 C 
BRANCH  20  22
ATOM     21  C   UNL     1      -0.624  10.741  20.608  0.00  0.00    +0.000 C 
ATOM     22  N   UNL     1       0.158  11.071  19.643  0.00  0.00    +0.000 NA
BRANCH  21  23
ATOM     23  C   UNL     1      -0.712  11.607  21.838  0.00  0.00    +0.000 C 
BRANCH  23  25
ATOM     24  C   UNL     1      -0.212   9.498  23.157  0.00  0.00    +0.000 C 
ATOM     25  C   UNL     1      -1.012  10.790  23.091  0.00  0.00    +0.000 C 
ENDBRANCH  23  25
ENDBRANCH  21  23
ENDBRANCH  20  22
ENDBRANCH  19  20
ENDBRANCH  18  19
ENDBRANCH  16  18
ENDBRANCH   1  16
TORSDOF 7
ENDMDL
MODEL 3
REMARK VINA RESULT:      -7.0      2.832      6.934
REMARK  Name = 
REMARK  10 active torsions:
REMARK  status: ('A' for Active; 'I' for Inactive)
REMARK    1  A    between atoms: C_1  and  C_2
REMARK    2  A    between atoms: C_2  and  C_3
REMARK    3  A    between atoms: C_3  and  C_4
REMARK    4  A    between atoms: N_5  and  C_6
REMARK    5  A    between atoms: C_6  and  C_7
REMARK    6  A    between atoms: C_7  and  C_8
REMARK    7  A    between atoms: C_8  and  N_9
REMARK    8  A    between atoms: N_9  and  C_10
REMARK    9  A    between atoms: C_13  and  C_14
REMARK   10  A    between atoms: N_23  and  C_24
REMARK                            x       y       z     vdW  Elec       q    Type
REMARK                         _______ _______ _______ _____ _____    ______ ____
ROOT
ATOM      1  C   UNL     1       4.212   5.603  17.292  0.00  0.00    +0.000 A 
ATOM      2  N   UNL     1       4.193   6.810  16.674  0.00  0.00    +0.000 NA
ATOM      3  C   UNL     1       3.439   7.814  17.159  0.00  0.00    +0.000 A 
ATOM      4  C   UNL     1       2.635   7.756  18.293  0.00  0.00    +0.000 A 
ATOM      5  C   UNL     1       1.830   8.958  18.684  0.00  0.00    +0.000 C 
ATOM      6  C   UNL     1       2.680   6.521  18.968  0.00  0.00    +0.000 A 
ATOM      7  C   UNL     1       3.454   5.444  18.492  0.00  0.00    +0.000 A 
ATOM      8  C   UNL     1       3.276   4.355  19.423  0.00  0.00    +0.000 A 
ATOM      9  C   UNL     1       3.783   3.047  19.516  0.00  0.00    +0.000 A 
ATOM     10  N   UNL     1       3.447   2.232  20.546  0.00  0.00    +0.000 NA
ATOM     11  C   UNL     1       2.600   2.687  21.485  0.00  0.00    +0.000 A 
ATOM     12  C   UNL     1       2.038   3.950  21.487  0.00  0.00    +0.000 A 
ATOM     13  C   UNL     1       2.404   4.787  20.424  0.00  0.00    +0.000 A 
ATOM     14  N   UNL     1       2.050   6.084  20.125  0.00  0.00    +0.000 N 
ATOM     15  C   UNL     1       1.153   6.885  20.934  0.00  0.00    +0.000 C 
ENDROOT
BRANCH   1  16
ATOM     16  N   UNL     1       4.950   4.573  16.706  0.00  0.00    +0.000 N 
ATOM     17  H   UNL     1       4.521   3.669  16.809  0.00  0.00    +0.000 HD
BRANCH  16  18
ATOM     18  C   UNL     1       6.390   4.581  16.949  0.00  0.00    +0.000 C 
BRANCH  18  19
ATOM     19  C   UNL     1       7.124   4.322  15.631  0.00  0.00    +0.000 C 
BRANCH  19  20
ATOM     20  C   UNL     1       6.370   4.888  14.428  0.00  0.00    +0.000 C 
BRANCH  20  22
ATOM     21  C   UNL     1       5.228   4.028  12.597  0.00  0.00    +0.000 C 
ATOM     22  N   UNL     1       6.105   3.777  13.504  0.00  0.00    +0.000 NA
BRANCH  21  23
ATOM     23  C   UNL     1       4.860   2.967  11.592  0.00  0.00    +0.000 C 
BRANCH  23  25
ATOM     24  C   UNL     1       3.291   3.803   9.781  0.00  0.00    +0.000 C 
ATOM     25  C   UNL     1       3.414   3.101  11.126  0.00  0.00    +0.000 C 
ENDBRANCH  23  25
ENDBRANCH  21  23
ENDBRANCH  20  22
ENDBRANCH  19  20
ENDBRANCH  18  19
ENDBRANCH  16  18
ENDBRANCH   1  16
TORSDOF 7
ENDMDL
MODEL 4
REMARK VINA RESULT:      -7.0      2.928      6.747
REMARK  Name = 
REMARK  10 active torsions:
REMARK  status: ('A' for Active; 'I' for Inactive)
REMARK    1  A    between atoms: C_1  and  C_2
REMARK    2  A    between atoms: C_2  and  C_3
REMARK    3  A    between atoms: C_3  and  C_4
REMARK    4  A    between atoms: N_5  and  C_6
REMARK    5  A    between atoms: C_6  and  C_7
REMARK    6  A    between atoms: C_7  and  C_8
REMARK    7  A    between atoms: C_8  and  N_9
REMARK    8  A    between atoms: N_9  and  C_10
REMARK    9  A    between atoms: C_13  and  C_14
REMARK   10  A    between atoms: N_23  and  C_24
REMARK                            x       y       z     vdW  Elec       q    Type
REMARK                         _______ _______ _______ _____ _____    ______ ____
ROOT
ATOM      1  C   UNL     1       4.471   3.736  18.158  0.00  0.00    +0.000 A 
ATOM      2  N   UNL     1       4.409   2.551  18.814  0.00  0.00    +0.000 NA
ATOM      3  C   UNL     1       3.637   2.416  19.909  0.00  0.00    +0.000 A 
ATOM      4  C   UNL     1       2.841   3.407  20.473  0.00  0.00    +0.000 A 
ATOM      5  C   UNL     1       2.061   3.104  21.715  0.00  0.00    +0.000 C 
ATOM      6  C   UNL     1       2.864   4.631  19.775  0.00  0.00    +0.000 A 
ATOM      7  C   UNL     1       3.660   4.814  18.627  0.00  0.00    +0.000 A 
ATOM      8  C   UNL     1       3.433   6.165  18.170  0.00  0.00    +0.000 A 
ATOM      9  C   UNL     1       3.905   6.930  17.090  0.00  0.00    +0.000 A 
ATOM     10  N   UNL     1       3.487   8.205  16.892  0.00  0.00    +0.000 NA
ATOM     11  C   UNL     1       2.613   8.744  17.760  0.00  0.00    +0.000 A 
ATOM     12  C   UNL     1       2.091   8.084  18.858  0.00  0.00    +0.000 A 
ATOM     13  C   UNL     1       2.522   6.764  19.043  0.00  0.00    +0.000 A 
ATOM     14  N   UNL     1       2.203   5.830  20.004  0.00  0.00    +0.000 N 
ATOM     15  C   UNL     1       1.280   6.073  21.094  0.00  0.00    +0.000 C 
ENDROOT
BRANCH   1  16
ATOM     16  N   UNL     1       5.345   3.846  17.075  0.00  0.00    +0.000 N 
ATOM     17  H   UNL     1       5.441   2.992  16.553  0.00  0.00    +0.000 HD
BRANCH  16  18
ATOM     18  C   UNL     1       6.608   4.537  17.324  0.00  0.00    +0.000 C 
BRANCH  18  19
ATOM     19  C   UNL     1       7.085   5.196  16.028  0.00  0.00    +0.000 C 
BRANCH  19  20
ATOM     20  C   UNL     1       6.056   5.075  14.904  0.00  0.00    +0.000 C 
BRANCH  20  22
ATOM     21  C   UNL     1       6.227   3.888  12.914  0.00  0.00    +0.000 C 
ATOM     22  N   UNL     1       6.314   3.814  14.195  0.00  0.00    +0.000 NA
BRANCH  21  23
ATOM     23  C   UNL     1       6.462   2.661  12.071  0.00  0.00    +0.000 C 
BRANCH  23  25
ATOM     24  C   UNL     1       4.112   3.311  11.368  0.00  0.00    +0.000 C 
ATOM     25  C   UNL     1       5.225   2.279  11.264  0.00  0.00    +0.000 C 
ENDBRANCH  23  25
ENDBRANCH  21  23
ENDBRANCH  20  22
ENDBRANCH  19  20
ENDBRANCH  18  19
ENDBRANCH  16  18
ENDBRANCH   1  16
TORSDOF 7
ENDMDL
MODEL 5
REMARK VINA RESULT:      -7.0      0.947      1.163
REMARK  Name = 
REMARK  10 active torsions:
REMARK  status: ('A' for Active; 'I' for Inactive)
REMARK    1  A    between atoms: C_1  and  C_2
REMARK    2  A    between atoms: C_2  and  C_3
REMARK    3  A    between atoms: C_3  and  C_4
REMARK    4  A    between atoms: N_5  and  C_6
REMARK    5  A    between atoms: C_6  and  C_7
REMARK    6  A    between atoms: C_7  and  C_8
REMARK    7  A    between atoms: C_8  and  N_9
REMARK    8  A    between atoms: N_9  and  C_10
REMARK    9  A    between atoms: C_13  and  C_14
REMARK   10  A    between atoms: N_23  and  C_24
REMARK                            x       y       z     vdW  Elec       q    Type
REMARK                         _______ _______ _______ _____ _____    ______ ____
ROOT
ATOM      1  C   UNL     1       2.520   6.607  19.259  0.00  0.00    +0.000 A 
ATOM      2  N   UNL     1       1.724   6.262  20.302  0.00  0.00    +0.000 NA
ATOM      3  C   UNL     1       1.498   4.966  20.590  0.00  0.00    +0.000 A 
ATOM      4  C   UNL     1       2.023   3.875  19.904  0.00  0.00    +0.000 A 
ATOM      5  C   UNL     1       1.648   2.490  20.333  0.00  0.00    +0.000 C 
ATOM      6  C   UNL     1       2.884   4.221  18.844  0.00  0.00    +0.000 A 
ATOM      7  C   UNL     1       3.145   5.565  18.510  0.00  0.00    +0.000 A 
ATOM      8  C   UNL     1       4.066   5.549  17.398  0.00  0.00    +0.000 A 
ATOM      9  C   UNL     1       4.708   6.542  16.638  0.00  0.00    +0.000 A 
ATOM     10  N   UNL     1       5.565   6.222  15.638  0.00  0.00    +0.000 NA
ATOM     11  C   UNL     1       5.789   4.924  15.365  0.00  0.00    +0.000 A 
ATOM     12  C   UNL     1       5.207   3.869  16.043  0.00  0.00    +0.000 A 
ATOM     13  C   UNL     1       4.333   4.215  17.083  0.00  0.00    +0.000 A 
ATOM     14  N   UNL     1       3.605   3.436  17.955  0.00  0.00    +0.000 N 
ATOM     15  C   UNL     1       3.616   1.987  17.949  0.00  0.00    +0.000 C 
ENDROOT
BRANCH   1  16
ATOM     16  N   UNL     1       2.660   7.963  18.956  0.00  0.00    +0.000 N 
ATOM     17  H   UNL     1       2.721   8.548  19.772  0.00  0.00    +0.000 HD
BRANCH  16  18
ATOM     18  C   UNL     1       1.790   8.491  17.908  0.00  0.00    +0.000 C 
BRANCH  18  19
ATOM     19  C   UNL     1       1.320   9.892  18.303  0.00  0.00    +0.000 C 
BRANCH  19  20
ATOM     20  C   UNL     1       0.488   9.883  19.587  0.00  0.00    +0.000 C 
BRANCH  20  22
ATOM     21  C   UNL     1      -0.945  11.154  18.273  0.00  0.00    +0.000 C 
ATOM     22  N   UNL     1      -0.875  10.308  19.239  0.00  0.00    +0.000 NA
BRANCH  21  23
ATOM     23  C   UNL     1      -2.286  11.675  17.825  0.00  0.00    +0.000 C 
BRANCH  23  25
ATOM     24  C   UNL     1      -4.522  10.475  17.875  0.00  0.00    +0.000 C 
ATOM     25  C   UNL     1      -3.152  10.574  17.220  0.00  0.00    +0.000 C 
ENDBRANCH  23  25
ENDBRANCH  21  23
ENDBRANCH  20  22
ENDBRANCH  19  20
ENDBRANCH  18  19
ENDBRANCH  16  18
ENDBRANCH   1  16
TORSDOF 7
ENDMDL
MODEL 6
REMARK VINA RESULT:      -7.0      1.825      3.815
REMARK  Name = 
REMARK  10 active torsions:
REMARK  status: ('A' for Active; 'I' for Inactive)
REMARK    1  A    between atoms: C_1  and  C_2
REMARK    2  A    between atoms: C_2  and  C_3
REMARK    3  A    between atoms: C_3  and  C_4
REMARK    4  A    between atoms: N_5  and  C_6
REMARK    5  A    between atoms: C_6  and  C_7
REMARK    6  A    between atoms: C_7  and  C_8
REMARK    7  A    between atoms: C_8  and  N_9
REMARK    8  A    between atoms: N_9  and  C_10
REMARK    9  A    between atoms: C_13  and  C_14
REMARK   10  A    between atoms: N_23  and  C_24
REMARK                            x       y       z     vdW  Elec       q    Type
REMARK                         _______ _______ _______ _____ _____    ______ ____
ROOT
ATOM      1  C   UNL     1       2.082   7.199  19.865  0.00  0.00    +0.000 A 
ATOM      2  N   UNL     1       2.214   8.197  18.955  0.00  0.00    +0.000 NA
ATOM      3  C   UNL     1       3.015   8.042  17.884  0.00  0.00    +0.000 A 
ATOM      4  C   UNL     1       3.761   6.908  17.579  0.00  0.00    +0.000 A 
ATOM      5  C   UNL     1       4.630   6.906  16.359  0.00  0.00    +0.000 C 
ATOM      6  C   UNL     1       3.599   5.850  18.495  0.00  0.00    +0.000 A 
ATOM      7  C   UNL     1       2.772   5.971  19.630  0.00  0.00    +0.000 A 
ATOM      8  C   UNL     1       2.832   4.710  20.330  0.00  0.00    +0.000 A 
ATOM      9  C   UNL     1       2.230   4.201  21.493  0.00  0.00    +0.000 A 
ATOM     10  N   UNL     1       2.460   2.932  21.911  0.00  0.00    +0.000 NA
ATOM     11  C   UNL     1       3.295   2.156  21.197  0.00  0.00    +0.000 A 
ATOM     12  C   UNL     1       3.944   2.556  20.044  0.00  0.00    +0.000 A 
ATOM     13  C   UNL     1       3.686   3.866  19.618  0.00  0.00    +0.000 A 
ATOM     14  N   UNL     1       4.144   4.573  18.528  0.00  0.00    +0.000 N 
ATOM     15  C   UNL     1       5.057   4.037  17.540  0.00  0.00    +0.000 C 
ENDROOT
BRANCH   1  16
ATOM     16  N   UNL     1       1.301   7.438  20.997  0.00  0.00    +0.000 N 
ATOM     17  H   UNL     1       0.335   7.189  20.873  0.00  0.00    +0.000 HD
BRANCH  16  18
ATOM     18  C   UNL     1       1.504   8.718  21.672  0.00  0.00    +0.000 C 
BRANCH  18  19
ATOM     19  C   UNL     1       0.163   9.221  22.211  0.00  0.00    +0.000 C 
BRANCH  19  20
ATOM     20  C   UNL     1      -0.189  10.611  21.680  0.00  0.00    +0.000 C 
BRANCH  20  22
ATOM     21  C   UNL     1      -0.930  10.219  19.514  0.00  0.00    +0.000 C 
ATOM     22  N   UNL     1       0.061  10.613  20.233  0.00  0.00    +0.000 NA
BRANCH  21  23
ATOM     23  C   UNL     1      -0.799  10.167  18.014  0.00  0.00    +0.000 C 
BRANCH  23  25
ATOM     24  C   UNL     1      -2.682   9.856  16.342  0.00  0.00    +0.000 C 
ATOM     25  C   UNL     1      -1.997  10.803  17.315  0.00  0.00    +0.000 C 
ENDBRANCH  23  25
ENDBRANCH  21  23
ENDBRANCH  20  22
ENDBRANCH  19  20
ENDBRANCH  18  19
ENDBRANCH  16  18
ENDBRANCH   1  16
TORSDOF 7
ENDMDL
MODEL 7
REMARK VINA RESULT:      -7.0      2.871      7.425
REMARK  Name = 
REMARK  10 active torsions:
REMARK  status: ('A' for Active; 'I' for Inactive)
REMARK    1  A    between atoms: C_1  and  C_2
REMARK    2  A    between atoms: C_2  and  C_3
REMARK    3  A    between atoms: C_3  and  C_4
REMARK    4  A    between atoms: N_5  and  C_6
REMARK    5  A    between atoms: C_6  and  C_7
REMARK    6  A    between atoms: C_7  and  C_8
REMARK    7  A    between atoms: C_8  and  N_9
REMARK    8  A    between atoms: N_9  and  C_10
REMARK    9  A    between atoms: C_13  and  C_14
REMARK   10  A    between atoms: N_23  and  C_24
REMARK                            x       y       z     vdW  Elec       q    Type
REMARK                         _______ _______ _______ _____ _____    ______ ____
ROOT
ATOM      1  C   UNL     1       4.404   5.589  17.415  0.00  0.00    +0.000 A 
ATOM      2  N   UNL     1       4.388   6.787  16.780  0.00  0.00    +0.000 NA
ATOM      3  C   UNL     1       3.588   7.779  17.213  0.00  0.00    +0.000 A 
ATOM      4  C   UNL     1       2.731   7.717  18.307  0.00  0.00    +0.000 A 
ATOM      5  C   UNL     1       1.881   8.904  18.642  0.00  0.00    +0.000 C 
ATOM      6  C   UNL     1       2.770   6.492  19.001  0.00  0.00    +0.000 A 
ATOM      7  C   UNL     1       3.592   5.427  18.579  0.00  0.00    +0.000 A 
ATOM      8  C   UNL     1       3.392   4.346  19.515  0.00  0.00    +0.000 A 
ATOM      9  C   UNL     1       3.924   3.052  19.651  0.00  0.00    +0.000 A 
ATOM     10  N   UNL     1       3.556   2.243  20.674  0.00  0.00    +0.000 NA
ATOM     11  C   UNL     1       2.653   2.690  21.564  0.00  0.00    +0.000 A 
ATOM     12  C   UNL     1       2.063   3.939  21.521  0.00  0.00    +0.000 A 
ATOM     13  C   UNL     1       2.462   4.771  20.465  0.00  0.00    +0.000 A 
ATOM     14  N   UNL     1       2.093   6.055  20.132  0.00  0.00    +0.000 N 
ATOM     15  C   UNL     1       1.140   6.846  20.884  0.00  0.00    +0.000 C 
ENDROOT
BRANCH   1  16
ATOM     16  N   UNL     1       5.193   4.569  16.880  0.00  0.00    +0.000 N 
ATOM     17  H   UNL     1       4.874   3.648  17.128  0.00  0.00    +0.000 HD
BRANCH  16  18
ATOM     18  C   UNL     1       6.640   4.744  16.977  0.00  0.00    +0.000 C 
BRANCH  18  19
ATOM     19  C   UNL     1       7.292   4.267  15.677  0.00  0.00    +0.000 C 
BRANCH  19  20
ATOM     20  C   UNL     1       6.613   4.854  14.439  0.00  0.00    +0.000 C 
BRANCH  20  22
ATOM     21  C   UNL     1       5.838   3.850  12.493  0.00  0.00    +0.000 C 
ATOM     22  N   UNL     1       5.877   3.769  13.776  0.00  0.00    +0.000 NA
BRANCH  21  23
ATOM     23  C   UNL     1       5.106   2.802  11.696  0.00  0.00    +0.000 C 
BRANCH  23  25
ATOM     24  C   UNL     1       7.371   1.885  11.010  0.00  0.00    +0.000 C 
ATOM     25  C   UNL     1       5.959   1.557  11.472  0.00  0.00    +0.000 C 
ENDBRANCH  23  25
ENDBRANCH  21  23
ENDBRANCH  20  22
ENDBRANCH  19  20
ENDBRANCH  18  19
ENDBRANCH  16  18
ENDBRANCH   1  16
TORSDOF 7
ENDMDL
MODEL 8
REMARK VINA RESULT:      -6.9      2.866      7.053
REMARK  Name = 
REMARK  10 active torsions:
REMARK  status: ('A' for Active; 'I' for Inactive)
REMARK    1  A    between atoms: C_1  and  C_2
REMARK    2  A    between atoms: C_2  and  C_3
REMARK    3  A    between atoms: C_3  and  C_4
REMARK    4  A    between atoms: N_5  and  C_6
REMARK    5  A    between atoms: C_6  and  C_7
REMARK    6  A    between atoms: C_7  and  C_8
REMARK    7  A    between atoms: C_8  and  N_9
REMARK    8  A    between atoms: N_9  and  C_10
REMARK    9  A    between atoms: C_13  and  C_14
REMARK   10  A    between atoms: N_23  and  C_24
REMARK                            x       y       z     vdW  Elec       q    Type
REMARK                         _______ _______ _______ _____ _____    ______ ____
ROOT
ATOM      1  C   UNL     1       4.202   5.493  17.185  0.00  0.00    +0.000 A 
ATOM      2  N   UNL     1       4.226   6.689  16.546  0.00  0.00    +0.000 NA
ATOM      3  C   UNL     1       3.536   7.738  17.033  0.00  0.00    +0.000 A 
ATOM      4  C   UNL     1       2.761   7.739  18.188  0.00  0.00    +0.000 A 
ATOM      5  C   UNL     1       2.028   8.985  18.579  0.00  0.00    +0.000 C 
ATOM      6  C   UNL     1       2.762   6.514  18.883  0.00  0.00    +0.000 A 
ATOM      7  C   UNL     1       3.469   5.392  18.407  0.00  0.00    +0.000 A 
ATOM      8  C   UNL     1       3.262   4.328  19.361  0.00  0.00    +0.000 A 
ATOM      9  C   UNL     1       3.706   2.999  19.465  0.00  0.00    +0.000 A 
ATOM     10  N   UNL     1       3.358   2.218  20.517  0.00  0.00    +0.000 NA
ATOM     11  C   UNL     1       2.559   2.731  21.470  0.00  0.00    +0.000 A 
ATOM     12  C   UNL     1       2.061   4.020  21.463  0.00  0.00    +0.000 A 
ATOM     13  C   UNL     1       2.439   4.820  20.377  0.00  0.00    +0.000 A 
ATOM     14  N   UNL     1       2.142   6.128  20.064  0.00  0.00    +0.000 N 
ATOM     15  C   UNL     1       1.309   6.986  20.881  0.00  0.00    +0.000 C 
ENDROOT
BRANCH   1  16
ATOM     16  N   UNL     1       4.871   4.418  16.598  0.00  0.00    +0.000 N 
ATOM     17  H   UNL     1       5.602   4.040  17.177  0.00  0.00    +0.000 HD
BRANCH  16  18
ATOM     18  C   UNL     1       5.243   4.568  15.193  0.00  0.00    +0.000 C 
BRANCH  18  19
ATOM     19  C   UNL     1       6.765   4.479  15.063  0.00  0.00    +0.000 C 
BRANCH  19  20
ATOM     20  C   UNL     1       7.460   4.411  16.423  0.00  0.00    +0.000 C 
BRANCH  20  22
ATOM     21  C   UNL     1       7.909   5.886  18.161  0.00  0.00    +0.000 C 
ATOM     22  N   UNL     1       7.617   5.788  16.913  0.00  0.00    +0.000 NA
BRANCH  21  23
ATOM     23  C   UNL     1       8.089   7.243  18.788  0.00  0.00    +0.000 C 
BRANCH  23  25
ATOM     24  C   UNL     1       8.579   9.678  18.266  0.00  0.00    +0.000 C 
ATOM     25  C   UNL     1       8.008   8.364  17.755  0.00  0.00    +0.000 C 
ENDBRANCH  23  25
ENDBRANCH  21  23
ENDBRANCH  20  22
ENDBRANCH  19  20
ENDBRANCH  18  19
ENDBRANCH  16  18
ENDBRANCH   1  16
TORSDOF 7
ENDMDL
MODEL 9
REMARK VINA RESULT:      -6.9      2.902      6.547
REMARK  Name = 
REMARK  10 active torsions:
REMARK  status: ('A' for Active; 'I' for Inactive)
REMARK    1  A    between atoms: C_1  and  C_2
REMARK    2  A    between atoms: C_2  and  C_3
REMARK    3  A    between atoms: C_3  and  C_4
REMARK    4  A    between atoms: N_5  and  C_6
REMARK    5  A    between atoms: C_6  and  C_7
REMARK    6  A    between atoms: C_7  and  C_8
REMARK    7  A    between atoms: C_8  and  N_9
REMARK    8  A    between atoms: N_9  and  C_10
REMARK    9  A    between atoms: C_13  and  C_14
REMARK   10  A    between atoms: N_23  and  C_24
REMARK                            x       y       z     vdW  Elec       q    Type
REMARK                         _______ _______ _______ _____ _____    ______ ____
ROOT
ATOM      1  C   UNL     1       4.477   3.683  18.249  0.00  0.00    +0.000 A 
ATOM      2  N   UNL     1       4.393   2.497  18.903  0.00  0.00    +0.000 NA
ATOM      3  C   UNL     1       3.587   2.362  19.973  0.00  0.00    +0.000 A 
ATOM      4  C   UNL     1       2.775   3.355  20.513  0.00  0.00    +0.000 A 
ATOM      5  C   UNL     1       1.956   3.052  21.730  0.00  0.00    +0.000 C 
ATOM      6  C   UNL     1       2.822   4.579  19.817  0.00  0.00    +0.000 A 
ATOM      7  C   UNL     1       3.654   4.762  18.694  0.00  0.00    +0.000 A 
ATOM      8  C   UNL     1       3.443   6.113  18.231  0.00  0.00    +0.000 A 
ATOM      9  C   UNL     1       3.949   6.878  17.166  0.00  0.00    +0.000 A 
ATOM     10  N   UNL     1       3.540   8.153  16.956  0.00  0.00    +0.000 NA
ATOM     11  C   UNL     1       2.640   8.693  17.797  0.00  0.00    +0.000 A 
ATOM     12  C   UNL     1       2.084   8.035  18.878  0.00  0.00    +0.000 A 
ATOM     13  C   UNL     1       2.507   6.713  19.075  0.00  0.00    +0.000 A 
ATOM     14  N   UNL     1       2.157   5.780  20.025  0.00  0.00    +0.000 N 
ATOM     15  C   UNL     1       1.200   6.023  21.086  0.00  0.00    +0.000 C 
ENDROOT
BRANCH   1  16
ATOM     16  N   UNL     1       5.384   3.792  17.194  0.00  0.00    +0.000 N 
ATOM     17  H   UNL     1       6.051   4.534  17.319  0.00  0.00    +0.000 HD
BRANCH  16  18
ATOM     18  C   UNL     1       4.831   3.708  15.845  0.00  0.00    +0.000 C 
BRANCH  18  19
ATOM     19  C   UNL     1       5.697   4.536  14.893  0.00  0.00    +0.000 C 
BRANCH  19  20
ATOM     20  C   UNL     1       7.104   4.768  15.445  0.00  0.00    +0.000 C 
BRANCH  20  22
ATOM     21  C   UNL     1       7.602   5.910  17.406  0.00  0.00    +0.000 C 
ATOM     22  N   UNL     1       7.075   6.006  16.236  0.00  0.00    +0.000 NA
BRANCH  21  23
ATOM     23  C   UNL     1       7.628   7.108  18.320  0.00  0.00    +0.000 C 
BRANCH  23  25
ATOM     24  C   UNL     1       8.657   9.427  18.335  0.00  0.00    +0.000 C 
ATOM     25  C   UNL     1       7.845   8.407  17.551  0.00  0.00    +0.000 C 
ENDBRANCH  23  25
ENDBRANCH  21  23
ENDBRANCH  20  22
ENDBRANCH  19  20
ENDBRANCH  18  19
ENDBRANCH  16  18
ENDBRANCH   1  16
TORSDOF 7
ENDMDL
