MODEL 1
REMARK VINA RESULT:      -8.8      0.000      0.000
REMARK  Name = 
REMARK  3 active torsions:
REMARK  status: ('A' for Active; 'I' for Inactive)
REMARK    1  A    between atoms: C_4  and  C_5
REMARK    2  A    between atoms: C_10  and  N_11
REMARK    3  A    between atoms: C_17  and  C_18
REMARK                            x       y       z     vdW  Elec       q    Type
REMARK                         _______ _______ _______ _____ _____    ______ ____
ROOT
ATOM      1  O   UNL     1       2.953   4.608  20.499  0.00  0.00    +0.000 OA
ATOM      2  C   UNL     1       2.970   5.503  19.672  0.00  0.00    +0.000 A 
ATOM      3  C   UNL     1       3.648   5.559  18.341  0.00  0.00    +0.000 A 
ATOM      4  C   UNL     1       4.501   4.591  17.973  0.00  0.00    +0.000 C 
ATOM      5  S   UNL     1       3.292   7.035  17.463  0.00  0.00    +0.000 S 
ATOM      6  C   UNL     1       2.413   7.611  18.819  0.00  0.00    +0.000 A 
ATOM      7  N   UNL     1       1.796   8.714  19.119  0.00  0.00    +0.000 NA
ATOM      8  C   UNL     1       1.356   8.453  20.413  0.00  0.00    +0.000 A 
ATOM      9  N   UNL     1       1.668   7.221  20.875  0.00  0.00    +0.000 NA
ATOM     10  N   UNL     1       2.350   6.724  19.829  0.00  0.00    +0.000 N 
ENDROOT
BRANCH   8  11
ATOM     11  C   UNL     1       0.630   9.457  21.187  0.00  0.00    +0.000 A 
ATOM     12  C   UNL     1      -0.028   9.085  22.371  0.00  0.00    +0.000 A 
ATOM     13  C   UNL     1      -0.742  10.028  23.113  0.00  0.00    +0.000 A 
ATOM     14  C   UNL     1      -0.802  11.343  22.671  0.00  0.00    +0.000 A 
ATOM     15  F   UNL     1      -1.493  12.245  23.379  0.00  0.00    +0.000 F 
ATOM     16  C   UNL     1      -0.158  11.735  21.504  0.00  0.00    +0.000 A 
ATOM     17  C   UNL     1       0.560  10.793  20.761  0.00  0.00    +0.000 A 
ENDBRANCH   8  11
BRANCH   4  18
ATOM     18  C   UNL     1       5.348   4.640  16.773  0.00  0.00    +0.000 A 
ATOM     19  C   UNL     1       4.810   4.215  15.551  0.00  0.00    +0.000 A 
ATOM     20  C   UNL     1       5.581   4.245  14.383  0.00  0.00    +0.000 A 
ATOM     21  C   UNL     1       6.900   4.705  14.414  0.00  0.00    +0.000 A 
ATOM     22  C   UNL     1       7.459   5.127  15.617  0.00  0.00    +0.000 A 
ATOM     23  C   UNL     1       6.682   5.088  16.783  0.00  0.00    +0.000 A 
BRANCH  23  24
ATOM     24  N   UNL     1       7.319   5.503  18.022  0.00  0.00    +0.000 N 
ATOM     25  O   UNL     1       7.329   6.714  18.286  0.00  0.00    +0.000 OA
ATOM     26  O   UNL     1       7.822   4.612  18.719  0.00  0.00    +0.000 OA
ENDBRANCH  23  24
ENDBRANCH   4  18
TORSDOF 3
ENDMDL
MODEL 2
REMARK VINA RESULT:      -8.7      0.128      1.128
REMARK  Name = 
REMARK  3 active torsions:
REMARK  status: ('A' for Active; 'I' for Inactive)
REMARK    1  A    between atoms: C_4  and  C_5
REMARK    2  A    between atoms: C_10  and  N_11
REMARK    3  A    between atoms: C_17  and  C_18
REMARK                            x       y       z     vdW  Elec       q    Type
REMARK                         _______ _______ _______ _____ _____    ______ ____
ROOT
ATOM      1  O   UNL     1       2.951   4.513  20.413  0.00  0.00    +0.000 OA
ATOM      2  C   UNL     1       2.980   5.424  19.604  0.00  0.00    +0.000 A 
ATOM      3  C   UNL     1       3.678   5.506  18.285  0.00  0.00    +0.000 A 
ATOM      4  C   UNL     1       4.538   4.547  17.912  0.00  0.00    +0.000 C 
ATOM      5  S   UNL     1       3.334   6.999  17.431  0.00  0.00    +0.000 S 
ATOM      6  C   UNL     1       2.434   7.548  18.783  0.00  0.00    +0.000 A 
ATOM      7  N   UNL     1       1.811   8.644  19.095  0.00  0.00    +0.000 NA
ATOM      8  C   UNL     1       1.351   8.357  20.377  0.00  0.00    +0.000 A 
ATOM      9  N   UNL     1       1.658   7.117  20.820  0.00  0.00    +0.000 NA
ATOM     10  N   UNL     1       2.356   6.641  19.775  0.00  0.00    +0.000 N 
ENDROOT
BRANCH   8  11
ATOM     11  C   UNL     1       0.612   9.345  21.159  0.00  0.00    +0.000 A 
ATOM     12  C   UNL     1       0.364  10.619  20.620  0.00  0.00    +0.000 A 
ATOM     13  C   UNL     1      -0.325  11.582  21.360  0.00  0.00    +0.000 A 
ATOM     14  C   UNL     1      -0.765  11.274  22.641  0.00  0.00    +0.000 A 
ATOM     15  F   UNL     1      -1.419  12.200  23.353  0.00  0.00    +0.000 F 
ATOM     16  C   UNL     1      -0.534  10.020  23.195  0.00  0.00    +0.000 A 
ATOM     17  C   UNL     1       0.153   9.054  22.454  0.00  0.00    +0.000 A 
ENDBRANCH   8  11
BRANCH   4  18
ATOM     18  C   UNL     1       5.404   4.620  16.727  0.00  0.00    +0.000 A 
ATOM     19  C   UNL     1       4.886   4.217  15.489  0.00  0.00    +0.000 A 
ATOM     20  C   UNL     1       5.676   4.271  14.334  0.00  0.00    +0.000 A 
ATOM     21  C   UNL     1       6.992   4.732  14.394  0.00  0.00    +0.000 A 
ATOM     22  C   UNL     1       7.532   5.132  15.613  0.00  0.00    +0.000 A 
ATOM     23  C   UNL     1       6.736   5.071  16.766  0.00  0.00    +0.000 A 
BRANCH  23  24
ATOM     24  N   UNL     1       7.353   5.463  18.022  0.00  0.00    +0.000 N 
ATOM     25  O   UNL     1       7.820   4.566  18.739  0.00  0.00    +0.000 OA
ATOM     26  O   UNL     1       7.353   6.672  18.292  0.00  0.00    +0.000 OA
ENDBRANCH  23  24
ENDBRANCH   4  18
TORSDOF 3
ENDMDL
MODEL 3
REMARK VINA RESULT:      -8.4      2.369      3.212
REMARK  Name = 
REMARK  3 active torsions:
REMARK  status: ('A' for Active; 'I' for Inactive)
REMARK    1  A    between atoms: C_4  and  C_5
REMARK    2  A    between atoms: C_10  and  N_11
REMARK    3  A    between atoms: C_17  and  C_18
REMARK                            x       y       z     vdW  Elec       q    Type
REMARK                         _______ _______ _______ _____ _____    ______ ____
ROOT
ATOM      1  O   UNL     1       2.276   8.966  17.359  0.00  0.00    +0.000 OA
ATOM      2  C   UNL     1       2.088   8.387  18.414  0.00  0.00    +0.000 A 
ATOM      3  C   UNL     1       2.370   6.967  18.785  0.00  0.00    +0.000 A 
ATOM      4  C   UNL     1       2.754   6.085  17.851  0.00  0.00    +0.000 C 
ATOM      5  S   UNL     1       2.016   6.626  20.469  0.00  0.00    +0.000 S 
ATOM      6  C   UNL     1       1.404   8.218  20.647  0.00  0.00    +0.000 A 
ATOM      7  N   UNL     1       0.839   8.889  21.605  0.00  0.00    +0.000 NA
ATOM      8  C   UNL     1       0.587  10.112  20.988  0.00  0.00    +0.000 A 
ATOM      9  N   UNL     1       1.012  10.193  19.707  0.00  0.00    +0.000 NA
ATOM     10  N   UNL     1       1.518   8.960  19.530  0.00  0.00    +0.000 N 
ENDROOT
BRANCH   8  11
ATOM     11  C   UNL     1      -0.097  11.193  21.694  0.00  0.00    +0.000 A 
ATOM     12  C   UNL     1      -1.058  10.890  22.672  0.00  0.00    +0.000 A 
ATOM     13  C   UNL     1      -1.734  11.910  23.344  0.00  0.00    +0.000 A 
ATOM     14  C   UNL     1      -1.452  13.235  23.036  0.00  0.00    +0.000 A 
ATOM     15  F   UNL     1      -2.107  14.213  23.675  0.00  0.00    +0.000 F 
ATOM     16  C   UNL     1      -0.504  13.560  22.073  0.00  0.00    +0.000 A 
ATOM     17  C   UNL     1       0.176  12.539  21.402  0.00  0.00    +0.000 A 
ENDBRANCH   8  11
BRANCH   4  18
ATOM     18  C   UNL     1       2.882   4.638  18.074  0.00  0.00    +0.000 A 
ATOM     19  C   UNL     1       1.739   3.835  17.970  0.00  0.00    +0.000 A 
ATOM     20  C   UNL     1       1.816   2.453  18.175  0.00  0.00    +0.000 A 
ATOM     21  C   UNL     1       3.036   1.847  18.482  0.00  0.00    +0.000 A 
ATOM     22  C   UNL     1       4.186   2.623  18.597  0.00  0.00    +0.000 A 
ATOM     23  C   UNL     1       4.099   4.008  18.396  0.00  0.00    +0.000 A 
BRANCH  23  24
ATOM     24  N   UNL     1       5.318   4.783  18.562  0.00  0.00    +0.000 N 
ATOM     25  O   UNL     1       6.070   4.889  17.583  0.00  0.00    +0.000 OA
ATOM     26  O   UNL     1       5.523   5.269  19.682  0.00  0.00    +0.000 OA
ENDBRANCH  23  24
ENDBRANCH   4  18
TORSDOF 3
ENDMDL
MODEL 4
REMARK VINA RESULT:      -8.3      2.376      3.356
REMARK  Name = 
REMARK  3 active torsions:
REMARK  status: ('A' for Active; 'I' for Inactive)
REMARK    1  A    between atoms: C_4  and  C_5
REMARK    2  A    between atoms: C_10  and  N_11
REMARK    3  A    between atoms: C_17  and  C_18
REMARK                            x       y       z     vdW  Elec       q    Type
REMARK                         _______ _______ _______ _____ _____    ______ ____
ROOT
ATOM      1  O   UNL     1       2.278   9.007  17.359  0.00  0.00    +0.000 OA
ATOM      2  C   UNL     1       2.083   8.425  18.412  0.00  0.00    +0.000 A 
ATOM      3  C   UNL     1       2.359   7.003  18.781  0.00  0.00    +0.000 A 
ATOM      4  C   UNL     1       2.745   6.122  17.845  0.00  0.00    +0.000 C 
ATOM      5  S   UNL     1       1.997   6.659  20.462  0.00  0.00    +0.000 S 
ATOM      6  C   UNL     1       1.388   8.252  20.641  0.00  0.00    +0.000 A 
ATOM      7  N   UNL     1       0.821   8.922  21.598  0.00  0.00    +0.000 NA
ATOM      8  C   UNL     1       0.575  10.147  20.984  0.00  0.00    +0.000 A 
ATOM      9  N   UNL     1       1.006  10.231  19.705  0.00  0.00    +0.000 NA
ATOM     10  N   UNL     1       1.510   8.997  19.526  0.00  0.00    +0.000 N 
ENDROOT
BRANCH   8  11
ATOM     11  C   UNL     1      -0.109  11.228  21.689  0.00  0.00    +0.000 A 
ATOM     12  C   UNL     1       0.212  12.564  21.398  0.00  0.00    +0.000 A 
ATOM     13  C   UNL     1      -0.418  13.610  22.075  0.00  0.00    +0.000 A 
ATOM     14  C   UNL     1      -1.368  13.321  23.047  0.00  0.00    +0.000 A 
ATOM     15  F   UNL     1      -1.967  14.324  23.702  0.00  0.00    +0.000 F 
ATOM     16  C   UNL     1      -1.704  12.007  23.351  0.00  0.00    +0.000 A 
ATOM     17  C   UNL     1      -1.076  10.959  22.671  0.00  0.00    +0.000 A 
ENDBRANCH   8  11
BRANCH   4  18
ATOM     18  C   UNL     1       2.868   4.675  18.066  0.00  0.00    +0.000 A 
ATOM     19  C   UNL     1       1.724   3.875  17.949  0.00  0.00    +0.000 A 
ATOM     20  C   UNL     1       1.797   2.492  18.151  0.00  0.00    +0.000 A 
ATOM     21  C   UNL     1       3.013   1.882  18.466  0.00  0.00    +0.000 A 
ATOM     22  C   UNL     1       4.164   2.655  18.593  0.00  0.00    +0.000 A 
ATOM     23  C   UNL     1       4.081   4.041  18.395  0.00  0.00    +0.000 A 
BRANCH  23  24
ATOM     24  N   UNL     1       5.301   4.812  18.574  0.00  0.00    +0.000 N 
ATOM     25  O   UNL     1       5.506   5.310  19.690  0.00  0.00    +0.000 OA
ATOM     26  O   UNL     1       6.040   4.927  17.588  0.00  0.00    +0.000 OA
ENDBRANCH  23  24
ENDBRANCH   4  18
TORSDOF 3
ENDMDL
MODEL 5
REMARK VINA RESULT:      -7.6      4.999     10.057
REMARK  Name = 
REMARK  3 active torsions:
REMARK  status: ('A' for Active; 'I' for Inactive)
REMARK    1  A    between atoms: C_4  and  C_5
REMARK    2  A    between atoms: C_10  and  N_11
REMARK    3  A    between atoms: C_17  and  C_18
REMARK                            x       y       z     vdW  Elec       q    Type
REMARK                         _______ _______ _______ _____ _____    ______ ____
ROOT
ATOM      1  O   UNL     1       0.076   9.480  23.865  0.00  0.00    +0.000 OA
ATOM      2  C   UNL     1      -0.004   9.991  22.762  0.00  0.00    +0.000 A 
ATOM      3  C   UNL     1      -0.738  11.219  22.330  0.00  0.00    +0.000 A 
ATOM      4  C   UNL     1      -1.573  11.842  23.175  0.00  0.00    +0.000 C 
ATOM      5  S   UNL     1      -0.465  11.610  20.642  0.00  0.00    +0.000 S 
ATOM      6  C   UNL     1       0.449  10.170  20.472  0.00  0.00    +0.000 A 
ATOM      7  N   UNL     1       1.043   9.563  19.489  0.00  0.00    +0.000 NA
ATOM      8  C   UNL     1       1.544   8.425  20.114  0.00  0.00    +0.000 A 
ATOM      9  N   UNL     1       1.290   8.356  21.441  0.00  0.00    +0.000 NA
ATOM     10  N   UNL     1       0.582   9.484  21.622  0.00  0.00    +0.000 N 
ENDROOT
BRANCH   8  11
ATOM     11  C   UNL     1       2.269   7.402  19.365  0.00  0.00    +0.000 A 
ATOM     12  C   UNL     1       2.913   7.741  18.164  0.00  0.00    +0.000 A 
ATOM     13  C   UNL     1       3.596   6.772  17.426  0.00  0.00    +0.000 A 
ATOM     14  C   UNL     1       3.631   5.462  17.885  0.00  0.00    +0.000 A 
ATOM     15  F   UNL     1       4.279   4.532  17.172  0.00  0.00    +0.000 F 
ATOM     16  C   UNL     1       3.003   5.103  19.071  0.00  0.00    +0.000 A 
ATOM     17  C   UNL     1       2.322   6.072  19.814  0.00  0.00    +0.000 A 
ENDBRANCH   8  11
BRANCH   4  18
ATOM     18  C   UNL     1      -2.470  12.943  22.797  0.00  0.00    +0.000 A 
ATOM     19  C   UNL     1      -3.701  12.636  22.202  0.00  0.00    +0.000 A 
ATOM     20  C   UNL     1      -4.585  13.654  21.827  0.00  0.00    +0.000 A 
ATOM     21  C   UNL     1      -4.260  14.994  22.045  0.00  0.00    +0.000 A 
ATOM     22  C   UNL     1      -3.041  15.326  22.630  0.00  0.00    +0.000 A 
ATOM     23  C   UNL     1      -2.158  14.301  22.997  0.00  0.00    +0.000 A 
BRANCH  23  24
ATOM     24  N   UNL     1      -0.881  14.696  23.570  0.00  0.00    +0.000 N 
ATOM     25  O   UNL     1      -0.849  14.946  24.783  0.00  0.00    +0.000 OA
ATOM     26  O   UNL     1       0.081  14.768  22.795  0.00  0.00    +0.000 OA
ENDBRANCH  23  24
ENDBRANCH   4  18
TORSDOF 3
ENDMDL
MODEL 6
REMARK VINA RESULT:      -7.5      4.995     10.013
REMARK  Name = 
REMARK  3 active torsions:
REMARK  status: ('A' for Active; 'I' for Inactive)
REMARK    1  A    between atoms: C_4  and  C_5
REMARK    2  A    between atoms: C_10  and  N_11
REMARK    3  A    between atoms: C_17  and  C_18
REMARK                            x       y       z     vdW  Elec       q    Type
REMARK                         _______ _______ _______ _____ _____    ______ ____
ROOT
ATOM      1  O   UNL     1       0.218   9.575  23.840  0.00  0.00    +0.000 OA
ATOM      2  C   UNL     1       0.070  10.053  22.729  0.00  0.00    +0.000 A 
ATOM      3  C   UNL     1      -0.723  11.245  22.302  0.00  0.00    +0.000 A 
ATOM      4  C   UNL     1      -1.539  11.863  23.168  0.00  0.00    +0.000 C 
ATOM      5  S   UNL     1      -0.542  11.599  20.593  0.00  0.00    +0.000 S 
ATOM      6  C   UNL     1       0.411  10.185  20.416  0.00  0.00    +0.000 A 
ATOM      7  N   UNL     1       0.978   9.571  19.422  0.00  0.00    +0.000 NA
ATOM      8  C   UNL     1       1.545   8.467  20.052  0.00  0.00    +0.000 A 
ATOM      9  N   UNL     1       1.355   8.425  21.390  0.00  0.00    +0.000 NA
ATOM     10  N   UNL     1       0.619   9.535  21.577  0.00  0.00    +0.000 N 
ENDROOT
BRANCH   8  11
ATOM     11  C   UNL     1       2.268   7.448  19.296  0.00  0.00    +0.000 A 
ATOM     12  C   UNL     1       2.328   6.131  19.780  0.00  0.00    +0.000 A 
ATOM     13  C   UNL     1       3.030   5.148  19.079  0.00  0.00    +0.000 A 
ATOM     14  C   UNL     1       3.676   5.482  17.895  0.00  0.00    +0.000 A 
ATOM     15  F   UNL     1       4.355   4.540  17.228  0.00  0.00    +0.000 F 
ATOM     16  C   UNL     1       3.629   6.777  17.396  0.00  0.00    +0.000 A 
ATOM     17  C   UNL     1       2.924   7.762  18.094  0.00  0.00    +0.000 A 
ENDBRANCH   8  11
BRANCH   4  18
ATOM     18  C   UNL     1      -2.489  12.925  22.806  0.00  0.00    +0.000 A 
ATOM     19  C   UNL     1      -3.754  12.562  22.326  0.00  0.00    +0.000 A 
ATOM     20  C   UNL     1      -4.689  13.541  21.969  0.00  0.00    +0.000 A 
ATOM     21  C   UNL     1      -4.380  14.897  22.090  0.00  0.00    +0.000 A 
ATOM     22  C   UNL     1      -3.127  15.283  22.559  0.00  0.00    +0.000 A 
ATOM     23  C   UNL     1      -2.194  14.297  22.909  0.00  0.00    +0.000 A 
BRANCH  23  24
ATOM     24  N   UNL     1      -0.887  14.747  23.359  0.00  0.00    +0.000 N 
ATOM     25  O   UNL     1      -0.002  14.888  22.503  0.00  0.00    +0.000 OA
ATOM     26  O   UNL     1      -0.750  14.943  24.573  0.00  0.00    +0.000 OA
ENDBRANCH  23  24
ENDBRANCH   4  18
TORSDOF 3
ENDMDL
MODEL 7
REMARK VINA RESULT:      -7.4      1.476      1.659
REMARK  Name = 
REMARK  3 active torsions:
REMARK  status: ('A' for Active; 'I' for Inactive)
REMARK    1  A    between atoms: C_4  and  C_5
REMARK    2  A    between atoms: C_10  and  N_11
REMARK    3  A    between atoms: C_17  and  C_18
REMARK                            x       y       z     vdW  Elec       q    Type
REMARK                         _______ _______ _______ _____ _____    ______ ____
ROOT
ATOM      1  O   UNL     1       2.322   5.728  20.736  0.00  0.00    +0.000 OA
ATOM      2  C   UNL     1       2.520   6.417  19.751  0.00  0.00    +0.000 A 
ATOM      3  C   UNL     1       3.359   6.141  18.546  0.00  0.00    +0.000 A 
ATOM      4  C   UNL     1       4.163   5.068  18.511  0.00  0.00    +0.000 C 
ATOM      5  S   UNL     1       3.245   7.408  17.339  0.00  0.00    +0.000 S 
ATOM      6  C   UNL     1       2.259   8.317  18.408  0.00  0.00    +0.000 A 
ATOM      7  N   UNL     1       1.708   9.493  18.382  0.00  0.00    +0.000 NA
ATOM      8  C   UNL     1       1.090   9.547  19.628  0.00  0.00    +0.000 A 
ATOM      9  N   UNL     1       1.234   8.430  20.376  0.00  0.00    +0.000 NA
ATOM     10  N   UNL     1       1.994   7.677  19.562  0.00  0.00    +0.000 N 
ENDROOT
BRANCH   8  11
ATOM     11  C   UNL     1       0.365  10.737  20.066  0.00  0.00    +0.000 A 
ATOM     12  C   UNL     1      -0.974  10.919  19.682  0.00  0.00    +0.000 A 
ATOM     13  C   UNL     1      -1.678  12.059  20.076  0.00  0.00    +0.000 A 
ATOM     14  C   UNL     1      -1.042  13.020  20.852  0.00  0.00    +0.000 A 
ATOM     15  F   UNL     1      -1.715  14.117  21.223  0.00  0.00    +0.000 F 
ATOM     16  C   UNL     1       0.281  12.861  21.246  0.00  0.00    +0.000 A 
ATOM     17  C   UNL     1       0.986  11.719  20.854  0.00  0.00    +0.000 A 
ENDBRANCH   8  11
BRANCH   4  18
ATOM     18  C   UNL     1       5.153   4.803  17.457  0.00  0.00    +0.000 A 
ATOM     19  C   UNL     1       4.722   4.222  16.258  0.00  0.00    +0.000 A 
ATOM     20  C   UNL     1       5.631   3.954  15.228  0.00  0.00    +0.000 A 
ATOM     21  C   UNL     1       6.984   4.265  15.375  0.00  0.00    +0.000 A 
ATOM     22  C   UNL     1       7.439   4.839  16.560  0.00  0.00    +0.000 A 
ATOM     23  C   UNL     1       6.523   5.099  17.588  0.00  0.00    +0.000 A 
BRANCH  23  24
ATOM     24  N   UNL     1       7.049   5.664  18.821  0.00  0.00    +0.000 N 
ATOM     25  O   UNL     1       6.774   5.085  19.881  0.00  0.00    +0.000 OA
ATOM     26  O   UNL     1       7.724   6.696  18.720  0.00  0.00    +0.000 OA
ENDBRANCH  23  24
ENDBRANCH   4  18
TORSDOF 3
ENDMDL
MODEL 8
REMARK VINA RESULT:      -7.4      1.485      1.616
REMARK  Name = 
REMARK  3 active torsions:
REMARK  status: ('A' for Active; 'I' for Inactive)
REMARK    1  A    between atoms: C_4  and  C_5
REMARK    2  A    between atoms: C_10  and  N_11
REMARK    3  A    between atoms: C_17  and  C_18
REMARK                            x       y       z     vdW  Elec       q    Type
REMARK                         _______ _______ _______ _____ _____    ______ ____
ROOT
ATOM      1  O   UNL     1       2.318   5.773  20.757  0.00  0.00    +0.000 OA
ATOM      2  C   UNL     1       2.512   6.451  19.763  0.00  0.00    +0.000 A 
ATOM      3  C   UNL     1       3.350   6.163  18.560  0.00  0.00    +0.000 A 
ATOM      4  C   UNL     1       4.157   5.091  18.536  0.00  0.00    +0.000 C 
ATOM      5  S   UNL     1       3.230   7.415  17.338  0.00  0.00    +0.000 S 
ATOM      6  C   UNL     1       2.243   8.334  18.398  0.00  0.00    +0.000 A 
ATOM      7  N   UNL     1       1.689   9.507  18.359  0.00  0.00    +0.000 NA
ATOM      8  C   UNL     1       1.073   9.575  19.605  0.00  0.00    +0.000 A 
ATOM      9  N   UNL     1       1.222   8.467  20.366  0.00  0.00    +0.000 NA
ATOM     10  N   UNL     1       1.982   7.707  19.560  0.00  0.00    +0.000 N 
ENDROOT
BRANCH   8  11
ATOM     11  C   UNL     1       0.345  10.768  20.030  0.00  0.00    +0.000 A 
ATOM     12  C   UNL     1       0.972  11.711  20.860  0.00  0.00    +0.000 A 
ATOM     13  C   UNL     1       0.286  12.848  21.291  0.00  0.00    +0.000 A 
ATOM     14  C   UNL     1      -1.032  13.041  20.894  0.00  0.00    +0.000 A 
ATOM     15  F   UNL     1      -1.692  14.128  21.314  0.00  0.00    +0.000 F 
ATOM     16  C   UNL     1      -1.673  12.124  20.071  0.00  0.00    +0.000 A 
ATOM     17  C   UNL     1      -0.986  10.987  19.637  0.00  0.00    +0.000 A 
ENDBRANCH   8  11
BRANCH   4  18
ATOM     18  C   UNL     1       5.146   4.817  17.484  0.00  0.00    +0.000 A 
ATOM     19  C   UNL     1       4.712   4.233  16.288  0.00  0.00    +0.000 A 
ATOM     20  C   UNL     1       5.620   3.955  15.259  0.00  0.00    +0.000 A 
ATOM     21  C   UNL     1       6.974   4.261  15.405  0.00  0.00    +0.000 A 
ATOM     22  C   UNL     1       7.432   4.837  16.587  0.00  0.00    +0.000 A 
ATOM     23  C   UNL     1       6.517   5.107  17.614  0.00  0.00    +0.000 A 
BRANCH  23  24
ATOM     24  N   UNL     1       7.046   5.675  18.844  0.00  0.00    +0.000 N 
ATOM     25  O   UNL     1       7.723   6.708  18.755  0.00  0.00    +0.000 OA
ATOM     26  O   UNL     1       6.791   5.071  19.894  0.00  0.00    +0.000 OA
ENDBRANCH  23  24
ENDBRANCH   4  18
TORSDOF 3
ENDMDL
MODEL 9
REMARK VINA RESULT:      -7.4      2.118      2.668
REMARK  Name = 
REMARK  3 active torsions:
REMARK  status: ('A' for Active; 'I' for Inactive)
REMARK    1  A    between atoms: C_4  and  C_5
REMARK    2  A    between atoms: C_10  and  N_11
REMARK    3  A    between atoms: C_17  and  C_18
REMARK                            x       y       z     vdW  Elec       q    Type
REMARK                         _______ _______ _______ _____ _____    ______ ____
ROOT
ATOM      1  O   UNL     1       1.717   6.091  21.340  0.00  0.00    +0.000 OA
ATOM      2  C   UNL     1       1.834   6.900  20.437  0.00  0.00    +0.000 A 
ATOM      3  C   UNL     1       2.508   6.758  19.111  0.00  0.00    +0.000 A 
ATOM      4  C   UNL     1       3.241   5.669  18.836  0.00  0.00    +0.000 C 
ATOM      5  S   UNL     1       2.320   8.181  18.103  0.00  0.00    +0.000 S 
ATOM      6  C   UNL     1       1.521   8.974  19.396  0.00  0.00    +0.000 A 
ATOM      7  N   UNL     1       1.036  10.162  19.593  0.00  0.00    +0.000 NA
ATOM      8  C   UNL     1       0.575  10.071  20.903  0.00  0.00    +0.000 A 
ATOM      9  N   UNL     1       0.745   8.857  21.475  0.00  0.00    +0.000 NA
ATOM     10  N   UNL     1       1.360   8.193  20.481  0.00  0.00    +0.000 N 
ENDROOT
BRANCH   8  11
ATOM     11  C   UNL     1      -0.027  11.217  21.580  0.00  0.00    +0.000 A 
ATOM     12  C   UNL     1      -1.017  11.011  22.556  0.00  0.00    +0.000 A 
ATOM     13  C   UNL     1      -1.616  12.096  23.200  0.00  0.00    +0.000 A 
ATOM     14  C   UNL     1      -1.228  13.388  22.866  0.00  0.00    +0.000 A 
ATOM     15  F   UNL     1      -1.809  14.427  23.479  0.00  0.00    +0.000 F 
ATOM     16  C   UNL     1      -0.250  13.616  21.906  0.00  0.00    +0.000 A 
ATOM     17  C   UNL     1       0.353  12.531  21.263  0.00  0.00    +0.000 A 
ENDBRANCH   8  11
BRANCH   4  18
ATOM     18  C   UNL     1       4.083   5.513  17.641  0.00  0.00    +0.000 A 
ATOM     19  C   UNL     1       4.855   6.601  17.213  0.00  0.00    +0.000 A 
ATOM     20  C   UNL     1       5.670   6.496  16.081  0.00  0.00    +0.000 A 
ATOM     21  C   UNL     1       5.735   5.302  15.359  0.00  0.00    +0.000 A 
ATOM     22  C   UNL     1       4.973   4.207  15.761  0.00  0.00    +0.000 A 
ATOM     23  C   UNL     1       4.154   4.323  16.893  0.00  0.00    +0.000 A 
BRANCH  23  24
ATOM     24  N   UNL     1       3.349   3.167  17.252  0.00  0.00    +0.000 N 
ATOM     25  O   UNL     1       2.173   3.143  16.864  0.00  0.00    +0.000 OA
ATOM     26  O   UNL     1       3.898   2.294  17.938  0.00  0.00    +0.000 OA
ENDBRANCH  23  24
ENDBRANCH   4  18
TORSDOF 3
ENDMDL
