MODEL 1
REMARK VINA RESULT:      -6.2      0.000      0.000
REMARK  Name = 
REMARK  2 active torsions:
REMARK  status: ('A' for Active; 'I' for Inactive)
REMARK    1  A    between atoms: C_8  and  O_9
REMARK    2  A    between atoms: C_8  and  C_10
REMARK                            x       y       z     vdW  Elec       q    Type
REMARK                         _______ _______ _______ _____ _____    ______ ____
ROOT
ATOM      1  N   UNL     1       2.823   6.437  18.535  0.00  0.00    +0.000 N 
ATOM      2  C   UNL     1       2.128   6.904  19.608  0.00  0.00    +0.000 C 
ATOM      3  O   UNL     1       1.848   6.105  20.499  0.00  0.00    +0.000 OA
ATOM      4  N   UNL     1       1.780   8.248  19.575  0.00  0.00    +0.000 N 
ATOM      5  C   UNL     1       2.110   9.179  18.571  0.00  0.00    +0.000 C 
ATOM      6  O   UNL     1       2.786   9.030  17.564  0.00  0.00    +0.000 OA
ATOM      7  C   UNL     1       1.504  10.486  18.997  0.00  0.00    +0.000 C 
ATOM      8  C   UNL     1       1.744  11.616  18.304  0.00  0.00    +0.000 C 
ATOM      9  C   UNL     1       0.780  10.237  20.245  0.00  0.00    +0.000 A 
ATOM     10  C   UNL     1      -0.018  11.043  21.044  0.00  0.00    +0.000 A 
ATOM     11  C   UNL     1      -0.543  10.504  22.218  0.00  0.00    +0.000 A 
ATOM     12 CL   UNL     1      -1.514  11.494  23.238  0.00  0.00    +0.000 Cl
ATOM     13  C   UNL     1      -0.288   9.178  22.578  0.00  0.00    +0.000 A 
ATOM     14  C   UNL     1       0.482   8.357  21.748  0.00  0.00    +0.000 A 
ATOM     15  C   UNL     1       1.004   8.892  20.576  0.00  0.00    +0.000 A 
ATOM     16  H   UNL     1       3.157   5.484  18.592  0.00  0.00    +0.000 HD
ATOM     17  H   UNL     1       3.312   7.074  17.915  0.00  0.00    +0.000 HD
ENDROOT
BRANCH   8  18
ATOM     18  C   UNL     1       1.317  12.900  18.743  0.00  0.00    +0.000 A 
ATOM     19  C   UNL     1       0.155  13.598  18.452  0.00  0.00    +0.000 A 
ATOM     20  C   UNL     1       0.112  14.886  19.071  0.00  0.00    +0.000 A 
ATOM     21  C   UNL     1       1.252  15.124  19.791  0.00  0.00    +0.000 A 
ATOM     22 CL   UNL     1       1.634  16.554  20.662  0.00  0.00    +0.000 Cl
ATOM     23  S   UNL     1       2.345  13.837  19.770  0.00  0.00    +0.000 S 
ENDBRANCH   8  18
BRANCH   8  24
ATOM     24  O   UNL     1       2.471  11.675  17.132  0.00  0.00    +0.000 OA
ATOM     25  H   UNL     1       2.214  10.921  16.560  0.00  0.00    +0.000 HD
ENDBRANCH   8  24
TORSDOF 2
ENDMDL
MODEL 2
REMARK VINA RESULT:      -6.1      0.949      1.098
REMARK  Name = 
REMARK  2 active torsions:
REMARK  status: ('A' for Active; 'I' for Inactive)
REMARK    1  A    between atoms: C_8  and  O_9
REMARK    2  A    between atoms: C_8  and  C_10
REMARK                            x       y       z     vdW  Elec       q    Type
REMARK                         _______ _______ _______ _____ _____    ______ ____
ROOT
ATOM      1  N   UNL     1       2.749   6.481  18.386  0.00  0.00    +0.000 N 
ATOM      2  C   UNL     1       2.058   6.921  19.474  0.00  0.00    +0.000 C 
ATOM      3  O   UNL     1       1.749   6.093  20.327  0.00  0.00    +0.000 OA
ATOM      4  N   UNL     1       1.747   8.274  19.495  0.00  0.00    +0.000 N 
ATOM      5  C   UNL     1       2.111   9.238  18.534  0.00  0.00    +0.000 C 
ATOM      6  O   UNL     1       2.791   9.113  17.526  0.00  0.00    +0.000 OA
ATOM      7  C   UNL     1       1.537  10.542  19.011  0.00  0.00    +0.000 C 
ATOM      8  C   UNL     1       1.813  11.693  18.370  0.00  0.00    +0.000 C 
ATOM      9  C   UNL     1       0.796  10.260  20.242  0.00  0.00    +0.000 A 
ATOM     10  C   UNL     1       0.014  11.053  21.070  0.00  0.00    +0.000 A 
ATOM     11  C   UNL     1      -0.536  10.480  22.216  0.00  0.00    +0.000 A 
ATOM     12 CL   UNL     1      -1.488  11.451  23.270  0.00  0.00    +0.000 Cl
ATOM     13  C   UNL     1      -0.320   9.133  22.520  0.00  0.00    +0.000 A 
ATOM     14  C   UNL     1       0.434   8.327  21.661  0.00  0.00    +0.000 A 
ATOM     15  C   UNL     1       0.980   8.896  20.517  0.00  0.00    +0.000 A 
ATOM     16  H   UNL     1       3.056   5.518  18.405  0.00  0.00    +0.000 HD
ATOM     17  H   UNL     1       3.260   7.130  17.798  0.00  0.00    +0.000 HD
ENDROOT
BRANCH   8  18
ATOM     18  C   UNL     1       1.418  12.969  18.860  0.00  0.00    +0.000 A 
ATOM     19  C   UNL     1       2.089  13.844  19.701  0.00  0.00    +0.000 A 
ATOM     20  C   UNL     1       1.336  15.026  19.987  0.00  0.00    +0.000 A 
ATOM     21  C   UNL     1       0.116  14.992  19.368  0.00  0.00    +0.000 A 
ATOM     22 CL   UNL     1      -1.116  16.185  19.466  0.00  0.00    +0.000 Cl
ATOM     23  S   UNL     1      -0.130  13.607  18.433  0.00  0.00    +0.000 S 
ENDBRANCH   8  18
BRANCH   8  24
ATOM     24  O   UNL     1       2.551  11.782  17.206  0.00  0.00    +0.000 OA
ATOM     25  H   UNL     1       2.970  10.913  17.028  0.00  0.00    +0.000 HD
ENDBRANCH   8  24
TORSDOF 2
ENDMDL
MODEL 3
REMARK VINA RESULT:      -6.0      5.106      6.644
REMARK  Name = 
REMARK  2 active torsions:
REMARK  status: ('A' for Active; 'I' for Inactive)
REMARK    1  A    between atoms: C_8  and  O_9
REMARK    2  A    between atoms: C_8  and  C_10
REMARK                            x       y       z     vdW  Elec       q    Type
REMARK                         _______ _______ _______ _____ _____    ______ ____
ROOT
ATOM      1  N   UNL     1      -4.295  14.184  22.171  0.00  0.00    +0.000 N 
ATOM      2  C   UNL     1      -4.455  13.616  20.944  0.00  0.00    +0.000 C 
ATOM      3  O   UNL     1      -5.514  13.818  20.355  0.00  0.00    +0.000 OA
ATOM      4  N   UNL     1      -3.400  12.836  20.488  0.00  0.00    +0.000 N 
ATOM      5  C   UNL     1      -2.174  12.611  21.144  0.00  0.00    +0.000 C 
ATOM      6  O   UNL     1      -1.761  13.068  22.200  0.00  0.00    +0.000 OA
ATOM      7  C   UNL     1      -1.380  11.703  20.247  0.00  0.00    +0.000 C 
ATOM      8  C   UNL     1      -0.102  11.395  20.535  0.00  0.00    +0.000 C 
ATOM      9  C   UNL     1      -2.229  11.389  19.096  0.00  0.00    +0.000 A 
ATOM     10  C   UNL     1      -2.054  10.555  18.001  0.00  0.00    +0.000 A 
ATOM     11  C   UNL     1      -3.058  10.503  17.036  0.00  0.00    +0.000 A 
ATOM     12 CL   UNL     1      -2.851   9.495  15.657  0.00  0.00    +0.000 Cl
ATOM     13  C   UNL     1      -4.224  11.261  17.171  0.00  0.00    +0.000 A 
ATOM     14  C   UNL     1      -4.415  12.069  18.297  0.00  0.00    +0.000 A 
ATOM     15  C   UNL     1      -3.416  12.118  19.262  0.00  0.00    +0.000 A 
ATOM     16  H   UNL     1      -5.019  14.824  22.470  0.00  0.00    +0.000 HD
ATOM     17  H   UNL     1      -3.373  14.285  22.581  0.00  0.00    +0.000 HD
ENDROOT
BRANCH   8  18
ATOM     18  C   UNL     1       0.739  10.663  19.650  0.00  0.00    +0.000 A 
ATOM     19  C   UNL     1       1.416  11.085  18.516  0.00  0.00    +0.000 A 
ATOM     20  C   UNL     1       2.138  10.029  17.877  0.00  0.00    +0.000 A 
ATOM     21  C   UNL     1       1.965   8.844  18.539  0.00  0.00    +0.000 A 
ATOM     22 CL   UNL     1       2.621   7.319  18.100  0.00  0.00    +0.000 Cl
ATOM     23  S   UNL     1       0.994   8.975  19.916  0.00  0.00    +0.000 S 
ENDBRANCH   8  18
BRANCH   8  24
ATOM     24  O   UNL     1       0.560  11.793  21.679  0.00  0.00    +0.000 OA
ATOM     25  H   UNL     1       1.277  11.153  21.871  0.00  0.00    +0.000 HD
ENDBRANCH   8  24
TORSDOF 2
ENDMDL
MODEL 4
REMARK VINA RESULT:      -6.0      4.617      6.394
REMARK  Name = 
REMARK  2 active torsions:
REMARK  status: ('A' for Active; 'I' for Inactive)
REMARK    1  A    between atoms: C_8  and  O_9
REMARK    2  A    between atoms: C_8  and  C_10
REMARK                            x       y       z     vdW  Elec       q    Type
REMARK                         _______ _______ _______ _____ _____    ______ ____
ROOT
ATOM      1  N   UNL     1      -2.488  13.282  23.369  0.00  0.00    +0.000 N 
ATOM      2  C   UNL     1      -2.806  13.062  22.064  0.00  0.00    +0.000 C 
ATOM      3  O   UNL     1      -3.770  13.667  21.602  0.00  0.00    +0.000 OA
ATOM      4  N   UNL     1      -2.012  12.146  21.387  0.00  0.00    +0.000 N 
ATOM      5  C   UNL     1      -0.893  11.460  21.899  0.00  0.00    +0.000 C 
ATOM      6  O   UNL     1      -0.364  11.546  22.997  0.00  0.00    +0.000 OA
ATOM      7  C   UNL     1      -0.387  10.592  20.781  0.00  0.00    +0.000 C 
ATOM      8  C   UNL     1       0.757   9.894  20.914  0.00  0.00    +0.000 C 
ATOM      9  C   UNL     1      -1.296  10.778  19.649  0.00  0.00    +0.000 A 
ATOM     10  C   UNL     1      -1.366  10.189  18.394  0.00  0.00    +0.000 A 
ATOM     11  C   UNL     1      -2.350  10.623  17.509  0.00  0.00    +0.000 A 
ATOM     12 CL   UNL     1      -2.439   9.924  15.938  0.00  0.00    +0.000 Cl
ATOM     13  C   UNL     1      -3.259  11.619  17.876  0.00  0.00    +0.000 A 
ATOM     14  C   UNL     1      -3.212  12.181  19.156  0.00  0.00    +0.000 A 
ATOM     15  C   UNL     1      -2.233  11.746  20.041  0.00  0.00    +0.000 A 
ATOM     16  H   UNL     1      -3.004  14.012  23.843  0.00  0.00    +0.000 HD
ATOM     17  H   UNL     1      -1.572  13.039  23.730  0.00  0.00    +0.000 HD
ENDROOT
BRANCH   8  18
ATOM     18  C   UNL     1       1.356   9.175  19.842  0.00  0.00    +0.000 A 
ATOM     19  C   UNL     1       1.594   9.567  18.533  0.00  0.00    +0.000 A 
ATOM     20  C   UNL     1       2.195   8.535  17.746  0.00  0.00    +0.000 A 
ATOM     21  C   UNL     1       2.370   7.394  18.483  0.00  0.00    +0.000 A 
ATOM     22 CL   UNL     1       3.023   5.906  17.928  0.00  0.00    +0.000 Cl
ATOM     23  S   UNL     1       1.869   7.543  20.089  0.00  0.00    +0.000 S 
ENDBRANCH   8  18
BRANCH   8  24
ATOM     24  O   UNL     1       1.509   9.838  22.070  0.00  0.00    +0.000 OA
ATOM     25  H   UNL     1       1.812  10.743  22.297  0.00  0.00    +0.000 HD
ENDBRANCH   8  24
TORSDOF 2
ENDMDL
MODEL 5
REMARK VINA RESULT:      -5.8      4.651      5.823
REMARK  Name = 
REMARK  2 active torsions:
REMARK  status: ('A' for Active; 'I' for Inactive)
REMARK    1  A    between atoms: C_8  and  O_9
REMARK    2  A    between atoms: C_8  and  C_10
REMARK                            x       y       z     vdW  Elec       q    Type
REMARK                         _______ _______ _______ _____ _____    ______ ____
ROOT
ATOM      1  N   UNL     1      -0.207   9.917  17.528  0.00  0.00    +0.000 N 
ATOM      2  C   UNL     1      -1.501  10.337  17.539  0.00  0.00    +0.000 C 
ATOM      3  O   UNL     1      -2.199  10.061  16.566  0.00  0.00    +0.000 OA
ATOM      4  N   UNL     1      -1.899  11.066  18.652  0.00  0.00    +0.000 N 
ATOM      5  C   UNL     1      -1.116  11.372  19.782  0.00  0.00    +0.000 C 
ATOM      6  O   UNL     1       0.032  11.044  20.046  0.00  0.00    +0.000 OA
ATOM      7  C   UNL     1      -1.997  12.175  20.697  0.00  0.00    +0.000 C 
ATOM      8  C   UNL     1      -1.579  12.522  21.929  0.00  0.00    +0.000 C 
ATOM      9  C   UNL     1      -3.280  12.349  20.013  0.00  0.00    +0.000 A 
ATOM     10  C   UNL     1      -4.431  13.051  20.340  0.00  0.00    +0.000 A 
ATOM     11  C   UNL     1      -5.521  12.984  19.474  0.00  0.00    +0.000 A 
ATOM     12 CL   UNL     1      -6.968  13.827  19.873  0.00  0.00    +0.000 Cl
ATOM     13  C   UNL     1      -5.456  12.240  18.293  0.00  0.00    +0.000 A 
ATOM     14  C   UNL     1      -4.280  11.567  17.946  0.00  0.00    +0.000 A 
ATOM     15  C   UNL     1      -3.191  11.636  18.808  0.00  0.00    +0.000 A 
ATOM     16  H   UNL     1       0.066   9.311  16.764  0.00  0.00    +0.000 HD
ATOM     17  H   UNL     1       0.332   9.869  18.386  0.00  0.00    +0.000 HD
ENDROOT
BRANCH   8  18
ATOM     18  C   UNL     1      -2.422  13.152  22.886  0.00  0.00    +0.000 A 
ATOM     19  C   UNL     1      -3.344  12.595  23.760  0.00  0.00    +0.000 A 
ATOM     20  C   UNL     1      -4.021  13.576  24.550  0.00  0.00    +0.000 A 
ATOM     21  C   UNL     1      -3.601  14.840  24.231  0.00  0.00    +0.000 A 
ATOM     22 CL   UNL     1      -4.173  16.311  24.908  0.00  0.00    +0.000 Cl
ATOM     23  S   UNL     1      -2.401  14.873  23.043  0.00  0.00    +0.000 S 
ENDBRANCH   8  18
BRANCH   8  24
ATOM     24  O   UNL     1      -0.317  12.264  22.427  0.00  0.00    +0.000 OA
ATOM     25  H   UNL     1       0.349  12.673  21.835  0.00  0.00    +0.000 HD
ENDBRANCH   8  24
TORSDOF 2
ENDMDL
MODEL 6
REMARK VINA RESULT:      -5.8      3.846      6.000
REMARK  Name = 
REMARK  2 active torsions:
REMARK  status: ('A' for Active; 'I' for Inactive)
REMARK    1  A    between atoms: C_8  and  O_9
REMARK    2  A    between atoms: C_8  and  C_10
REMARK                            x       y       z     vdW  Elec       q    Type
REMARK                         _______ _______ _______ _____ _____    ______ ____
ROOT
ATOM      1  N   UNL     1       6.193   5.240  14.885  0.00  0.00    +0.000 N 
ATOM      2  C   UNL     1       5.598   4.482  15.846  0.00  0.00    +0.000 C 
ATOM      3  O   UNL     1       5.883   3.288  15.888  0.00  0.00    +0.000 OA
ATOM      4  N   UNL     1       4.698   5.139  16.675  0.00  0.00    +0.000 N 
ATOM      5  C   UNL     1       4.376   6.510  16.650  0.00  0.00    +0.000 C 
ATOM      6  O   UNL     1       4.829   7.403  15.948  0.00  0.00    +0.000 OA
ATOM      7  C   UNL     1       3.360   6.721  17.736  0.00  0.00    +0.000 C 
ATOM      8  C   UNL     1       2.935   7.959  18.052  0.00  0.00    +0.000 C 
ATOM      9  C   UNL     1       3.088   5.410  18.330  0.00  0.00    +0.000 A 
ATOM     10  C   UNL     1       2.200   4.989  19.309  0.00  0.00    +0.000 A 
ATOM     11  C   UNL     1       2.213   3.648  19.687  0.00  0.00    +0.000 A 
ATOM     12 CL   UNL     1       1.137   3.109  20.918  0.00  0.00    +0.000 Cl
ATOM     13  C   UNL     1       3.090   2.740  19.087  0.00  0.00    +0.000 A 
ATOM     14  C   UNL     1       3.955   3.160  18.071  0.00  0.00    +0.000 A 
ATOM     15  C   UNL     1       3.940   4.497  17.690  0.00  0.00    +0.000 A 
ATOM     16  H   UNL     1       6.913   4.790  14.336  0.00  0.00    +0.000 HD
ATOM     17  H   UNL     1       6.216   6.251  14.961  0.00  0.00    +0.000 HD
ENDROOT
BRANCH   8  18
ATOM     18  C   UNL     1       2.089   8.229  19.164  0.00  0.00    +0.000 A 
ATOM     19  C   UNL     1       1.920   7.521  20.345  0.00  0.00    +0.000 A 
ATOM     20  C   UNL     1       0.943   8.108  21.208  0.00  0.00    +0.000 A 
ATOM     21  C   UNL     1       0.394   9.227  20.641  0.00  0.00    +0.000 A 
ATOM     22 CL   UNL     1      -0.836  10.218  21.312  0.00  0.00    +0.000 Cl
ATOM     23  S   UNL     1       1.043   9.605  19.127  0.00  0.00    +0.000 S 
ENDBRANCH   8  18
BRANCH   8  24
ATOM     24  O   UNL     1       3.308   9.108  17.384  0.00  0.00    +0.000 OA
ATOM     25  H   UNL     1       3.073   9.014  16.436  0.00  0.00    +0.000 HD
ENDBRANCH   8  24
TORSDOF 2
ENDMDL
MODEL 7
REMARK VINA RESULT:      -5.8      5.144      6.150
REMARK  Name = 
REMARK  2 active torsions:
REMARK  status: ('A' for Active; 'I' for Inactive)
REMARK    1  A    between atoms: C_8  and  O_9
REMARK    2  A    between atoms: C_8  and  C_10
REMARK                            x       y       z     vdW  Elec       q    Type
REMARK                         _______ _______ _______ _____ _____    ______ ____
ROOT
ATOM      1  N   UNL     1      -7.405  11.715  18.152  0.00  0.00    +0.000 N 
ATOM      2  C   UNL     1      -6.815  11.996  19.346  0.00  0.00    +0.000 C 
ATOM      3  O   UNL     1      -7.547  12.168  20.317  0.00  0.00    +0.000 OA
ATOM      4  N   UNL     1      -5.429  12.087  19.338  0.00  0.00    +0.000 N 
ATOM      5  C   UNL     1      -4.577  11.874  18.237  0.00  0.00    +0.000 C 
ATOM      6  O   UNL     1      -4.852  11.534  17.095  0.00  0.00    +0.000 OA
ATOM      7  C   UNL     1      -3.179  12.092  18.741  0.00  0.00    +0.000 C 
ATOM      8  C   UNL     1      -2.115  11.843  17.954  0.00  0.00    +0.000 C 
ATOM      9  C   UNL     1      -3.287  12.485  20.147  0.00  0.00    +0.000 A 
ATOM     10  C   UNL     1      -2.344  12.875  21.088  0.00  0.00    +0.000 A 
ATOM     11  C   UNL     1      -2.773  13.154  22.384  0.00  0.00    +0.000 A 
ATOM     12 CL   UNL     1      -1.618  13.615  23.574  0.00  0.00    +0.000 Cl
ATOM     13  C   UNL     1      -4.124  13.061  22.730  0.00  0.00    +0.000 A 
ATOM     14  C   UNL     1      -5.077  12.708  21.769  0.00  0.00    +0.000 A 
ATOM     15  C   UNL     1      -4.650  12.432  20.475  0.00  0.00    +0.000 A 
ATOM     16  H   UNL     1      -8.404  11.559  18.166  0.00  0.00    +0.000 HD
ATOM     17  H   UNL     1      -6.872  11.302  17.393  0.00  0.00    +0.000 HD
ENDROOT
BRANCH   8  18
ATOM     18  C   UNL     1      -0.773  11.892  18.425  0.00  0.00    +0.000 A 
ATOM     19  C   UNL     1       0.024  10.881  18.942  0.00  0.00    +0.000 A 
ATOM     20  C   UNL     1       1.319  11.343  19.335  0.00  0.00    +0.000 A 
ATOM     21  C   UNL     1       1.447  12.689  19.120  0.00  0.00    +0.000 A 
ATOM     22 CL   UNL     1       2.819  13.658  19.479  0.00  0.00    +0.000 Cl
ATOM     23  S   UNL     1       0.077  13.397  18.431  0.00  0.00    +0.000 S 
ENDBRANCH   8  18
BRANCH   8  24
ATOM     24  O   UNL     1      -2.195  11.462  16.630  0.00  0.00    +0.000 OA
ATOM     25  H   UNL     1      -1.406  10.924  16.406  0.00  0.00    +0.000 HD
ENDBRANCH   8  24
TORSDOF 2
ENDMDL
MODEL 8
REMARK VINA RESULT:      -5.7      5.234      6.376
REMARK  Name = 
REMARK  2 active torsions:
REMARK  status: ('A' for Active; 'I' for Inactive)
REMARK    1  A    between atoms: C_8  and  O_9
REMARK    2  A    between atoms: C_8  and  C_10
REMARK                            x       y       z     vdW  Elec       q    Type
REMARK                         _______ _______ _______ _____ _____    ______ ____
ROOT
ATOM      1  N   UNL     1      -2.112  10.867  15.753  0.00  0.00    +0.000 N 
ATOM      2  C   UNL     1      -3.340  10.948  16.337  0.00  0.00    +0.000 C 
ATOM      3  O   UNL     1      -4.308  10.564  15.685  0.00  0.00    +0.000 OA
ATOM      4  N   UNL     1      -3.376  11.488  17.616  0.00  0.00    +0.000 N 
ATOM      5  C   UNL     1      -2.273  11.914  18.381  0.00  0.00    +0.000 C 
ATOM      6  O   UNL     1      -1.080  11.869  18.119  0.00  0.00    +0.000 OA
ATOM      7  C   UNL     1      -2.835  12.415  19.682  0.00  0.00    +0.000 C 
ATOM      8  C   UNL     1      -2.021  12.784  20.689  0.00  0.00    +0.000 C 
ATOM      9  C   UNL     1      -4.292  12.302  19.591  0.00  0.00    +0.000 A 
ATOM     10  C   UNL     1      -5.317  12.673  20.449  0.00  0.00    +0.000 A 
ATOM     11  C   UNL     1      -6.631  12.386  20.080  0.00  0.00    +0.000 A 
ATOM     12 CL   UNL     1      -7.917  12.814  21.140  0.00  0.00    +0.000 Cl
ATOM     13  C   UNL     1      -6.914  11.752  18.867  0.00  0.00    +0.000 A 
ATOM     14  C   UNL     1      -5.881  11.416  17.987  0.00  0.00    +0.000 A 
ATOM     15  C   UNL     1      -4.571  11.706  18.352  0.00  0.00    +0.000 A 
ATOM     16  H   UNL     1      -2.066  10.395  14.860  0.00  0.00    +0.000 HD
ATOM     17  H   UNL     1      -1.267  10.906  16.313  0.00  0.00    +0.000 HD
ENDROOT
BRANCH   8  18
ATOM     18  C   UNL     1      -2.496  13.124  21.986  0.00  0.00    +0.000 A 
ATOM     19  C   UNL     1      -2.833  12.304  23.052  0.00  0.00    +0.000 A 
ATOM     20  C   UNL     1      -3.303  13.036  24.187  0.00  0.00    +0.000 A 
ATOM     21  C   UNL     1      -3.323  14.381  23.931  0.00  0.00    +0.000 A 
ATOM     22 CL   UNL     1      -3.847  15.620  24.999  0.00  0.00    +0.000 Cl
ATOM     23  S   UNL     1      -2.763  14.784  22.389  0.00  0.00    +0.000 S 
ENDBRANCH   8  18
BRANCH   8  24
ATOM     24  O   UNL     1      -0.643  12.820  20.606  0.00  0.00    +0.000 OA
ATOM     25  H   UNL     1      -0.327  11.994  20.184  0.00  0.00    +0.000 HD
ENDBRANCH   8  24
TORSDOF 2
ENDMDL
MODEL 9
REMARK VINA RESULT:      -5.7      5.287      6.533
REMARK  Name = 
REMARK  2 active torsions:
REMARK  status: ('A' for Active; 'I' for Inactive)
REMARK    1  A    between atoms: C_8  and  O_9
REMARK    2  A    between atoms: C_8  and  C_10
REMARK                            x       y       z     vdW  Elec       q    Type
REMARK                         _______ _______ _______ _____ _____    ______ ____
ROOT
ATOM      1  N   UNL     1      -6.788  12.223  16.758  0.00  0.00    +0.000 N 
ATOM      2  C   UNL     1      -6.650  12.416  18.098  0.00  0.00    +0.000 C 
ATOM      3  O   UNL     1      -7.656  12.711  18.739  0.00  0.00    +0.000 OA
ATOM      4  N   UNL     1      -5.365  12.283  18.607  0.00  0.00    +0.000 N 
ATOM      5  C   UNL     1      -4.207  11.927  17.889  0.00  0.00    +0.000 C 
ATOM      6  O   UNL     1      -4.084  11.626  16.710  0.00  0.00    +0.000 OA
ATOM      7  C   UNL     1      -3.081  11.922  18.884  0.00  0.00    +0.000 C 
ATOM      8  C   UNL     1      -1.852  11.500  18.533  0.00  0.00    +0.000 C 
ATOM      9  C   UNL     1      -3.644  12.340  20.170  0.00  0.00    +0.000 A 
ATOM     10  C   UNL     1      -3.073  12.581  21.411  0.00  0.00    +0.000 A 
ATOM     11  C   UNL     1      -3.906  12.936  22.470  0.00  0.00    +0.000 A 
ATOM     12 CL   UNL     1      -3.222  13.215  24.024  0.00  0.00    +0.000 Cl
ATOM     13  C   UNL     1      -5.286  13.063  22.287  0.00  0.00    +0.000 A 
ATOM     14  C   UNL     1      -5.853  12.860  21.025  0.00  0.00    +0.000 A 
ATOM     15  C   UNL     1      -5.022  12.508  19.968  0.00  0.00    +0.000 A 
ATOM     16  H   UNL     1      -7.732  12.230  16.395  0.00  0.00    +0.000 HD
ATOM     17  H   UNL     1      -6.080  11.724  16.229  0.00  0.00    +0.000 HD
ENDROOT
BRANCH   8  18
ATOM     18  C   UNL     1      -0.791  11.336  19.468  0.00  0.00    +0.000 A 
ATOM     19  C   UNL     1       0.213  12.219  19.836  0.00  0.00    +0.000 A 
ATOM     20  C   UNL     1       1.116  11.663  20.796  0.00  0.00    +0.000 A 
ATOM     21  C   UNL     1       0.773  10.373  21.103  0.00  0.00    +0.000 A 
ATOM     22 CL   UNL     1       1.601   9.322  22.179  0.00  0.00    +0.000 Cl
ATOM     23  S   UNL     1      -0.612   9.833  20.301  0.00  0.00    +0.000 S 
ENDBRANCH   8  18
BRANCH   8  24
ATOM     24  O   UNL     1      -1.489  11.125  17.255  0.00  0.00    +0.000 OA
ATOM     25  H   UNL     1      -0.560  11.394  17.096  0.00  0.00    +0.000 HD
ENDBRANCH   8  24
TORSDOF 2
ENDMDL
