MODEL 1
REMARK VINA RESULT:      -6.4      0.000      0.000
REMARK  Name = 
REMARK  8 active torsions:
REMARK  status: ('A' for Active; 'I' for Inactive)
REMARK    1  A    between atoms: C_1  and  O_2
REMARK    2  A    between atoms: O_2  and  C_3
REMARK    3  A    between atoms: C_7  and  O_8
REMARK    4  A    between atoms: O_8  and  C_9
REMARK    5  A    between atoms: C_10  and  C_11
REMARK    6  A    between atoms: C_18  and  N_19
REMARK    7  A    between atoms: N_19  and  C_20
REMARK    8  A    between atoms: N_19  and  C_21
REMARK                            x       y       z     vdW  Elec       q    Type
REMARK                         _______ _______ _______ _____ _____    ______ ____
ROOT
ATOM      1  C   UNL     1       4.205   5.085  18.526  0.00  0.00    +0.000 A 
ATOM      2  C   UNL     1       5.431   4.729  19.106  0.00  0.00    +0.000 A 
ATOM      3  C   UNL     1       6.624   4.834  18.364  0.00  0.00    +0.000 A 
ATOM      4  C   UNL     1       6.595   5.265  17.036  0.00  0.00    +0.000 A 
ATOM      5  C   UNL     1       5.411   5.755  16.505  0.00  0.00    +0.000 A 
ATOM      6  C   UNL     1       4.251   5.690  17.261  0.00  0.00    +0.000 A 
ATOM      7  C   UNL     1       5.325   6.261  15.109  0.00  0.00    +0.000 C 
ATOM      8  C   UNL     1       6.193   5.389  14.205  0.00  0.00    +0.000 C 
ATOM      9  C   UNL     1       7.607   5.393  14.871  0.00  0.00    +0.000 C 
ATOM     10  O   UNL     1       7.720   5.105  16.277  0.00  0.00    +0.000 OA
ENDROOT
BRANCH   1  16
ATOM     11  C   UNL     1       2.153   5.482  19.933  0.00  0.00    +0.000 A 
ATOM     12  C   UNL     1       1.096   4.948  20.685  0.00  0.00    +0.000 A 
ATOM     13  C   UNL     1       0.757   3.606  20.571  0.00  0.00    +0.000 A 
ATOM     14  C   UNL     1       1.391   2.807  19.628  0.00  0.00    +0.000 A 
ATOM     15  C   UNL     1       2.402   3.330  18.812  0.00  0.00    +0.000 A 
ATOM     16  C   UNL     1       2.847   4.679  18.992  0.00  0.00    +0.000 A 
BRANCH  11  18
ATOM     17  C   UNL     1       1.576   7.620  20.735  0.00  0.00    +0.000 C 
ATOM     18  O   UNL     1       2.557   6.784  20.122  0.00  0.00    +0.000 OA
ENDBRANCH  11  18
BRANCH  15  19
ATOM     19  O   UNL     1       3.068   2.577  17.873  0.00  0.00    +0.000 OA
ATOM     20  C   UNL     1       3.709   1.380  18.299  0.00  0.00    +0.000 C 
ENDBRANCH  15  19
ENDBRANCH   1  16
BRANCH   8  21
ATOM     21  N   UNL     1       5.597   4.041  13.909  0.00  0.00    +0.000 NA
ATOM     22  C   UNL     1       5.896   3.076  14.973  0.00  0.00    +0.000 C 
ATOM     23  C   UNL     1       6.077   3.469  12.642  0.00  0.00    +0.000 C 
ENDBRANCH   8  21
TORSDOF 4
ENDMDL
MODEL 2
REMARK VINA RESULT:      -6.3      0.709      2.766
REMARK  Name = 
REMARK  8 active torsions:
REMARK  status: ('A' for Active; 'I' for Inactive)
REMARK    1  A    between atoms: C_1  and  O_2
REMARK    2  A    between atoms: O_2  and  C_3
REMARK    3  A    between atoms: C_7  and  O_8
REMARK    4  A    between atoms: O_8  and  C_9
REMARK    5  A    between atoms: C_10  and  C_11
REMARK    6  A    between atoms: C_18  and  N_19
REMARK    7  A    between atoms: N_19  and  C_20
REMARK    8  A    between atoms: N_19  and  C_21
REMARK                            x       y       z     vdW  Elec       q    Type
REMARK                         _______ _______ _______ _____ _____    ______ ____
ROOT
ATOM      1  C   UNL     1       4.543   5.347  19.089  0.00  0.00    +0.000 A 
ATOM      2  C   UNL     1       5.885   5.283  19.491  0.00  0.00    +0.000 A 
ATOM      3  C   UNL     1       6.916   5.535  18.564  0.00  0.00    +0.000 A 
ATOM      4  C   UNL     1       6.614   5.820  17.231  0.00  0.00    +0.000 A 
ATOM      5  C   UNL     1       5.294   6.028  16.861  0.00  0.00    +0.000 A 
ATOM      6  C   UNL     1       4.289   5.824  17.794  0.00  0.00    +0.000 A 
ATOM      7  C   UNL     1       4.912   6.369  15.465  0.00  0.00    +0.000 C 
ATOM      8  C   UNL     1       5.798   5.588  14.497  0.00  0.00    +0.000 C 
ATOM      9  C   UNL     1       7.263   5.920  14.929  0.00  0.00    +0.000 C 
ATOM     10  O   UNL     1       7.629   5.798  16.316  0.00  0.00    +0.000 OA
ENDROOT
BRANCH   1  16
ATOM     11  C   UNL     1       3.153   3.345  19.726  0.00  0.00    +0.000 A 
ATOM     12  C   UNL     1       1.889   2.808  20.009  0.00  0.00    +0.000 A 
ATOM     13  C   UNL     1       0.814   3.642  20.288  0.00  0.00    +0.000 A 
ATOM     14  C   UNL     1       1.009   5.012  20.399  0.00  0.00    +0.000 A 
ATOM     15  C   UNL     1       2.276   5.573  20.192  0.00  0.00    +0.000 A 
ATOM     16  C   UNL     1       3.373   4.745  19.791  0.00  0.00    +0.000 A 
BRANCH  11  18
ATOM     17  C   UNL     1       3.822   1.494  18.434  0.00  0.00    +0.000 C 
ATOM     18  O   UNL     1       4.192   2.525  19.347  0.00  0.00    +0.000 OA
ENDBRANCH  11  18
BRANCH  15  19
ATOM     19  O   UNL     1       2.517   6.924  20.279  0.00  0.00    +0.000 OA
ATOM     20  C   UNL     1       1.497   7.759  20.813  0.00  0.00    +0.000 C 
ENDBRANCH  15  19
ENDBRANCH   1  16
BRANCH   8  21
ATOM     21  N   UNL     1       5.445   4.132  14.393  0.00  0.00    +0.000 NA
ATOM     22  C   UNL     1       6.218   3.322  15.342  0.00  0.00    +0.000 C 
ATOM     23  C   UNL     1       5.675   3.581  13.049  0.00  0.00    +0.000 C 
ENDBRANCH   8  21
TORSDOF 4
ENDMDL
MODEL 3
REMARK VINA RESULT:      -6.2      8.370     11.660
REMARK  Name = 
REMARK  8 active torsions:
REMARK  status: ('A' for Active; 'I' for Inactive)
REMARK    1  A    between atoms: C_1  and  O_2
REMARK    2  A    between atoms: O_2  and  C_3
REMARK    3  A    between atoms: C_7  and  O_8
REMARK    4  A    between atoms: O_8  and  C_9
REMARK    5  A    between atoms: C_10  and  C_11
REMARK    6  A    between atoms: C_18  and  N_19
REMARK    7  A    between atoms: N_19  and  C_20
REMARK    8  A    between atoms: N_19  and  C_21
REMARK                            x       y       z     vdW  Elec       q    Type
REMARK                         _______ _______ _______ _____ _____    ______ ____
ROOT
ATOM      1  C   UNL     1      -2.024  12.701  22.577  0.00  0.00    +0.000 A 
ATOM      2  C   UNL     1      -1.338  11.553  22.999  0.00  0.00    +0.000 A 
ATOM      3  C   UNL     1      -0.700  10.721  22.058  0.00  0.00    +0.000 A 
ATOM      4  C   UNL     1      -0.771  11.013  20.694  0.00  0.00    +0.000 A 
ATOM      5  C   UNL     1      -1.320  12.219  20.283  0.00  0.00    +0.000 A 
ATOM      6  C   UNL     1      -1.903  13.053  21.224  0.00  0.00    +0.000 A 
ATOM      7  C   UNL     1      -1.392  12.603  18.849  0.00  0.00    +0.000 C 
ATOM      8  C   UNL     1      -1.710  11.365  18.013  0.00  0.00    +0.000 C 
ATOM      9  C   UNL     1      -0.621  10.316  18.409  0.00  0.00    +0.000 C 
ATOM     10  O   UNL     1      -0.373  10.056  19.804  0.00  0.00    +0.000 OA
ENDROOT
BRANCH   1  16
ATOM     11  C   UNL     1      -4.431  13.296  23.027  0.00  0.00    +0.000 A 
ATOM     12  C   UNL     1      -5.370  14.258  23.425  0.00  0.00    +0.000 A 
ATOM     13  C   UNL     1      -4.963  15.416  24.076  0.00  0.00    +0.000 A 
ATOM     14  C   UNL     1      -3.632  15.578  24.437  0.00  0.00    +0.000 A 
ATOM     15  C   UNL     1      -2.681  14.601  24.116  0.00  0.00    +0.000 A 
ATOM     16  C   UNL     1      -3.057  13.455  23.345  0.00  0.00    +0.000 A 
BRANCH  11  18
ATOM     17  C   UNL     1      -5.598  12.516  21.137  0.00  0.00    +0.000 C 
ATOM     18  O   UNL     1      -4.820  12.200  22.291  0.00  0.00    +0.000 OA
ENDBRANCH  11  18
BRANCH  15  19
ATOM     19  O   UNL     1      -1.350  14.721  24.440  0.00  0.00    +0.000 OA
ATOM     20  C   UNL     1      -0.853  16.008  24.791  0.00  0.00    +0.000 C 
ENDBRANCH  15  19
ENDBRANCH   1  16
BRANCH   8  21
ATOM     21  N   UNL     1      -3.140  10.915  18.115  0.00  0.00    +0.000 NA
ATOM     22  C   UNL     1      -3.291   9.510  17.721  0.00  0.00    +0.000 C 
ATOM     23  C   UNL     1      -4.052  11.712  17.281  0.00  0.00    +0.000 C 
ENDBRANCH   8  21
TORSDOF 4
ENDMDL
MODEL 4
REMARK VINA RESULT:      -6.2      8.371     12.612
REMARK  Name = 
REMARK  8 active torsions:
REMARK  status: ('A' for Active; 'I' for Inactive)
REMARK    1  A    between atoms: C_1  and  O_2
REMARK    2  A    between atoms: O_2  and  C_3
REMARK    3  A    between atoms: C_7  and  O_8
REMARK    4  A    between atoms: O_8  and  C_9
REMARK    5  A    between atoms: C_10  and  C_11
REMARK    6  A    between atoms: C_18  and  N_19
REMARK    7  A    between atoms: N_19  and  C_20
REMARK    8  A    between atoms: N_19  and  C_21
REMARK                            x       y       z     vdW  Elec       q    Type
REMARK                         _______ _______ _______ _____ _____    ______ ____
ROOT
ATOM      1  C   UNL     1      -1.987  12.717  20.141  0.00  0.00    +0.000 A 
ATOM      2  C   UNL     1      -1.475  14.022  20.176  0.00  0.00    +0.000 A 
ATOM      3  C   UNL     1      -1.568  14.790  21.353  0.00  0.00    +0.000 A 
ATOM      4  C   UNL     1      -2.198  14.272  22.487  0.00  0.00    +0.000 A 
ATOM      5  C   UNL     1      -2.575  12.937  22.507  0.00  0.00    +0.000 A 
ATOM      6  C   UNL     1      -2.434  12.177  21.357  0.00  0.00    +0.000 A 
ATOM      7  C   UNL     1      -3.216  12.318  23.697  0.00  0.00    +0.000 C 
ATOM      8  C   UNL     1      -4.170  13.327  24.334  0.00  0.00    +0.000 C 
ATOM      9  C   UNL     1      -3.303  14.603  24.584  0.00  0.00    +0.000 C 
ATOM     10  O   UNL     1      -2.501  15.126  23.509  0.00  0.00    +0.000 OA
ENDROOT
BRANCH   1  16
ATOM     11  C   UNL     1      -3.690  11.725  18.571  0.00  0.00    +0.000 A 
ATOM     12  C   UNL     1      -4.056  10.683  17.708  0.00  0.00    +0.000 A 
ATOM     13  C   UNL     1      -3.104   9.787  17.239  0.00  0.00    +0.000 A 
ATOM     14  C   UNL     1      -1.761   9.984  17.533  0.00  0.00    +0.000 A 
ATOM     15  C   UNL     1      -1.356  11.058  18.336  0.00  0.00    +0.000 A 
ATOM     16  C   UNL     1      -2.331  11.926  18.924  0.00  0.00    +0.000 A 
BRANCH  11  18
ATOM     17  C   UNL     1      -5.790  11.862  19.627  0.00  0.00    +0.000 C 
ATOM     18  O   UNL     1      -4.648  12.549  19.118  0.00  0.00    +0.000 OA
ENDBRANCH  11  18
BRANCH  15  19
ATOM     19  O   UNL     1      -0.041  11.288  18.666  0.00  0.00    +0.000 OA
ATOM     20  C   UNL     1       0.703  10.228  19.256  0.00  0.00    +0.000 C 
ENDBRANCH  15  19
ENDBRANCH   1  16
BRANCH   8  21
ATOM     21  N   UNL     1      -5.446  13.524  23.566  0.00  0.00    +0.000 NA
ATOM     22  C   UNL     1      -5.920  14.909  23.659  0.00  0.00    +0.000 C 
ATOM     23  C   UNL     1      -6.534  12.650  24.028  0.00  0.00    +0.000 C 
ENDBRANCH   8  21
TORSDOF 4
ENDMDL
MODEL 5
REMARK VINA RESULT:      -6.2      7.950     12.344
REMARK  Name = 
REMARK  8 active torsions:
REMARK  status: ('A' for Active; 'I' for Inactive)
REMARK    1  A    between atoms: C_1  and  O_2
REMARK    2  A    between atoms: O_2  and  C_3
REMARK    3  A    between atoms: C_7  and  O_8
REMARK    4  A    between atoms: O_8  and  C_9
REMARK    5  A    between atoms: C_10  and  C_11
REMARK    6  A    between atoms: C_18  and  N_19
REMARK    7  A    between atoms: N_19  and  C_20
REMARK    8  A    between atoms: N_19  and  C_21
REMARK                            x       y       z     vdW  Elec       q    Type
REMARK                         _______ _______ _______ _____ _____    ______ ____
ROOT
ATOM      1  C   UNL     1      -0.872  12.227  21.791  0.00  0.00    +0.000 A 
ATOM      2  C   UNL     1      -0.227  13.466  21.915  0.00  0.00    +0.000 A 
ATOM      3  C   UNL     1      -0.791  14.484  22.708  0.00  0.00    +0.000 A 
ATOM      4  C   UNL     1      -2.014  14.282  23.353  0.00  0.00    +0.000 A 
ATOM      5  C   UNL     1      -2.583  13.017  23.353  0.00  0.00    +0.000 A 
ATOM      6  C   UNL     1      -1.992  12.008  22.608  0.00  0.00    +0.000 A 
ATOM      7  C   UNL     1      -3.864  12.730  24.051  0.00  0.00    +0.000 C 
ATOM      8  C   UNL     1      -4.803  13.923  23.885  0.00  0.00    +0.000 C 
ATOM      9  C   UNL     1      -3.986  15.157  24.389  0.00  0.00    +0.000 C 
ATOM     10  O   UNL     1      -2.652  15.365  23.889  0.00  0.00    +0.000 OA
ENDROOT
BRANCH   1  16
ATOM     11  C   UNL     1       0.486  10.360  20.781  0.00  0.00    +0.000 A 
ATOM     12  C   UNL     1       0.941   9.700  19.630  0.00  0.00    +0.000 A 
ATOM     13  C   UNL     1       0.330   9.919  18.402  0.00  0.00    +0.000 A 
ATOM     14  C   UNL     1      -0.808  10.711  18.324  0.00  0.00    +0.000 A 
ATOM     15  C   UNL     1      -1.329  11.329  19.469  0.00  0.00    +0.000 A 
ATOM     16  C   UNL     1      -0.650  11.209  20.724  0.00  0.00    +0.000 A 
BRANCH  11  18
ATOM     17  C   UNL     1       0.629   9.208  22.829  0.00  0.00    +0.000 C 
ATOM     18  O   UNL     1       1.154  10.224  21.976  0.00  0.00    +0.000 OA
ENDBRANCH  11  18
BRANCH  15  19
ATOM     19  O   UNL     1      -2.445  12.131  19.441  0.00  0.00    +0.000 OA
ATOM     20  C   UNL     1      -3.552  11.721  18.646  0.00  0.00    +0.000 C 
ENDBRANCH  15  19
ENDBRANCH   1  16
BRANCH   8  21
ATOM     21  N   UNL     1      -5.406  14.034  22.514  0.00  0.00    +0.000 NA
ATOM     22  C   UNL     1      -6.334  15.166  22.426  0.00  0.00    +0.000 C 
ATOM     23  C   UNL     1      -6.139  12.825  22.110  0.00  0.00    +0.000 C 
ENDBRANCH   8  21
TORSDOF 4
ENDMDL
MODEL 6
REMARK VINA RESULT:      -6.2      8.264     11.069
REMARK  Name = 
REMARK  8 active torsions:
REMARK  status: ('A' for Active; 'I' for Inactive)
REMARK    1  A    between atoms: C_1  and  O_2
REMARK    2  A    between atoms: O_2  and  C_3
REMARK    3  A    between atoms: C_7  and  O_8
REMARK    4  A    between atoms: O_8  and  C_9
REMARK    5  A    between atoms: C_10  and  C_11
REMARK    6  A    between atoms: C_18  and  N_19
REMARK    7  A    between atoms: N_19  and  C_20
REMARK    8  A    between atoms: N_19  and  C_21
REMARK                            x       y       z     vdW  Elec       q    Type
REMARK                         _______ _______ _______ _____ _____    ______ ____
ROOT
ATOM      1  C   UNL     1      -1.183  12.674  22.044  0.00  0.00    +0.000 A 
ATOM      2  C   UNL     1      -0.576  11.456  22.381  0.00  0.00    +0.000 A 
ATOM      3  C   UNL     1      -0.232  10.532  21.374  0.00  0.00    +0.000 A 
ATOM      4  C   UNL     1      -0.520  10.807  20.035  0.00  0.00    +0.000 A 
ATOM      5  C   UNL     1      -0.986  12.065  19.682  0.00  0.00    +0.000 A 
ATOM      6  C   UNL     1      -1.276  12.984  20.679  0.00  0.00    +0.000 A 
ATOM      7  C   UNL     1      -1.277  12.428  18.271  0.00  0.00    +0.000 C 
ATOM      8  C   UNL     1      -1.895  11.226  17.560  0.00  0.00    +0.000 C 
ATOM      9  C   UNL     1      -0.886  10.054  17.793  0.00  0.00    +0.000 C 
ATOM     10  O   UNL     1      -0.416   9.791  19.128  0.00  0.00    +0.000 OA
ENDROOT
BRANCH   1  16
ATOM     11  C   UNL     1      -1.280  14.560  23.713  0.00  0.00    +0.000 A 
ATOM     12  C   UNL     1      -1.880  15.122  24.849  0.00  0.00    +0.000 A 
ATOM     13  C   UNL     1      -3.116  14.668  25.292  0.00  0.00    +0.000 A 
ATOM     14  C   UNL     1      -3.818  13.728  24.548  0.00  0.00    +0.000 A 
ATOM     15  C   UNL     1      -3.275  13.199  23.370  0.00  0.00    +0.000 A 
ATOM     16  C   UNL     1      -1.955  13.568  22.956  0.00  0.00    +0.000 A 
BRANCH  11  18
ATOM     17  C   UNL     1       0.109  16.310  22.971  0.00  0.00    +0.000 C 
ATOM     18  O   UNL     1      -0.011  14.936  23.334  0.00  0.00    +0.000 OA
ENDBRANCH  11  18
BRANCH  15  19
ATOM     19  O   UNL     1      -3.925  12.259  22.606  0.00  0.00    +0.000 OA
ATOM     20  C   UNL     1      -4.894  12.706  21.664  0.00  0.00    +0.000 C 
ENDBRANCH  15  19
ENDBRANCH   1  16
BRANCH   8  21
ATOM     21  N   UNL     1      -3.324  10.964  17.941  0.00  0.00    +0.000 NA
ATOM     22  C   UNL     1      -3.642   9.533  17.883  0.00  0.00    +0.000 C 
ATOM     23  C   UNL     1      -4.285  11.669  17.079  0.00  0.00    +0.000 C 
ENDBRANCH   8  21
TORSDOF 4
ENDMDL
MODEL 7
REMARK VINA RESULT:      -6.2      7.523     12.018
REMARK  Name = 
REMARK  8 active torsions:
REMARK  status: ('A' for Active; 'I' for Inactive)
REMARK    1  A    between atoms: C_1  and  O_2
REMARK    2  A    between atoms: O_2  and  C_3
REMARK    3  A    between atoms: C_7  and  O_8
REMARK    4  A    between atoms: O_8  and  C_9
REMARK    5  A    between atoms: C_10  and  C_11
REMARK    6  A    between atoms: C_18  and  N_19
REMARK    7  A    between atoms: N_19  and  C_20
REMARK    8  A    between atoms: N_19  and  C_21
REMARK                            x       y       z     vdW  Elec       q    Type
REMARK                         _______ _______ _______ _____ _____    ______ ____
ROOT
ATOM      1  C   UNL     1      -0.083  11.902  21.147  0.00  0.00    +0.000 A 
ATOM      2  C   UNL     1      -0.131  10.990  22.211  0.00  0.00    +0.000 A 
ATOM      3  C   UNL     1      -1.265  10.931  23.045  0.00  0.00    +0.000 A 
ATOM      4  C   UNL     1      -2.339  11.801  22.840  0.00  0.00    +0.000 A 
ATOM      5  C   UNL     1      -2.361  12.601  21.707  0.00  0.00    +0.000 A 
ATOM      6  C   UNL     1      -1.259  12.615  20.866  0.00  0.00    +0.000 A 
ATOM      7  C   UNL     1      -3.492  13.520  21.415  0.00  0.00    +0.000 C 
ATOM      8  C   UNL     1      -3.986  14.138  22.721  0.00  0.00    +0.000 C 
ATOM      9  C   UNL     1      -4.289  12.923  23.657  0.00  0.00    +0.000 C 
ATOM     10  O   UNL     1      -3.292  11.896  23.813  0.00  0.00    +0.000 OA
ENDROOT
BRANCH   1  16
ATOM     11  C   UNL     1       1.771  13.579  20.832  0.00  0.00    +0.000 A 
ATOM     12  C   UNL     1       2.640  14.252  19.961  0.00  0.00    +0.000 A 
ATOM     13  C   UNL     1       2.841  13.788  18.667  0.00  0.00    +0.000 A 
ATOM     14  C   UNL     1       2.268  12.590  18.262  0.00  0.00    +0.000 A 
ATOM     15  C   UNL     1       1.452  11.858  19.134  0.00  0.00    +0.000 A 
ATOM     16  C   UNL     1       1.138  12.374  20.432  0.00  0.00    +0.000 A 
BRANCH  11  18
ATOM     17  C   UNL     1       0.937  15.410  22.055  0.00  0.00    +0.000 C 
ATOM     18  O   UNL     1       1.490  14.096  22.077  0.00  0.00    +0.000 OA
ENDBRANCH  11  18
BRANCH  15  19
ATOM     19  O   UNL     1       0.853  10.673  18.776  0.00  0.00    +0.000 OA
ATOM     20  C   UNL     1       1.647   9.680  18.138  0.00  0.00    +0.000 C 
ENDBRANCH  15  19
ENDBRANCH   1  16
BRANCH   8  21
ATOM     21  N   UNL     1      -3.076  15.198  23.274  0.00  0.00    +0.000 NA
ATOM     22  C   UNL     1      -3.233  15.338  24.725  0.00  0.00    +0.000 C 
ATOM     23  C   UNL     1      -3.304  16.520  22.672  0.00  0.00    +0.000 C 
ENDBRANCH   8  21
TORSDOF 4
ENDMDL
MODEL 8
REMARK VINA RESULT:      -6.1      9.407     12.361
REMARK  Name = 
REMARK  8 active torsions:
REMARK  status: ('A' for Active; 'I' for Inactive)
REMARK    1  A    between atoms: C_1  and  O_2
REMARK    2  A    between atoms: O_2  and  C_3
REMARK    3  A    between atoms: C_7  and  O_8
REMARK    4  A    between atoms: O_8  and  C_9
REMARK    5  A    between atoms: C_10  and  C_11
REMARK    6  A    between atoms: C_18  and  N_19
REMARK    7  A    between atoms: N_19  and  C_20
REMARK    8  A    between atoms: N_19  and  C_21
REMARK                            x       y       z     vdW  Elec       q    Type
REMARK                         _______ _______ _______ _____ _____    ______ ____
ROOT
ATOM      1  C   UNL     1       8.523  14.652  18.562  0.00  0.00    +0.000 A 
ATOM      2  C   UNL     1       7.222  14.830  18.069  0.00  0.00    +0.000 A 
ATOM      3  C   UNL     1       6.145  15.011  18.958  0.00  0.00    +0.000 A 
ATOM      4  C   UNL     1       6.356  14.985  20.339  0.00  0.00    +0.000 A 
ATOM      5  C   UNL     1       7.653  14.957  20.829  0.00  0.00    +0.000 A 
ATOM      6  C   UNL     1       8.710  14.826  19.942  0.00  0.00    +0.000 A 
ATOM      7  C   UNL     1       7.943  14.964  22.287  0.00  0.00    +0.000 C 
ATOM      8  C   UNL     1       6.900  14.115  23.011  0.00  0.00    +0.000 C 
ATOM      9  C   UNL     1       5.520  14.699  22.563  0.00  0.00    +0.000 C 
ATOM     10  O   UNL     1       5.268  14.901  21.160  0.00  0.00    +0.000 OA
ENDROOT
BRANCH   1  16
ATOM     11  C   UNL     1       9.976  12.685  17.953  0.00  0.00    +0.000 A 
ATOM     12  C   UNL     1      11.249  12.194  17.628  0.00  0.00    +0.000 A 
ATOM     13  C   UNL     1      12.263  13.061  17.245  0.00  0.00    +0.000 A 
ATOM     14  C   UNL     1      11.994  14.413  17.073  0.00  0.00    +0.000 A 
ATOM     15  C   UNL     1      10.714  14.923  17.322  0.00  0.00    +0.000 A 
ATOM     16  C   UNL     1       9.683  14.068  17.828  0.00  0.00    +0.000 A 
BRANCH  11  18
ATOM     17  C   UNL     1       9.412  11.043  19.543  0.00  0.00    +0.000 C 
ATOM     18  O   UNL     1       9.001  11.840  18.433  0.00  0.00    +0.000 OA
ENDBRANCH  11  18
BRANCH  15  19
ATOM     19  O   UNL     1      10.400  16.254  17.178  0.00  0.00    +0.000 OA
ATOM     20  C   UNL     1      11.254  17.218  17.782  0.00  0.00    +0.000 C 
ENDBRANCH  15  19
ENDBRANCH   1  16
BRANCH   8  21
ATOM     21  N   UNL     1       7.090  12.636  22.831  0.00  0.00    +0.000 NA
ATOM     22  C   UNL     1       6.184  11.869  23.693  0.00  0.00    +0.000 C 
ATOM     23  C   UNL     1       8.462  12.195  23.123  0.00  0.00    +0.000 C 
ENDBRANCH   8  21
TORSDOF 4
ENDMDL
MODEL 9
REMARK VINA RESULT:      -6.1      8.559     12.064
REMARK  Name = 
REMARK  8 active torsions:
REMARK  status: ('A' for Active; 'I' for Inactive)
REMARK    1  A    between atoms: C_1  and  O_2
REMARK    2  A    between atoms: O_2  and  C_3
REMARK    3  A    between atoms: C_7  and  O_8
REMARK    4  A    between atoms: O_8  and  C_9
REMARK    5  A    between atoms: C_10  and  C_11
REMARK    6  A    between atoms: C_18  and  N_19
REMARK    7  A    between atoms: N_19  and  C_20
REMARK    8  A    between atoms: N_19  and  C_21
REMARK                            x       y       z     vdW  Elec       q    Type
REMARK                         _______ _______ _______ _____ _____    ______ ____
ROOT
ATOM      1  C   UNL     1      -3.452  13.196  22.448  0.00  0.00    +0.000 A 
ATOM      2  C   UNL     1      -2.840  12.285  23.320  0.00  0.00    +0.000 A 
ATOM      3  C   UNL     1      -1.729  11.531  22.894  0.00  0.00    +0.000 A 
ATOM      4  C   UNL     1      -1.246  11.660  21.590  0.00  0.00    +0.000 A 
ATOM      5  C   UNL     1      -1.752  12.659  20.772  0.00  0.00    +0.000 A 
ATOM      6  C   UNL     1      -2.814  13.428  21.220  0.00  0.00    +0.000 A 
ATOM      7  C   UNL     1      -1.254  12.869  19.387  0.00  0.00    +0.000 C 
ATOM      8  C   UNL     1      -0.969  11.514  18.745  0.00  0.00    +0.000 C 
ATOM      9  C   UNL     1      -0.004  10.788  19.739  0.00  0.00    +0.000 C 
ATOM     10  O   UNL     1      -0.349  10.735  21.136  0.00  0.00    +0.000 OA
ENDROOT
BRANCH   1  16
ATOM     11  C   UNL     1      -5.048  14.900  23.399  0.00  0.00    +0.000 A 
ATOM     12  C   UNL     1      -6.337  15.205  23.859  0.00  0.00    +0.000 A 
ATOM     13  C   UNL     1      -7.405  14.365  23.572  0.00  0.00    +0.000 A 
ATOM     14  C   UNL     1      -7.225  13.273  22.733  0.00  0.00    +0.000 A 
ATOM     15  C   UNL     1      -5.963  12.982  22.200  0.00  0.00    +0.000 A 
ATOM     16  C   UNL     1      -4.825  13.767  22.574  0.00  0.00    +0.000 A 
BRANCH  11  18
ATOM     17  C   UNL     1      -4.232  16.555  24.861  0.00  0.00    +0.000 C 
ATOM     18  O   UNL     1      -3.972  15.674  23.769  0.00  0.00    +0.000 OA
ENDBRANCH  11  18
BRANCH  15  19
ATOM     19  O   UNL     1      -5.731  11.907  21.375  0.00  0.00    +0.000 OA
ATOM     20  C   UNL     1      -6.794  11.448  20.549  0.00  0.00    +0.000 C 
ENDBRANCH  15  19
ENDBRANCH   1  16
BRANCH   8  21
ATOM     21  N   UNL     1      -2.205  10.761  18.343  0.00  0.00    +0.000 NA
ATOM     22  C   UNL     1      -1.943   9.864  17.212  0.00  0.00    +0.000 C 
ATOM     23  C   UNL     1      -3.316  11.645  17.962  0.00  0.00    +0.000 C 
ENDBRANCH   8  21
TORSDOF 4
ENDMDL
