MODEL 1
REMARK VINA RESULT:      -7.5      0.000      0.000
REMARK  Name = 
REMARK  7 active torsions:
REMARK  status: ('A' for Active; 'I' for Inactive)
REMARK    1  A    between atoms: CB_1  and  CA_2
REMARK    2  A    between atoms: CA_2  and  N_3
REMARK    3  A    between atoms: CA_2  and  C_20
REMARK    4  A    between atoms: N_3  and  C_4
REMARK    5  A    between atoms: C_10  and  C_11
REMARK    6  A    between atoms: C_11  and  C_13
REMARK    7  A    between atoms: C_20  and  OXT_22
REMARK                            x       y       z     vdW  Elec       q    Type
REMARK                         _______ _______ _______ _____ _____    ______ ____
ROOT
ATOM      1  C   UNK A   0       4.492   4.946  19.012  0.00  0.00    +0.000 A 
ATOM      2  C   UNK A   0       4.482   3.575  19.331  0.00  0.00    +0.000 A 
ATOM      3  C   UNK A   0       3.322   2.796  19.235  0.00  0.00    +0.000 A 
ATOM      4  C   UNK A   0       2.146   3.368  18.776  0.00  0.00    +0.000 A 
ATOM      5 CL   UNK A   0       0.726   2.408  18.648  0.00  0.00    +0.000 Cl
ATOM      6  C   UNK A   0       2.122   4.706  18.410  0.00  0.00    +0.000 A 
ATOM      7  C   UNK A   0       3.281   5.501  18.522  0.00  0.00    +0.000 A 
ENDROOT
BRANCH   1   8
ATOM      8  N   ALA A   1       5.697   5.699  19.025  0.00  0.00    +0.000 N 
ATOM      9  H   ALA A   1       5.494   6.564  18.505  0.00  0.00    +0.000 HD
BRANCH   8  11
ATOM     10  CB  ALA A   1       8.193   5.545  19.161  0.00  0.00    +0.000 C 
ATOM     11  CA  ALA A   1       6.932   5.068  18.444  0.00  0.00    +0.000 C 
BRANCH  11  12
ATOM     12  C   ALA A   1       7.067   5.462  16.965  0.00  0.00    +0.000 C 
ATOM     13  O   ALA A   1       7.597   4.770  16.112  0.00  0.00    +0.000 OA
BRANCH  12  14
ATOM     14  OXT ALA A   1       6.563   6.690  16.712  0.00  0.00    +0.000 OA
ATOM     15  HXT ALA A   1       5.792   6.859  17.299  0.00  0.00    +0.000 HD
ENDBRANCH  12  14
ENDBRANCH  11  12
ENDBRANCH   8  11
ENDBRANCH   1   8
BRANCH   7  16
ATOM     16  C   UNK A   0       3.116   6.904  18.054  0.00  0.00    +0.000 C 
ATOM     17  O   UNK A   0       3.715   7.246  17.033  0.00  0.00    +0.000 OA
BRANCH  16  18
ATOM     18  C   UNK A   0       2.234   7.899  18.715  0.00  0.00    +0.000 A 
ATOM     19  C   UNK A   0       1.901   7.822  20.070  0.00  0.00    +0.000 A 
ATOM     20  C   UNK A   0       1.070   8.787  20.647  0.00  0.00    +0.000 A 
ATOM     21  C   UNK A   0       0.529   9.799  19.857  0.00  0.00    +0.000 A 
ATOM     22 BR   UNK A   0      -0.629  11.073  20.631  0.00  0.00    +0.000 Br
ATOM     23  C   UNK A   0       0.821   9.865  18.496  0.00  0.00    +0.000 A 
ATOM     24  C   UNK A   0       1.675   8.915  17.927  0.00  0.00    +0.000 A 
ENDBRANCH  16  18
ENDBRANCH   7  16
TORSDOF 6
ENDMDL
MODEL 2
REMARK VINA RESULT:      -7.5      0.868      1.436
REMARK  Name = 
REMARK  7 active torsions:
REMARK  status: ('A' for Active; 'I' for Inactive)
REMARK    1  A    between atoms: CB_1  and  CA_2
REMARK    2  A    between atoms: CA_2  and  N_3
REMARK    3  A    between atoms: CA_2  and  C_20
REMARK    4  A    between atoms: N_3  and  C_4
REMARK    5  A    between atoms: C_10  and  C_11
REMARK    6  A    between atoms: C_11  and  C_13
REMARK    7  A    between atoms: C_20  and  OXT_22
REMARK                            x       y       z     vdW  Elec       q    Type
REMARK                         _______ _______ _______ _____ _____    ______ ____
ROOT
ATOM      1  C   UNK A   0       4.634   4.770  19.052  0.00  0.00    +0.000 A 
ATOM      2  C   UNK A   0       4.583   3.403  19.382  0.00  0.00    +0.000 A 
ATOM      3  C   UNK A   0       3.410   2.649  19.254  0.00  0.00    +0.000 A 
ATOM      4  C   UNK A   0       2.262   3.242  18.753  0.00  0.00    +0.000 A 
ATOM      5 CL   UNK A   0       0.826   2.312  18.586  0.00  0.00    +0.000 Cl
ATOM      6  C   UNK A   0       2.279   4.577  18.375  0.00  0.00    +0.000 A 
ATOM      7  C   UNK A   0       3.452   5.347  18.520  0.00  0.00    +0.000 A 
ENDROOT
BRANCH   1   8
ATOM      8  N   ALA A   1       5.854   5.497  19.099  0.00  0.00    +0.000 N 
ATOM      9  H   ALA A   1       5.602   6.452  19.390  0.00  0.00    +0.000 HD
BRANCH   8  11
ATOM     10  CB  ALA A   1       7.723   4.468  17.788  0.00  0.00    +0.000 C 
ATOM     11  CA  ALA A   1       6.676   5.578  17.843  0.00  0.00    +0.000 C 
BRANCH  11  12
ATOM     12  C   ALA A   1       7.427   6.919  17.803  0.00  0.00    +0.000 C 
ATOM     13  O   ALA A   1       8.280   7.256  18.605  0.00  0.00    +0.000 OA
BRANCH  12  14
ATOM     14  OXT ALA A   1       7.007   7.712  16.792  0.00  0.00    +0.000 OA
ATOM     15  HXT ALA A   1       7.164   7.263  15.932  0.00  0.00    +0.000 HD
ENDBRANCH  12  14
ENDBRANCH  11  12
ENDBRANCH   8  11
ENDBRANCH   1   8
BRANCH   7  16
ATOM     16  C   UNK A   0       3.333   6.750  18.036  0.00  0.00    +0.000 C 
ATOM     17  O   UNK A   0       4.020   7.087  17.071  0.00  0.00    +0.000 OA
BRANCH  16  18
ATOM     18  C   UNK A   0       2.398   7.749  18.614  0.00  0.00    +0.000 A 
ATOM     19  C   UNK A   0       1.888   8.816  17.869  0.00  0.00    +0.000 A 
ATOM     20  C   UNK A   0       1.007   9.727  18.458  0.00  0.00    +0.000 A 
ATOM     21  C   UNK A   0       0.679   9.603  19.807  0.00  0.00    +0.000 A 
ATOM     22 BR   UNK A   0      -0.475  10.864  20.610  0.00  0.00    +0.000 Br
ATOM     23  C   UNK A   0       1.212   8.568  20.572  0.00  0.00    +0.000 A 
ATOM     24  C   UNK A   0       2.071   7.640  19.973  0.00  0.00    +0.000 A 
ENDBRANCH  16  18
ENDBRANCH   7  16
TORSDOF 6
ENDMDL
MODEL 3
REMARK VINA RESULT:      -7.4      1.415      2.018
REMARK  Name = 
REMARK  7 active torsions:
REMARK  status: ('A' for Active; 'I' for Inactive)
REMARK    1  A    between atoms: CB_1  and  CA_2
REMARK    2  A    between atoms: CA_2  and  N_3
REMARK    3  A    between atoms: CA_2  and  C_20
REMARK    4  A    between atoms: N_3  and  C_4
REMARK    5  A    between atoms: C_10  and  C_11
REMARK    6  A    between atoms: C_11  and  C_13
REMARK    7  A    between atoms: C_20  and  OXT_22
REMARK                            x       y       z     vdW  Elec       q    Type
REMARK                         _______ _______ _______ _____ _____    ______ ____
ROOT
ATOM      1  C   UNK A   0       3.873   4.389  17.140  0.00  0.00    +0.000 A 
ATOM      2  C   UNK A   0       3.461   3.045  17.198  0.00  0.00    +0.000 A 
ATOM      3  C   UNK A   0       2.465   2.609  18.081  0.00  0.00    +0.000 A 
ATOM      4  C   UNK A   0       1.828   3.523  18.905  0.00  0.00    +0.000 A 
ATOM      5 CL   UNK A   0       0.598   2.988  19.981  0.00  0.00    +0.000 Cl
ATOM      6  C   UNK A   0       2.174   4.866  18.850  0.00  0.00    +0.000 A 
ATOM      7  C   UNK A   0       3.189   5.308  17.977  0.00  0.00    +0.000 A 
ENDROOT
BRANCH   1   8
ATOM      8  N   ALA A   1       4.817   4.831  16.173  0.00  0.00    +0.000 N 
ATOM      9  H   ALA A   1       4.357   4.721  15.260  0.00  0.00    +0.000 HD
BRANCH   8  11
ATOM     10  CB  ALA A   1       7.095   4.680  17.202  0.00  0.00    +0.000 C 
ATOM     11  CA  ALA A   1       6.154   4.145  16.125  0.00  0.00    +0.000 C 
BRANCH  11  12
ATOM     12  C   ALA A   1       6.819   4.404  14.764  0.00  0.00    +0.000 C 
ATOM     13  O   ALA A   1       7.600   5.313  14.540  0.00  0.00    +0.000 OA
BRANCH  12  14
ATOM     14  OXT ALA A   1       6.411   3.529  13.818  0.00  0.00    +0.000 OA
ATOM     15  HXT ALA A   1       5.430   3.535  13.763  0.00  0.00    +0.000 HD
ENDBRANCH  12  14
ENDBRANCH  11  12
ENDBRANCH   8  11
ENDBRANCH   1   8
BRANCH   7  16
ATOM     16  C   UNK A   0       3.423   6.778  17.997  0.00  0.00    +0.000 C 
ATOM     17  O   UNK A   0       4.475   7.202  17.516  0.00  0.00    +0.000 OA
BRANCH  16  18
ATOM     18  C   UNK A   0       2.442   7.766  18.515  0.00  0.00    +0.000 A 
ATOM     19  C   UNK A   0       1.874   8.752  17.705  0.00  0.00    +0.000 A 
ATOM     20  C   UNK A   0       0.951   9.656  18.239  0.00  0.00    +0.000 A 
ATOM     21  C   UNK A   0       0.637   9.607  19.595  0.00  0.00    +0.000 A 
ATOM     22 BR   UNK A   0      -0.575  10.860  20.322  0.00  0.00    +0.000 Br
ATOM     23  C   UNK A   0       1.227   8.655  20.424  0.00  0.00    +0.000 A 
ATOM     24  C   UNK A   0       2.129   7.733  19.881  0.00  0.00    +0.000 A 
ENDBRANCH  16  18
ENDBRANCH   7  16
TORSDOF 6
ENDMDL
MODEL 4
REMARK VINA RESULT:      -7.4      1.290      1.420
REMARK  Name = 
REMARK  7 active torsions:
REMARK  status: ('A' for Active; 'I' for Inactive)
REMARK    1  A    between atoms: CB_1  and  CA_2
REMARK    2  A    between atoms: CA_2  and  N_3
REMARK    3  A    between atoms: CA_2  and  C_20
REMARK    4  A    between atoms: N_3  and  C_4
REMARK    5  A    between atoms: C_10  and  C_11
REMARK    6  A    between atoms: C_11  and  C_13
REMARK    7  A    between atoms: C_20  and  OXT_22
REMARK                            x       y       z     vdW  Elec       q    Type
REMARK                         _______ _______ _______ _____ _____    ______ ____
ROOT
ATOM      1  C   UNK A   0       4.160   4.990  17.393  0.00  0.00    +0.000 A 
ATOM      2  C   UNK A   0       4.075   3.588  17.312  0.00  0.00    +0.000 A 
ATOM      3  C   UNK A   0       2.967   2.880  17.793  0.00  0.00    +0.000 A 
ATOM      4  C   UNK A   0       1.893   3.568  18.336  0.00  0.00    +0.000 A 
ATOM      5 CL   UNK A   0       0.529   2.698  18.917  0.00  0.00    +0.000 Cl
ATOM      6  C   UNK A   0       1.918   4.955  18.396  0.00  0.00    +0.000 A 
ATOM      7  C   UNK A   0       3.038   5.672  17.931  0.00  0.00    +0.000 A 
ENDROOT
BRANCH   1   8
ATOM      8  N   ALA A   1       5.248   5.699  16.815  0.00  0.00    +0.000 N 
ATOM      9  H   ALA A   1       5.391   5.285  15.884  0.00  0.00    +0.000 HD
BRANCH   8  11
ATOM     10  CB  ALA A   1       7.197   7.088  17.552  0.00  0.00    +0.000 C 
ATOM     11  CA  ALA A   1       6.560   5.700  17.548  0.00  0.00    +0.000 C 
BRANCH  11  12
ATOM     12  C   ALA A   1       7.543   4.746  16.851  0.00  0.00    +0.000 C 
ATOM     13  O   ALA A   1       7.640   4.618  15.643  0.00  0.00    +0.000 OA
BRANCH  12  14
ATOM     14  OXT ALA A   1       8.272   4.025  17.732  0.00  0.00    +0.000 OA
ATOM     15  HXT ALA A   1       7.743   3.261  18.052  0.00  0.00    +0.000 HD
ENDBRANCH  12  14
ENDBRANCH  11  12
ENDBRANCH   8  11
ENDBRANCH   1   8
BRANCH   7  16
ATOM     16  C   UNK A   0       2.905   7.152  18.021  0.00  0.00    +0.000 C 
ATOM     17  O   UNK A   0       3.428   7.833  17.138  0.00  0.00    +0.000 OA
BRANCH  16  18
ATOM     18  C   UNK A   0       2.136   7.851  19.083  0.00  0.00    +0.000 A 
ATOM     19  C   UNK A   0       2.023   7.347  20.381  0.00  0.00    +0.000 A 
ATOM     20  C   UNK A   0       1.292   8.045  21.346  0.00  0.00    +0.000 A 
ATOM     21  C   UNK A   0       0.630   9.220  20.999  0.00  0.00    +0.000 A 
ATOM     22 BR   UNK A   0      -0.394  10.136  22.294  0.00  0.00    +0.000 Br
ATOM     23  C   UNK A   0       0.700   9.714  19.697  0.00  0.00    +0.000 A 
ATOM     24  C   UNK A   0       1.456   9.028  18.741  0.00  0.00    +0.000 A 
ENDBRANCH  16  18
ENDBRANCH   7  16
TORSDOF 6
ENDMDL
MODEL 5
REMARK VINA RESULT:      -7.4      0.398      1.248
REMARK  Name = 
REMARK  7 active torsions:
REMARK  status: ('A' for Active; 'I' for Inactive)
REMARK    1  A    between atoms: CB_1  and  CA_2
REMARK    2  A    between atoms: CA_2  and  N_3
REMARK    3  A    between atoms: CA_2  and  C_20
REMARK    4  A    between atoms: N_3  and  C_4
REMARK    5  A    between atoms: C_10  and  C_11
REMARK    6  A    between atoms: C_11  and  C_13
REMARK    7  A    between atoms: C_20  and  OXT_22
REMARK                            x       y       z     vdW  Elec       q    Type
REMARK                         _______ _______ _______ _____ _____    ______ ____
ROOT
ATOM      1  C   UNK A   0       4.440   4.815  19.163  0.00  0.00    +0.000 A 
ATOM      2  C   UNK A   0       4.384   3.453  19.514  0.00  0.00    +0.000 A 
ATOM      3  C   UNK A   0       3.221   2.690  19.357  0.00  0.00    +0.000 A 
ATOM      4  C   UNK A   0       2.088   3.268  18.806  0.00  0.00    +0.000 A 
ATOM      5 CL   UNK A   0       0.663   2.327  18.605  0.00  0.00    +0.000 Cl
ATOM      6  C   UNK A   0       2.111   4.597  18.408  0.00  0.00    +0.000 A 
ATOM      7  C   UNK A   0       3.274   5.376  18.580  0.00  0.00    +0.000 A 
ENDROOT
BRANCH   1   8
ATOM      8  N   ALA A   1       5.654   5.549  19.241  0.00  0.00    +0.000 N 
ATOM      9  H   ALA A   1       5.461   6.459  18.798  0.00  0.00    +0.000 HD
BRANCH   8  11
ATOM     10  CB  ALA A   1       8.146   5.688  19.045  0.00  0.00    +0.000 C 
ATOM     11  CA  ALA A   1       6.880   4.956  18.606  0.00  0.00    +0.000 C 
BRANCH  11  12
ATOM     12  C   ALA A   1       6.784   5.082  17.077  0.00  0.00    +0.000 C 
ATOM     13  O   ALA A   1       6.953   6.119  16.459  0.00  0.00    +0.000 OA
BRANCH  12  14
ATOM     14  OXT ALA A   1       6.449   3.914  16.486  0.00  0.00    +0.000 OA
ATOM     15  HXT ALA A   1       5.628   3.559  16.894  0.00  0.00    +0.000 HD
ENDBRANCH  12  14
ENDBRANCH  11  12
ENDBRANCH   8  11
ENDBRANCH   1   8
BRANCH   7  16
ATOM     16  C   UNK A   0       3.165   6.770  18.069  0.00  0.00    +0.000 C 
ATOM     17  O   UNK A   0       3.834   7.076  17.081  0.00  0.00    +0.000 OA
BRANCH  16  18
ATOM     18  C   UNK A   0       2.260   7.796  18.648  0.00  0.00    +0.000 A 
ATOM     19  C   UNK A   0       1.747   8.854  17.893  0.00  0.00    +0.000 A 
ATOM     20  C   UNK A   0       0.895   9.791  18.483  0.00  0.00    +0.000 A 
ATOM     21  C   UNK A   0       0.600   9.702  19.842  0.00  0.00    +0.000 A 
ATOM     22 BR   UNK A   0      -0.515  10.998  20.645  0.00  0.00    +0.000 Br
ATOM     23  C   UNK A   0       1.137   8.676  20.617  0.00  0.00    +0.000 A 
ATOM     24  C   UNK A   0       1.966   7.722  20.017  0.00  0.00    +0.000 A 
ENDBRANCH  16  18
ENDBRANCH   7  16
TORSDOF 6
ENDMDL
MODEL 6
REMARK VINA RESULT:      -7.3      1.457      1.743
REMARK  Name = 
REMARK  7 active torsions:
REMARK  status: ('A' for Active; 'I' for Inactive)
REMARK    1  A    between atoms: CB_1  and  CA_2
REMARK    2  A    between atoms: CA_2  and  N_3
REMARK    3  A    between atoms: CA_2  and  C_20
REMARK    4  A    between atoms: N_3  and  C_4
REMARK    5  A    between atoms: C_10  and  C_11
REMARK    6  A    between atoms: C_11  and  C_13
REMARK    7  A    between atoms: C_20  and  OXT_22
REMARK                            x       y       z     vdW  Elec       q    Type
REMARK                         _______ _______ _______ _____ _____    ______ ____
ROOT
ATOM      1  C   UNK A   0       3.909   4.141  17.351  0.00  0.00    +0.000 A 
ATOM      2  C   UNK A   0       3.587   2.802  17.641  0.00  0.00    +0.000 A 
ATOM      3  C   UNK A   0       2.738   2.451  18.697  0.00  0.00    +0.000 A 
ATOM      4  C   UNK A   0       2.156   3.444  19.471  0.00  0.00    +0.000 A 
ATOM      5 CL   UNK A   0       1.104   3.013  20.761  0.00  0.00    +0.000 Cl
ATOM      6  C   UNK A   0       2.412   4.779  19.193  0.00  0.00    +0.000 A 
ATOM      7  C   UNK A   0       3.282   5.138  18.143  0.00  0.00    +0.000 A 
ENDROOT
BRANCH   1   8
ATOM      8  N   ALA A   1       4.696   4.484  16.219  0.00  0.00    +0.000 N 
ATOM      9  H   ALA A   1       4.203   4.092  15.405  0.00  0.00    +0.000 HD
BRANCH   8  11
ATOM     10  CB  ALA A   1       6.961   4.708  17.263  0.00  0.00    +0.000 C 
ATOM     11  CA  ALA A   1       6.126   4.020  16.185  0.00  0.00    +0.000 C 
BRANCH  11  12
ATOM     12  C   ALA A   1       6.751   4.370  14.826  0.00  0.00    +0.000 C 
ATOM     13  O   ALA A   1       7.512   5.304  14.637  0.00  0.00    +0.000 OA
BRANCH  12  14
ATOM     14  OXT ALA A   1       6.332   3.546  13.840  0.00  0.00    +0.000 OA
ATOM     15  HXT ALA A   1       6.422   3.997  12.971  0.00  0.00    +0.000 HD
ENDBRANCH  12  14
ENDBRANCH  11  12
ENDBRANCH   8  11
ENDBRANCH   1   8
BRANCH   7  16
ATOM     16  C   UNK A   0       3.429   6.605  17.937  0.00  0.00    +0.000 C 
ATOM     17  O   UNK A   0       4.325   6.996  17.188  0.00  0.00    +0.000 OA
BRANCH  16  18
ATOM     18  C   UNK A   0       2.527   7.620  18.539  0.00  0.00    +0.000 A 
ATOM     19  C   UNK A   0       2.116   7.559  19.873  0.00  0.00    +0.000 A 
ATOM     20  C   UNK A   0       1.270   8.542  20.395  0.00  0.00    +0.000 A 
ATOM     21  C   UNK A   0       0.793   9.557  19.568  0.00  0.00    +0.000 A 
ATOM     22 BR   UNK A   0      -0.385  10.857  20.266  0.00  0.00    +0.000 Br
ATOM     23  C   UNK A   0       1.163   9.608  18.225  0.00  0.00    +0.000 A 
ATOM     24  C   UNK A   0       2.032   8.639  17.713  0.00  0.00    +0.000 A 
ENDBRANCH  16  18
ENDBRANCH   7  16
TORSDOF 6
ENDMDL
MODEL 7
REMARK VINA RESULT:      -7.3      1.358      1.452
REMARK  Name = 
REMARK  7 active torsions:
REMARK  status: ('A' for Active; 'I' for Inactive)
REMARK    1  A    between atoms: CB_1  and  CA_2
REMARK    2  A    between atoms: CA_2  and  N_3
REMARK    3  A    between atoms: CA_2  and  C_20
REMARK    4  A    between atoms: N_3  and  C_4
REMARK    5  A    between atoms: C_10  and  C_11
REMARK    6  A    between atoms: C_11  and  C_13
REMARK    7  A    between atoms: C_20  and  OXT_22
REMARK                            x       y       z     vdW  Elec       q    Type
REMARK                         _______ _______ _______ _____ _____    ______ ____
ROOT
ATOM      1  C   UNK A   0       4.557   4.899  17.562  0.00  0.00    +0.000 A 
ATOM      2  C   UNK A   0       4.524   3.493  17.589  0.00  0.00    +0.000 A 
ATOM      3  C   UNK A   0       3.369   2.780  17.933  0.00  0.00    +0.000 A 
ATOM      4  C   UNK A   0       2.200   3.465  18.225  0.00  0.00    +0.000 A 
ATOM      5 CL   UNK A   0       0.779   2.589  18.638  0.00  0.00    +0.000 Cl
ATOM      6  C   UNK A   0       2.176   4.852  18.170  0.00  0.00    +0.000 A 
ATOM      7  C   UNK A   0       3.341   5.575  17.842  0.00  0.00    +0.000 A 
ENDROOT
BRANCH   1   8
ATOM      8  N   ALA A   1       5.709   5.604  17.119  0.00  0.00    +0.000 N 
ATOM      9  H   ALA A   1       6.289   4.912  16.624  0.00  0.00    +0.000 HD
BRANCH   8  11
ATOM     10  CB  ALA A   1       7.403   7.401  17.531  0.00  0.00    +0.000 C 
ATOM     11  CA  ALA A   1       6.557   6.292  18.152  0.00  0.00    +0.000 C 
BRANCH  11  12
ATOM     12  C   ALA A   1       7.523   5.278  18.787  0.00  0.00    +0.000 C 
ATOM     13  O   ALA A   1       8.033   4.345  18.190  0.00  0.00    +0.000 OA
BRANCH  12  14
ATOM     14  OXT ALA A   1       7.720   5.511  20.103  0.00  0.00    +0.000 OA
ATOM     15  HXT ALA A   1       8.306   6.292  20.217  0.00  0.00    +0.000 HD
ENDBRANCH  12  14
ENDBRANCH  11  12
ENDBRANCH   8  11
ENDBRANCH   1   8
BRANCH   7  16
ATOM     16  C   UNK A   0       3.154   7.051  17.781  0.00  0.00    +0.000 C 
ATOM     17  O   UNK A   0       3.678   7.661  16.847  0.00  0.00    +0.000 OA
BRANCH  16  18
ATOM     18  C   UNK A   0       2.334   7.823  18.749  0.00  0.00    +0.000 A 
ATOM     19  C   UNK A   0       2.133   7.399  20.065  0.00  0.00    +0.000 A 
ATOM     20  C   UNK A   0       1.356   8.164  20.940  0.00  0.00    +0.000 A 
ATOM     21  C   UNK A   0       0.736   9.325  20.483  0.00  0.00    +0.000 A 
ATOM     22 BR   UNK A   0      -0.351  10.330  21.655  0.00  0.00    +0.000 Br
ATOM     23  C   UNK A   0       0.894   9.738  19.161  0.00  0.00    +0.000 A 
ATOM     24  C   UNK A   0       1.696   8.986  18.296  0.00  0.00    +0.000 A 
ENDBRANCH  16  18
ENDBRANCH   7  16
TORSDOF 6
ENDMDL
MODEL 8
REMARK VINA RESULT:      -7.2      1.164      1.275
REMARK  Name = 
REMARK  7 active torsions:
REMARK  status: ('A' for Active; 'I' for Inactive)
REMARK    1  A    between atoms: CB_1  and  CA_2
REMARK    2  A    between atoms: CA_2  and  N_3
REMARK    3  A    between atoms: CA_2  and  C_20
REMARK    4  A    between atoms: N_3  and  C_4
REMARK    5  A    between atoms: C_10  and  C_11
REMARK    6  A    between atoms: C_11  and  C_13
REMARK    7  A    between atoms: C_20  and  OXT_22
REMARK                            x       y       z     vdW  Elec       q    Type
REMARK                         _______ _______ _______ _____ _____    ______ ____
ROOT
ATOM      1  C   UNK A   0       4.408   4.495  17.451  0.00  0.00    +0.000 A 
ATOM      2  C   UNK A   0       4.209   3.102  17.474  0.00  0.00    +0.000 A 
ATOM      3  C   UNK A   0       2.995   2.529  17.874  0.00  0.00    +0.000 A 
ATOM      4  C   UNK A   0       1.932   3.346  18.227  0.00  0.00    +0.000 A 
ATOM      5 CL   UNK A   0       0.440   2.641  18.708  0.00  0.00    +0.000 Cl
ATOM      6  C   UNK A   0       2.072   4.726  18.178  0.00  0.00    +0.000 A 
ATOM      7  C   UNK A   0       3.297   5.309  17.794  0.00  0.00    +0.000 A 
ENDROOT
BRANCH   1   8
ATOM      8  N   ALA A   1       5.612   5.062  16.953  0.00  0.00    +0.000 N 
ATOM      9  H   ALA A   1       5.936   4.426  16.211  0.00  0.00    +0.000 HD
BRANCH   8  11
ATOM     10  CB  ALA A   1       6.255   5.231  19.367  0.00  0.00    +0.000 C 
ATOM     11  CA  ALA A   1       6.740   5.287  17.920  0.00  0.00    +0.000 C 
BRANCH  11  12
ATOM     12  C   ALA A   1       7.346   6.681  17.692  0.00  0.00    +0.000 C 
ATOM     13  O   ALA A   1       8.138   7.220  18.446  0.00  0.00    +0.000 OA
BRANCH  12  14
ATOM     14  OXT ALA A   1       6.872   7.270  16.572  0.00  0.00    +0.000 OA
ATOM     15  HXT ALA A   1       7.298   8.148  16.455  0.00  0.00    +0.000 HD
ENDBRANCH  12  14
ENDBRANCH  11  12
ENDBRANCH   8  11
ENDBRANCH   1   8
BRANCH   7  16
ATOM     16  C   UNK A   0       3.285   6.796  17.748  0.00  0.00    +0.000 C 
ATOM     17  O   UNK A   0       3.980   7.353  16.897  0.00  0.00    +0.000 OA
BRANCH  16  18
ATOM     18  C   UNK A   0       2.448   7.646  18.633  0.00  0.00    +0.000 A 
ATOM     19  C   UNK A   0       2.210   7.326  19.972  0.00  0.00    +0.000 A 
ATOM     20  C   UNK A   0       1.418   8.161  20.766  0.00  0.00    +0.000 A 
ATOM     21  C   UNK A   0       0.820   9.287  20.205  0.00  0.00    +0.000 A 
ATOM     22 BR   UNK A   0      -0.286  10.387  21.269  0.00  0.00    +0.000 Br
ATOM     23  C   UNK A   0       1.015   9.597  18.861  0.00  0.00    +0.000 A 
ATOM     24  C   UNK A   0       1.831   8.775  18.076  0.00  0.00    +0.000 A 
ENDBRANCH  16  18
ENDBRANCH   7  16
TORSDOF 6
ENDMDL
MODEL 9
REMARK VINA RESULT:      -7.2      1.385      1.901
REMARK  Name = 
REMARK  7 active torsions:
REMARK  status: ('A' for Active; 'I' for Inactive)
REMARK    1  A    between atoms: CB_1  and  CA_2
REMARK    2  A    between atoms: CA_2  and  N_3
REMARK    3  A    between atoms: CA_2  and  C_20
REMARK    4  A    between atoms: N_3  and  C_4
REMARK    5  A    between atoms: C_10  and  C_11
REMARK    6  A    between atoms: C_11  and  C_13
REMARK    7  A    between atoms: C_20  and  OXT_22
REMARK                            x       y       z     vdW  Elec       q    Type
REMARK                         _______ _______ _______ _____ _____    ______ ____
ROOT
ATOM      1  C   UNK A   0       4.394   4.909  17.472  0.00  0.00    +0.000 A 
ATOM      2  C   UNK A   0       4.342   3.503  17.447  0.00  0.00    +0.000 A 
ATOM      3  C   UNK A   0       3.194   2.793  17.818  0.00  0.00    +0.000 A 
ATOM      4  C   UNK A   0       2.049   3.482  18.189  0.00  0.00    +0.000 A 
ATOM      5 CL   UNK A   0       0.637   2.609  18.635  0.00  0.00    +0.000 Cl
ATOM      6  C   UNK A   0       2.044   4.870  18.187  0.00  0.00    +0.000 A 
ATOM      7  C   UNK A   0       3.203   5.590  17.832  0.00  0.00    +0.000 A 
ENDROOT
BRANCH   1   8
ATOM      8  N   ALA A   1       5.535   5.615  17.002  0.00  0.00    +0.000 N 
ATOM      9  H   ALA A   1       6.102   4.925  16.490  0.00  0.00    +0.000 HD
BRANCH   8  11
ATOM     10  CB  ALA A   1       7.440   7.203  17.343  0.00  0.00    +0.000 C 
ATOM     11  CA  ALA A   1       6.409   6.299  18.015  0.00  0.00    +0.000 C 
BRANCH  11  12
ATOM     12  C   ALA A   1       7.180   5.247  18.827  0.00  0.00    +0.000 C 
ATOM     13  O   ALA A   1       7.303   5.266  20.040  0.00  0.00    +0.000 OA
BRANCH  12  14
ATOM     14  OXT ALA A   1       7.748   4.306  18.041  0.00  0.00    +0.000 OA
ATOM     15  HXT ALA A   1       8.279   4.740  17.336  0.00  0.00    +0.000 HD
ENDBRANCH  12  14
ENDBRANCH  11  12
ENDBRANCH   8  11
ENDBRANCH   1   8
BRANCH   7  16
ATOM     16  C   UNK A   0       3.035   7.069  17.835  0.00  0.00    +0.000 C 
ATOM     17  O   UNK A   0       3.569   7.712  16.930  0.00  0.00    +0.000 OA
BRANCH  16  18
ATOM     18  C   UNK A   0       2.222   7.808  18.834  0.00  0.00    +0.000 A 
ATOM     19  C   UNK A   0       1.597   9.023  18.539  0.00  0.00    +0.000 A 
ATOM     20  C   UNK A   0       0.837   9.678  19.513  0.00  0.00    +0.000 A 
ATOM     21  C   UNK A   0       0.748   9.146  20.797  0.00  0.00    +0.000 A 
ATOM     22 BR   UNK A   0      -0.241  10.058  22.122  0.00  0.00    +0.000 Br
ATOM     23  C   UNK A   0       1.399   7.956  21.117  0.00  0.00    +0.000 A 
ATOM     24  C   UNK A   0       2.135   7.288  20.133  0.00  0.00    +0.000 A 
ENDBRANCH  16  18
ENDBRANCH   7  16
TORSDOF 6
ENDMDL
