MODEL 1
REMARK VINA RESULT:      -8.9      0.000      0.000
REMARK  Name = 
REMARK  4 active torsions:
REMARK  status: ('A' for Active; 'I' for Inactive)
REMARK    1  A    between atoms: C_7  and  C_8
REMARK    2  A    between atoms: C_13  and  C_14
REMARK    3  A    between atoms: C_17  and  O_18
REMARK    4  A    between atoms: O_18  and  C_19
REMARK                            x       y       z     vdW  Elec       q    Type
REMARK                         _______ _______ _______ _____ _____    ______ ____
ROOT
ATOM      1  N   UNL     1       2.750  11.892  17.559  0.00  0.00    +0.000 N 
ATOM      2  C   UNL     1       1.941  12.564  18.428  0.00  0.00    +0.000 A 
ATOM      3  N   UNL     1       2.008  13.874  18.319  0.00  0.00    +0.000 NA
ATOM      4  C   UNL     1       1.261  14.661  19.167  0.00  0.00    +0.000 A 
ATOM      5  C   UNL     1       0.456  14.170  20.121  0.00  0.00    +0.000 A 
ATOM      6  N   UNL     1       0.356  12.798  20.252  0.00  0.00    +0.000 N 
ATOM      7  C   UNL     1      -0.340  12.013  21.141  0.00  0.00    +0.000 A 
ATOM      8  N   UNL     1      -0.126  10.736  20.906  0.00  0.00    +0.000 NA
ATOM      9  C   UNL     1       0.755  10.679  19.846  0.00  0.00    +0.000 A 
ATOM     10  C   UNL     1       1.078  11.958  19.423  0.00  0.00    +0.000 A 
ATOM     11  H   UNL     1       3.399  12.527  17.105  0.00  0.00    +0.000 HD
ATOM     12  H   UNL     1       3.213  11.078  17.944  0.00  0.00    +0.000 HD
ENDROOT
BRANCH   9  13
ATOM     13  C   UNL     1       1.286   9.414  19.372  0.00  0.00    +0.000 A 
ATOM     14  C   UNL     1       1.503   9.164  18.012  0.00  0.00    +0.000 A 
ATOM     15  C   UNL     1       2.159   8.003  17.594  0.00  0.00    +0.000 A 
ATOM     16  C   UNL     1       2.519   7.028  18.523  0.00  0.00    +0.000 A 
ATOM     17  C   UNL     1       2.257   7.233  19.877  0.00  0.00    +0.000 A 
ATOM     18  C   UNL     1       1.630   8.409  20.287  0.00  0.00    +0.000 A 
ATOM     19  F   UNL     1       1.400   8.559  21.602  0.00  0.00    +0.000 F 
BRANCH  16  20
ATOM     20  O   UNL     1       3.180   5.934  18.018  0.00  0.00    +0.000 OA
BRANCH  20  21
ATOM     21  C   UNL     1       2.794   4.670  18.402  0.00  0.00    +0.000 A 
ATOM     22  C   UNL     1       3.704   3.986  19.216  0.00  0.00    +0.000 A 
ATOM     23  C   UNL     1       3.415   2.693  19.659  0.00  0.00    +0.000 A 
ATOM     24  C   UNL     1       2.215   2.081  19.293  0.00  0.00    +0.000 A 
ATOM     25  C   UNL     1       1.323   2.748  18.456  0.00  0.00    +0.000 A 
ATOM     26  C   UNL     1       1.627   4.026  17.994  0.00  0.00    +0.000 A 
ATOM     27  F   UNL     1       0.768   4.608  17.146  0.00  0.00    +0.000 F 
ENDBRANCH  20  21
ENDBRANCH  16  20
ENDBRANCH   9  13
BRANCH   7  28
ATOM     28  C   UNL     1      -1.203  12.520  22.293  0.00  0.00    +0.000 C 
ATOM     29  C   UNL     1      -2.712  12.709  21.961  0.00  0.00    +0.000 C 
ATOM     30  C   UNL     1      -3.029  12.108  23.342  0.00  0.00    +0.000 C 
ATOM     31  C   UNL     1      -1.681  11.374  23.240  0.00  0.00    +0.000 C 
ENDBRANCH   7  28
TORSDOF 4
ENDMDL
MODEL 2
REMARK VINA RESULT:      -8.9      3.727      9.065
REMARK  Name = 
REMARK  4 active torsions:
REMARK  status: ('A' for Active; 'I' for Inactive)
REMARK    1  A    between atoms: C_7  and  C_8
REMARK    2  A    between atoms: C_13  and  C_14
REMARK    3  A    between atoms: C_17  and  O_18
REMARK    4  A    between atoms: O_18  and  C_19
REMARK                            x       y       z     vdW  Elec       q    Type
REMARK                         _______ _______ _______ _____ _____    ______ ____
ROOT
ATOM      1  N   UNL     1       0.690   4.107  20.147  0.00  0.00    +0.000 N 
ATOM      2  C   UNL     1       1.744   3.614  19.435  0.00  0.00    +0.000 A 
ATOM      3  N   UNL     1       1.800   2.298  19.401  0.00  0.00    +0.000 NA
ATOM      4  C   UNL     1       2.840   1.684  18.740  0.00  0.00    +0.000 A 
ATOM      5  C   UNL     1       3.824   2.352  18.118  0.00  0.00    +0.000 A 
ATOM      6  N   UNL     1       3.786   3.733  18.128  0.00  0.00    +0.000 N 
ATOM      7  C   UNL     1       4.652   4.674  17.623  0.00  0.00    +0.000 A 
ATOM      8  N   UNL     1       4.224   5.891  17.882  0.00  0.00    +0.000 NA
ATOM      9  C   UNL     1       3.054   5.748  18.598  0.00  0.00    +0.000 A 
ATOM     10  C   UNL     1       2.762   4.405  18.771  0.00  0.00    +0.000 A 
ATOM     11  H   UNL     1       0.237   3.370  20.679  0.00  0.00    +0.000 HD
ATOM     12  H   UNL     1       0.896   4.920  20.714  0.00  0.00    +0.000 HD
ENDROOT
BRANCH   9  13
ATOM     13  C   UNL     1       2.349   6.898  19.132  0.00  0.00    +0.000 A 
ATOM     14  C   UNL     1       1.909   6.946  20.461  0.00  0.00    +0.000 A 
ATOM     15  C   UNL     1       1.373   8.121  20.995  0.00  0.00    +0.000 A 
ATOM     16  C   UNL     1       1.179   9.235  20.180  0.00  0.00    +0.000 A 
ATOM     17  C   UNL     1       1.555   9.186  18.839  0.00  0.00    +0.000 A 
ATOM     18  C   UNL     1       2.118   8.020  18.324  0.00  0.00    +0.000 A 
ATOM     19  F   UNL     1       2.464   8.022  17.026  0.00  0.00    +0.000 F 
BRANCH  16  20
ATOM     20  O   UNL     1       0.669  10.350  20.802  0.00  0.00    +0.000 OA
BRANCH  20  21
ATOM     21  C   UNL     1       0.313  11.445  20.049  0.00  0.00    +0.000 A 
ATOM     22  C   UNL     1       1.130  12.572  20.201  0.00  0.00    +0.000 A 
ATOM     23  C   UNL     1       0.855  13.740  19.488  0.00  0.00    +0.000 A 
ATOM     24  C   UNL     1      -0.234  13.787  18.617  0.00  0.00    +0.000 A 
ATOM     25  C   UNL     1      -1.068  12.679  18.488  0.00  0.00    +0.000 A 
ATOM     26  C   UNL     1      -0.807  11.524  19.222  0.00  0.00    +0.000 A 
ATOM     27  F   UNL     1      -1.666  10.502  19.111  0.00  0.00    +0.000 F 
ENDBRANCH  20  21
ENDBRANCH  16  20
ENDBRANCH   9  13
BRANCH   7  28
ATOM     28  C   UNL     1       5.970   4.383  16.911  0.00  0.00    +0.000 C 
ATOM     29  C   UNL     1       5.841   3.975  15.414  0.00  0.00    +0.000 C 
ATOM     30  C   UNL     1       7.067   4.861  15.130  0.00  0.00    +0.000 C 
ATOM     31  C   UNL     1       6.664   5.674  16.372  0.00  0.00    +0.000 C 
ENDBRANCH   7  28
TORSDOF 4
ENDMDL
MODEL 3
REMARK VINA RESULT:      -8.8      1.794      2.316
REMARK  Name = 
REMARK  4 active torsions:
REMARK  status: ('A' for Active; 'I' for Inactive)
REMARK    1  A    between atoms: C_7  and  C_8
REMARK    2  A    between atoms: C_13  and  C_14
REMARK    3  A    between atoms: C_17  and  O_18
REMARK    4  A    between atoms: O_18  and  C_19
REMARK                            x       y       z     vdW  Elec       q    Type
REMARK                         _______ _______ _______ _____ _____    ______ ____
ROOT
ATOM      1  N   UNL     1       2.711  11.939  17.598  0.00  0.00    +0.000 N 
ATOM      2  C   UNL     1       1.917  12.602  18.487  0.00  0.00    +0.000 A 
ATOM      3  N   UNL     1       1.985  13.914  18.391  0.00  0.00    +0.000 NA
ATOM      4  C   UNL     1       1.253  14.692  19.260  0.00  0.00    +0.000 A 
ATOM      5  C   UNL     1       0.462  14.191  20.221  0.00  0.00    +0.000 A 
ATOM      6  N   UNL     1       0.362  12.818  20.339  0.00  0.00    +0.000 N 
ATOM      7  C   UNL     1      -0.322  12.025  21.229  0.00  0.00    +0.000 A 
ATOM      8  N   UNL     1      -0.113  10.750  20.977  0.00  0.00    +0.000 NA
ATOM      9  C   UNL     1       0.751  10.703  19.903  0.00  0.00    +0.000 A 
ATOM     10  C   UNL     1       1.069  11.986  19.489  0.00  0.00    +0.000 A 
ATOM     11  H   UNL     1       3.354  12.577  17.141  0.00  0.00    +0.000 HD
ATOM     12  H   UNL     1       3.179  11.120  17.966  0.00  0.00    +0.000 HD
ENDROOT
BRANCH   9  13
ATOM     13  C   UNL     1       1.272   9.442  19.407  0.00  0.00    +0.000 A 
ATOM     14  C   UNL     1       1.468   9.208  18.041  0.00  0.00    +0.000 A 
ATOM     15  C   UNL     1       2.115   8.050  17.600  0.00  0.00    +0.000 A 
ATOM     16  C   UNL     1       2.487   7.065  18.512  0.00  0.00    +0.000 A 
ATOM     17  C   UNL     1       2.246   7.255  19.872  0.00  0.00    +0.000 A 
ATOM     18  C   UNL     1       1.628   8.427  20.305  0.00  0.00    +0.000 A 
ATOM     19  F   UNL     1       1.419   8.563  21.625  0.00  0.00    +0.000 F 
BRANCH  16  20
ATOM     20  O   UNL     1       3.139   5.975  17.985  0.00  0.00    +0.000 OA
BRANCH  20  21
ATOM     21  C   UNL     1       4.514   5.951  17.962  0.00  0.00    +0.000 A 
ATOM     22  C   UNL     1       5.125   5.428  19.108  0.00  0.00    +0.000 A 
ATOM     23  C   UNL     1       6.517   5.363  19.194  0.00  0.00    +0.000 A 
ATOM     24  C   UNL     1       7.305   5.815  18.134  0.00  0.00    +0.000 A 
ATOM     25  C   UNL     1       6.699   6.366  17.006  0.00  0.00    +0.000 A 
ATOM     26  C   UNL     1       5.312   6.455  16.936  0.00  0.00    +0.000 A 
ATOM     27  F   UNL     1       4.774   7.043  15.859  0.00  0.00    +0.000 F 
ENDBRANCH  20  21
ENDBRANCH  16  20
ENDBRANCH   9  13
BRANCH   7  28
ATOM     28  C   UNL     1      -1.165  12.520  22.400  0.00  0.00    +0.000 C 
ATOM     29  C   UNL     1      -2.641  12.876  22.054  0.00  0.00    +0.000 C 
ATOM     30  C   UNL     1      -3.050  12.203  23.376  0.00  0.00    +0.000 C 
ATOM     31  C   UNL     1      -1.774  11.354  23.243  0.00  0.00    +0.000 C 
ENDBRANCH   7  28
TORSDOF 4
ENDMDL
MODEL 4
REMARK VINA RESULT:      -8.8      3.719      9.140
REMARK  Name = 
REMARK  4 active torsions:
REMARK  status: ('A' for Active; 'I' for Inactive)
REMARK    1  A    between atoms: C_7  and  C_8
REMARK    2  A    between atoms: C_13  and  C_14
REMARK    3  A    between atoms: C_17  and  O_18
REMARK    4  A    between atoms: O_18  and  C_19
REMARK                            x       y       z     vdW  Elec       q    Type
REMARK                         _______ _______ _______ _____ _____    ______ ____
ROOT
ATOM      1  N   UNL     1       0.691   4.120  20.204  0.00  0.00    +0.000 N 
ATOM      2  C   UNL     1       1.750   3.640  19.492  0.00  0.00    +0.000 A 
ATOM      3  N   UNL     1       1.819   2.325  19.456  0.00  0.00    +0.000 NA
ATOM      4  C   UNL     1       2.865   1.722  18.794  0.00  0.00    +0.000 A 
ATOM      5  C   UNL     1       3.842   2.401  18.174  0.00  0.00    +0.000 A 
ATOM      6  N   UNL     1       3.791   3.782  18.185  0.00  0.00    +0.000 N 
ATOM      7  C   UNL     1       4.647   4.732  17.682  0.00  0.00    +0.000 A 
ATOM      8  N   UNL     1       4.207   5.944  17.943  0.00  0.00    +0.000 NA
ATOM      9  C   UNL     1       3.037   5.788  18.658  0.00  0.00    +0.000 A 
ATOM     10  C   UNL     1       2.759   4.442  18.829  0.00  0.00    +0.000 A 
ATOM     11  H   UNL     1       0.246   3.379  20.736  0.00  0.00    +0.000 HD
ATOM     12  H   UNL     1       0.888   4.935  20.773  0.00  0.00    +0.000 HD
ENDROOT
BRANCH   9  13
ATOM     13  C   UNL     1       2.320   6.930  19.194  0.00  0.00    +0.000 A 
ATOM     14  C   UNL     1       1.875   6.969  20.520  0.00  0.00    +0.000 A 
ATOM     15  C   UNL     1       1.327   8.138  21.057  0.00  0.00    +0.000 A 
ATOM     16  C   UNL     1       1.127   9.254  20.246  0.00  0.00    +0.000 A 
ATOM     17  C   UNL     1       1.510   9.213  18.906  0.00  0.00    +0.000 A 
ATOM     18  C   UNL     1       2.084   8.053  18.389  0.00  0.00    +0.000 A 
ATOM     19  F   UNL     1       2.437   8.064  17.093  0.00  0.00    +0.000 F 
BRANCH  16  20
ATOM     20  O   UNL     1       0.606  10.362  20.870  0.00  0.00    +0.000 OA
BRANCH  20  21
ATOM     21  C   UNL     1       0.335  11.492  20.133  0.00  0.00    +0.000 A 
ATOM     22  C   UNL     1      -0.845  11.451  19.381  0.00  0.00    +0.000 A 
ATOM     23  C   UNL     1      -1.212  12.543  18.592  0.00  0.00    +0.000 A 
ATOM     24  C   UNL     1      -0.405  13.681  18.554  0.00  0.00    +0.000 A 
ATOM     25  C   UNL     1       0.785  13.711  19.277  0.00  0.00    +0.000 A 
ATOM     26  C   UNL     1       1.163  12.610  20.041  0.00  0.00    +0.000 A 
ATOM     27  F   UNL     1       2.342  12.659  20.674  0.00  0.00    +0.000 F 
ENDBRANCH  20  21
ENDBRANCH  16  20
ENDBRANCH   9  13
BRANCH   7  28
ATOM     28  C   UNL     1       5.968   4.456  16.969  0.00  0.00    +0.000 C 
ATOM     29  C   UNL     1       5.839   3.953  15.501  0.00  0.00    +0.000 C 
ATOM     30  C   UNL     1       7.022   4.872  15.147  0.00  0.00    +0.000 C 
ATOM     31  C   UNL     1       6.599   5.741  16.345  0.00  0.00    +0.000 C 
ENDBRANCH   7  28
TORSDOF 4
ENDMDL
MODEL 5
REMARK VINA RESULT:      -8.8      1.345      1.526
REMARK  Name = 
REMARK  4 active torsions:
REMARK  status: ('A' for Active; 'I' for Inactive)
REMARK    1  A    between atoms: C_7  and  C_8
REMARK    2  A    between atoms: C_13  and  C_14
REMARK    3  A    between atoms: C_17  and  O_18
REMARK    4  A    between atoms: O_18  and  C_19
REMARK                            x       y       z     vdW  Elec       q    Type
REMARK                         _______ _______ _______ _____ _____    ______ ____
ROOT
ATOM      1  N   UNL     1       2.766  12.386  18.311  0.00  0.00    +0.000 N 
ATOM      2  C   UNL     1       1.663  13.114  18.646  0.00  0.00    +0.000 A 
ATOM      3  N   UNL     1       1.803  14.411  18.466  0.00  0.00    +0.000 NA
ATOM      4  C   UNL     1       0.767  15.254  18.801  0.00  0.00    +0.000 A 
ATOM      5  C   UNL     1      -0.399  14.832  19.313  0.00  0.00    +0.000 A 
ATOM      6  N   UNL     1      -0.579  13.475  19.502  0.00  0.00    +0.000 N 
ATOM      7  C   UNL     1      -1.625  12.757  20.032  0.00  0.00    +0.000 A 
ATOM      8  N   UNL     1      -1.355  11.469  20.035  0.00  0.00    +0.000 NA
ATOM      9  C   UNL     1      -0.086  11.337  19.512  0.00  0.00    +0.000 A 
ATOM     10  C   UNL     1       0.424  12.580  19.177  0.00  0.00    +0.000 A 
ATOM     11  H   UNL     1       3.566  12.991  18.155  0.00  0.00    +0.000 HD
ATOM     12  H   UNL     1       2.981  11.618  18.935  0.00  0.00    +0.000 HD
ENDROOT
BRANCH   9  13
ATOM     13  C   UNL     1       0.575  10.046  19.449  0.00  0.00    +0.000 A 
ATOM     14  C   UNL     1       1.048   9.514  18.244  0.00  0.00    +0.000 A 
ATOM     15  C   UNL     1       1.817   8.347  18.231  0.00  0.00    +0.000 A 
ATOM     16  C   UNL     1       2.041   7.642  19.412  0.00  0.00    +0.000 A 
ATOM     17  C   UNL     1       1.526   8.125  20.614  0.00  0.00    +0.000 A 
ATOM     18  C   UNL     1       0.787   9.307  20.622  0.00  0.00    +0.000 A 
ATOM     19  F   UNL     1       0.314   9.732  21.805  0.00  0.00    +0.000 F 
BRANCH  16  20
ATOM     20  O   UNL     1       2.828   6.521  19.302  0.00  0.00    +0.000 OA
BRANCH  20  21
ATOM     21  C   UNL     1       2.295   5.285  19.587  0.00  0.00    +0.000 A 
ATOM     22  C   UNL     1       2.506   4.826  20.893  0.00  0.00    +0.000 A 
ATOM     23  C   UNL     1       2.013   3.581  21.288  0.00  0.00    +0.000 A 
ATOM     24  C   UNL     1       1.304   2.791  20.382  0.00  0.00    +0.000 A 
ATOM     25  C   UNL     1       1.120   3.231  19.074  0.00  0.00    +0.000 A 
ATOM     26  C   UNL     1       1.637   4.461  18.675  0.00  0.00    +0.000 A 
ATOM     27  F   UNL     1       1.488   4.820  17.393  0.00  0.00    +0.000 F 
ENDBRANCH  20  21
ENDBRANCH  16  20
ENDBRANCH   9  13
BRANCH   7  28
ATOM     28  C   UNL     1      -2.911  13.345  20.606  0.00  0.00    +0.000 C 
ATOM     29  C   UNL     1      -4.227  12.678  20.110  0.00  0.00    +0.000 C 
ATOM     30  C   UNL     1      -4.751  12.777  21.554  0.00  0.00    +0.000 C 
ATOM     31  C   UNL     1      -3.279  12.748  22.002  0.00  0.00    +0.000 C 
ENDBRANCH   7  28
TORSDOF 4
ENDMDL
MODEL 6
REMARK VINA RESULT:      -8.8      2.908      4.152
REMARK  Name = 
REMARK  4 active torsions:
REMARK  status: ('A' for Active; 'I' for Inactive)
REMARK    1  A    between atoms: C_7  and  C_8
REMARK    2  A    between atoms: C_13  and  C_14
REMARK    3  A    between atoms: C_17  and  O_18
REMARK    4  A    between atoms: O_18  and  C_19
REMARK                            x       y       z     vdW  Elec       q    Type
REMARK                         _______ _______ _______ _____ _____    ______ ____
ROOT
ATOM      1  N   UNL     1       1.430   9.298  22.571  0.00  0.00    +0.000 N 
ATOM      2  C   UNL     1       0.562  10.140  21.940  0.00  0.00    +0.000 A 
ATOM      3  N   UNL     1      -0.028  11.001  22.744  0.00  0.00    +0.000 NA
ATOM      4  C   UNL     1      -0.953  11.881  22.227  0.00  0.00    +0.000 A 
ATOM      5  C   UNL     1      -1.303  11.917  20.932  0.00  0.00    +0.000 A 
ATOM      6  N   UNL     1      -0.693  11.032  20.063  0.00  0.00    +0.000 N 
ATOM      7  C   UNL     1      -0.866  10.806  18.718  0.00  0.00    +0.000 A 
ATOM      8  N   UNL     1      -0.075   9.841  18.300  0.00  0.00    +0.000 NA
ATOM      9  C   UNL     1       0.624   9.404  19.406  0.00  0.00    +0.000 A 
ATOM     10  C   UNL     1       0.249  10.130  20.525  0.00  0.00    +0.000 A 
ATOM     11  H   UNL     1       1.331   9.365  23.579  0.00  0.00    +0.000 HD
ATOM     12  H   UNL     1       1.414   8.340  22.245  0.00  0.00    +0.000 HD
ENDROOT
BRANCH   9  13
ATOM     13  C   UNL     1       1.531   8.274  19.329  0.00  0.00    +0.000 A 
ATOM     14  C   UNL     1       1.541   7.264  20.298  0.00  0.00    +0.000 A 
ATOM     15  C   UNL     1       2.311   6.111  20.121  0.00  0.00    +0.000 A 
ATOM     16  C   UNL     1       3.158   5.996  19.020  0.00  0.00    +0.000 A 
ATOM     17  C   UNL     1       3.207   7.020  18.075  0.00  0.00    +0.000 A 
ATOM     18  C   UNL     1       2.411   8.152  18.244  0.00  0.00    +0.000 A 
ATOM     19  F   UNL     1       2.493   9.109  17.306  0.00  0.00    +0.000 F 
BRANCH  16  20
ATOM     20  O   UNL     1       3.856   4.816  18.921  0.00  0.00    +0.000 OA
BRANCH  20  21
ATOM     21  C   UNL     1       4.951   4.742  18.091  0.00  0.00    +0.000 A 
ATOM     22  C   UNL     1       4.708   4.196  16.825  0.00  0.00    +0.000 A 
ATOM     23  C   UNL     1       5.750   4.068  15.904  0.00  0.00    +0.000 A 
ATOM     24  C   UNL     1       7.038   4.488  16.244  0.00  0.00    +0.000 A 
ATOM     25  C   UNL     1       7.288   5.001  17.514  0.00  0.00    +0.000 A 
ATOM     26  C   UNL     1       6.252   5.101  18.439  0.00  0.00    +0.000 A 
ATOM     27  F   UNL     1       6.547   5.547  19.668  0.00  0.00    +0.000 F 
ENDBRANCH  20  21
ENDBRANCH  16  20
ENDBRANCH   9  13
BRANCH   7  28
ATOM     28  C   UNL     1      -1.873  11.514  17.817  0.00  0.00    +0.000 C 
ATOM     29  C   UNL     1      -2.266  10.742  16.524  0.00  0.00    +0.000 C 
ATOM     30  C   UNL     1      -3.718  11.193  16.768  0.00  0.00    +0.000 C 
ATOM     31  C   UNL     1      -3.352  11.279  18.260  0.00  0.00    +0.000 C 
ENDBRANCH   7  28
TORSDOF 4
ENDMDL
MODEL 7
REMARK VINA RESULT:      -8.7      2.724      3.987
REMARK  Name = 
REMARK  4 active torsions:
REMARK  status: ('A' for Active; 'I' for Inactive)
REMARK    1  A    between atoms: C_7  and  C_8
REMARK    2  A    between atoms: C_13  and  C_14
REMARK    3  A    between atoms: C_17  and  O_18
REMARK    4  A    between atoms: O_18  and  C_19
REMARK                            x       y       z     vdW  Elec       q    Type
REMARK                         _______ _______ _______ _____ _____    ______ ____
ROOT
ATOM      1  N   UNL     1       1.418   9.136  22.654  0.00  0.00    +0.000 N 
ATOM      2  C   UNL     1       0.567  10.019  22.057  0.00  0.00    +0.000 A 
ATOM      3  N   UNL     1      -0.009  10.857  22.894  0.00  0.00    +0.000 NA
ATOM      4  C   UNL     1      -0.916  11.776  22.412  0.00  0.00    +0.000 A 
ATOM      5  C   UNL     1      -1.260  11.872  21.119  0.00  0.00    +0.000 A 
ATOM      6  N   UNL     1      -0.663  11.012  20.215  0.00  0.00    +0.000 N 
ATOM      7  C   UNL     1      -0.836  10.847  18.862  0.00  0.00    +0.000 A 
ATOM      8  N   UNL     1      -0.062   9.885  18.406  0.00  0.00    +0.000 NA
ATOM      9  C   UNL     1       0.625   9.389  19.494  0.00  0.00    +0.000 A 
ATOM     10  C   UNL     1       0.260  10.075  20.642  0.00  0.00    +0.000 A 
ATOM     11  H   UNL     1       1.316   9.162  23.664  0.00  0.00    +0.000 HD
ATOM     12  H   UNL     1       1.385   8.193  22.289  0.00  0.00    +0.000 HD
ENDROOT
BRANCH   9  13
ATOM     13  C   UNL     1       1.512   8.247  19.373  0.00  0.00    +0.000 A 
ATOM     14  C   UNL     1       1.532   7.220  20.324  0.00  0.00    +0.000 A 
ATOM     15  C   UNL     1       2.278   6.058  20.106  0.00  0.00    +0.000 A 
ATOM     16  C   UNL     1       3.092   5.949  18.980  0.00  0.00    +0.000 A 
ATOM     17  C   UNL     1       3.130   6.988  18.051  0.00  0.00    +0.000 A 
ATOM     18  C   UNL     1       2.359   8.129  18.261  0.00  0.00    +0.000 A 
ATOM     19  F   UNL     1       2.429   9.101  17.338  0.00  0.00    +0.000 F 
BRANCH  16  20
ATOM     20  O   UNL     1       3.768   4.760  18.842  0.00  0.00    +0.000 OA
BRANCH  20  21
ATOM     21  C   UNL     1       5.015   4.751  18.262  0.00  0.00    +0.000 A 
ATOM     22  C   UNL     1       6.051   5.258  19.056  0.00  0.00    +0.000 A 
ATOM     23  C   UNL     1       7.357   5.301  18.564  0.00  0.00    +0.000 A 
ATOM     24  C   UNL     1       7.634   4.835  17.277  0.00  0.00    +0.000 A 
ATOM     25  C   UNL     1       6.600   4.360  16.474  0.00  0.00    +0.000 A 
ATOM     26  C   UNL     1       5.295   4.345  16.958  0.00  0.00    +0.000 A 
ATOM     27  F   UNL     1       4.323   3.935  16.132  0.00  0.00    +0.000 F 
ENDBRANCH  20  21
ENDBRANCH  16  20
ENDBRANCH   9  13
BRANCH   7  28
ATOM     28  C   UNL     1      -1.826  11.611  17.988  0.00  0.00    +0.000 C 
ATOM     29  C   UNL     1      -2.259  10.883  16.681  0.00  0.00    +0.000 C 
ATOM     30  C   UNL     1      -3.691  11.379  16.951  0.00  0.00    +0.000 C 
ATOM     31  C   UNL     1      -3.308  11.416  18.441  0.00  0.00    +0.000 C 
ENDBRANCH   7  28
TORSDOF 4
ENDMDL
MODEL 8
REMARK VINA RESULT:      -8.7      1.763      2.368
REMARK  Name = 
REMARK  4 active torsions:
REMARK  status: ('A' for Active; 'I' for Inactive)
REMARK    1  A    between atoms: C_7  and  C_8
REMARK    2  A    between atoms: C_13  and  C_14
REMARK    3  A    between atoms: C_17  and  O_18
REMARK    4  A    between atoms: O_18  and  C_19
REMARK                            x       y       z     vdW  Elec       q    Type
REMARK                         _______ _______ _______ _____ _____    ______ ____
ROOT
ATOM      1  N   UNL     1       2.615  12.124  17.625  0.00  0.00    +0.000 N 
ATOM      2  C   UNL     1       1.822  12.761  18.534  0.00  0.00    +0.000 A 
ATOM      3  N   UNL     1       1.877  14.075  18.463  0.00  0.00    +0.000 NA
ATOM      4  C   UNL     1       1.144  14.829  19.353  0.00  0.00    +0.000 A 
ATOM      5  C   UNL     1       0.365  14.301  20.310  0.00  0.00    +0.000 A 
ATOM      6  N   UNL     1       0.279  12.925  20.401  0.00  0.00    +0.000 N 
ATOM      7  C   UNL     1      -0.390  12.108  21.280  0.00  0.00    +0.000 A 
ATOM      8  N   UNL     1      -0.171  10.840  21.001  0.00  0.00    +0.000 NA
ATOM      9  C   UNL     1       0.685  10.823  19.919  0.00  0.00    +0.000 A 
ATOM     10  C   UNL     1       0.988  12.117  19.529  0.00  0.00    +0.000 A 
ATOM     11  H   UNL     1       3.249  12.777  17.176  0.00  0.00    +0.000 HD
ATOM     12  H   UNL     1       3.094  11.302  17.973  0.00  0.00    +0.000 HD
ENDROOT
BRANCH   9  13
ATOM     13  C   UNL     1       1.215   9.578  19.394  0.00  0.00    +0.000 A 
ATOM     14  C   UNL     1       1.375   9.362  18.020  0.00  0.00    +0.000 A 
ATOM     15  C   UNL     1       2.030   8.221  17.548  0.00  0.00    +0.000 A 
ATOM     16  C   UNL     1       2.446   7.233  18.438  0.00  0.00    +0.000 A 
ATOM     17  C   UNL     1       2.242   7.403  19.806  0.00  0.00    +0.000 A 
ATOM     18  C   UNL     1       1.615   8.559  20.270  0.00  0.00    +0.000 A 
ATOM     19  F   UNL     1       1.442   8.677  21.597  0.00  0.00    +0.000 F 
BRANCH  16  20
ATOM     20  O   UNL     1       3.102   6.161  17.880  0.00  0.00    +0.000 OA
BRANCH  20  21
ATOM     21  C   UNL     1       4.464   6.043  18.034  0.00  0.00    +0.000 A 
ATOM     22  C   UNL     1       5.237   6.745  17.102  0.00  0.00    +0.000 A 
ATOM     23  C   UNL     1       6.631   6.689  17.162  0.00  0.00    +0.000 A 
ATOM     24  C   UNL     1       7.258   5.936  18.156  0.00  0.00    +0.000 A 
ATOM     25  C   UNL     1       6.491   5.211  19.064  0.00  0.00    +0.000 A 
ATOM     26  C   UNL     1       5.101   5.246  18.984  0.00  0.00    +0.000 A 
ATOM     27  F   UNL     1       4.403   4.489  19.841  0.00  0.00    +0.000 F 
ENDBRANCH  20  21
ENDBRANCH  16  20
ENDBRANCH   9  13
BRANCH   7  28
ATOM     28  C   UNL     1      -1.229  12.571  22.467  0.00  0.00    +0.000 C 
ATOM     29  C   UNL     1      -2.695  12.972  22.129  0.00  0.00    +0.000 C 
ATOM     30  C   UNL     1      -3.126  12.253  23.420  0.00  0.00    +0.000 C 
ATOM     31  C   UNL     1      -1.866  11.384  23.258  0.00  0.00    +0.000 C 
ENDBRANCH   7  28
TORSDOF 4
ENDMDL
MODEL 9
REMARK VINA RESULT:      -8.6      5.122      7.346
REMARK  Name = 
REMARK  4 active torsions:
REMARK  status: ('A' for Active; 'I' for Inactive)
REMARK    1  A    between atoms: C_7  and  C_8
REMARK    2  A    between atoms: C_13  and  C_14
REMARK    3  A    between atoms: C_17  and  O_18
REMARK    4  A    between atoms: O_18  and  C_19
REMARK                            x       y       z     vdW  Elec       q    Type
REMARK                         _______ _______ _______ _____ _____    ______ ____
ROOT
ATOM      1  N   UNL     1       4.078   2.522  18.938  0.00  0.00    +0.000 N 
ATOM      2  C   UNL     1       3.160   3.212  19.675  0.00  0.00    +0.000 A 
ATOM      3  N   UNL     1       2.346   2.445  20.370  0.00  0.00    +0.000 NA
ATOM      4  C   UNL     1       1.354   3.027  21.128  0.00  0.00    +0.000 A 
ATOM      5  C   UNL     1       1.157   4.352  21.203  0.00  0.00    +0.000 A 
ATOM      6  N   UNL     1       2.003   5.183  20.493  0.00  0.00    +0.000 N 
ATOM      7  C   UNL     1       2.028   6.549  20.343  0.00  0.00    +0.000 A 
ATOM      8  N   UNL     1       3.013   6.914  19.550  0.00  0.00    +0.000 NA
ATOM      9  C   UNL     1       3.640   5.754  19.148  0.00  0.00    +0.000 A 
ATOM     10  C   UNL     1       3.022   4.654  19.720  0.00  0.00    +0.000 A 
ATOM     11  H   UNL     1       3.852   1.533  18.913  0.00  0.00    +0.000 HD
ATOM     12  H   UNL     1       4.260   2.898  18.016  0.00  0.00    +0.000 HD
ENDROOT
BRANCH   9  13
ATOM     13  C   UNL     1       4.727   5.775  18.186  0.00  0.00    +0.000 A 
ATOM     14  C   UNL     1       5.891   5.018  18.365  0.00  0.00    +0.000 A 
ATOM     15  C   UNL     1       6.852   4.934  17.354  0.00  0.00    +0.000 A 
ATOM     16  C   UNL     1       6.709   5.684  16.188  0.00  0.00    +0.000 A 
ATOM     17  C   UNL     1       5.585   6.491  16.017  0.00  0.00    +0.000 A 
ATOM     18  C   UNL     1       4.617   6.544  17.018  0.00  0.00    +0.000 A 
ATOM     19  F   UNL     1       3.552   7.335  16.807  0.00  0.00    +0.000 F 
BRANCH  16  20
ATOM     20  O   UNL     1       7.693   5.515  15.243  0.00  0.00    +0.000 OA
BRANCH  20  21
ATOM     21  C   UNL     1       7.374   4.971  14.020  0.00  0.00    +0.000 A 
ATOM     22  C   UNL     1       6.394   3.972  14.044  0.00  0.00    +0.000 A 
ATOM     23  C   UNL     1       5.999   3.347  12.859  0.00  0.00    +0.000 A 
ATOM     24  C   UNL     1       6.578   3.721  11.646  0.00  0.00    +0.000 A 
ATOM     25  C   UNL     1       7.576   4.692  11.624  0.00  0.00    +0.000 A 
ATOM     26  C   UNL     1       7.988   5.293  12.810  0.00  0.00    +0.000 A 
ATOM     27  F   UNL     1       8.990   6.180  12.751  0.00  0.00    +0.000 F 
ENDBRANCH  20  21
ENDBRANCH  16  20
ENDBRANCH   9  13
BRANCH   7  28
ATOM     28  C   UNL     1       1.030   7.532  20.947  0.00  0.00    +0.000 C 
ATOM     29  C   UNL     1       1.624   8.531  21.982  0.00  0.00    +0.000 C 
ATOM     30  C   UNL     1       0.747   9.622  21.341  0.00  0.00    +0.000 C 
ATOM     31  C   UNL     1       0.800   8.789  20.049  0.00  0.00    +0.000 C 
ENDBRANCH   7  28
TORSDOF 4
ENDMDL
