MODEL 1
REMARK VINA RESULT:      -9.0      0.000      0.000
REMARK  Name = 
REMARK  5 active torsions:
REMARK  status: ('A' for Active; 'I' for Inactive)
REMARK    1  A    between atoms: C_2  and  C_3
REMARK    2  A    between atoms: C_3  and  O_4
REMARK    3  A    between atoms: O_4  and  C_5
REMARK    4  A    between atoms: C_8  and  C_9
REMARK    5  A    between atoms: N_15  and  C_16
REMARK                            x       y       z     vdW  Elec       q    Type
REMARK                         _______ _______ _______ _____ _____    ______ ____
ROOT
ATOM      1  O   UNL     1       7.497   9.902  17.415  0.00  0.00    +0.000 OA
ATOM      2  C   UNL     1       8.062   8.995  18.017  0.00  0.00    +0.000 C 
ATOM      3  N   UNL     1       8.996   9.145  19.039  0.00  0.00    +0.000 N 
ATOM      4  H   UNL     1       9.478   8.308  19.343  0.00  0.00    +0.000 HD
ENDROOT
BRANCH   3   5
ATOM      5  C   UNL     1       9.521  10.355  19.530  0.00  0.00    +0.000 A 
ATOM      6  C   UNL     1       9.411  10.770  20.855  0.00  0.00    +0.000 A 
ATOM      7  C   UNL     1       9.612  12.116  21.172  0.00  0.00    +0.000 A 
ATOM      8  C   UNL     1      10.003  13.022  20.213  0.00  0.00    +0.000 A 
ATOM      9  N   UNL     1       9.914  14.353  20.395  0.00  0.00    +0.000 NA
ATOM     10  C   UNL     1      10.362  15.115  19.392  0.00  0.00    +0.000 A 
ATOM     11  N   UNL     1       9.447  15.841  18.640  0.00  0.00    +0.000 N 
ATOM     12  C   UNL     1       9.846  16.923  17.748  0.00  0.00    +0.000 C 
ATOM     13  C   UNL     1       9.114  18.188  18.217  0.00  0.00    +0.000 C 
ATOM     14  O   UNL     1       7.684  17.999  18.210  0.00  0.00    +0.000 OA
ATOM     15  C   UNL     1       7.310  16.917  19.090  0.00  0.00    +0.000 C 
ATOM     16  C   UNL     1       8.000  15.604  18.698  0.00  0.00    +0.000 C 
ATOM     17  C   UNL     1      11.455  14.641  18.701  0.00  0.00    +0.000 A 
ATOM     18  C   UNL     1      11.343  13.329  18.277  0.00  0.00    +0.000 A 
ATOM     19  C   UNL     1      10.487  12.497  18.997  0.00  0.00    +0.000 A 
ATOM     20  C   UNL     1      10.156  11.195  18.618  0.00  0.00    +0.000 A 
ENDBRANCH   3   5
BRANCH   2  21
ATOM     21  C   UNL     1       7.745   7.526  17.714  0.00  0.00    +0.000 C 
BRANCH  21  22
ATOM     22  O   UNL     1       6.850   7.362  16.621  0.00  0.00    +0.000 OA
BRANCH  22  23
ATOM     23  C   UNL     1       5.732   6.612  16.910  0.00  0.00    +0.000 A 
ATOM     24  C   UNL     1       5.717   5.309  16.412  0.00  0.00    +0.000 A 
ATOM     25  C   UNL     1       4.617   4.471  16.640  0.00  0.00    +0.000 A 
ATOM     26  C   UNL     1       3.530   4.910  17.406  0.00  0.00    +0.000 A 
ATOM     27  C   UNL     1       3.558   6.213  17.910  0.00  0.00    +0.000 A 
ATOM     28  C   UNL     1       4.662   7.045  17.691  0.00  0.00    +0.000 A 
BRANCH  26  29
ATOM     29  C   UNL     1       2.338   4.055  17.678  0.00  0.00    +0.000 C 
ATOM     30  F   UNL     1       1.163   4.582  17.237  0.00  0.00    +0.000 F 
ATOM     31  F   UNL     1       2.431   2.822  17.103  0.00  0.00    +0.000 F 
ATOM     32  F   UNL     1       2.150   3.816  19.013  0.00  0.00    +0.000 F 
ENDBRANCH  26  29
ENDBRANCH  22  23
ENDBRANCH  21  22
ENDBRANCH   2  21
TORSDOF 5
ENDMDL
MODEL 2
REMARK VINA RESULT:      -8.9      1.382      1.667
REMARK  Name = 
REMARK  5 active torsions:
REMARK  status: ('A' for Active; 'I' for Inactive)
REMARK    1  A    between atoms: C_2  and  C_3
REMARK    2  A    between atoms: C_3  and  O_4
REMARK    3  A    between atoms: O_4  and  C_5
REMARK    4  A    between atoms: C_8  and  C_9
REMARK    5  A    between atoms: N_15  and  C_16
REMARK                            x       y       z     vdW  Elec       q    Type
REMARK                         _______ _______ _______ _____ _____    ______ ____
ROOT
ATOM      1  O   UNL     1       8.670   7.270  19.006  0.00  0.00    +0.000 OA
ATOM      2  C   UNL     1       8.031   7.911  18.180  0.00  0.00    +0.000 C 
ATOM      3  N   UNL     1       8.197   9.262  17.882  0.00  0.00    +0.000 N 
ATOM      4  H   UNL     1       7.503   9.685  17.279  0.00  0.00    +0.000 HD
ENDROOT
BRANCH   3   5
ATOM      5  C   UNL     1       9.076  10.162  18.513  0.00  0.00    +0.000 A 
ATOM      6  C   UNL     1       9.071  10.424  19.881  0.00  0.00    +0.000 A 
ATOM      7  C   UNL     1       9.693  11.578  20.362  0.00  0.00    +0.000 A 
ATOM      8  C   UNL     1      10.387  12.416  19.519  0.00  0.00    +0.000 A 
ATOM      9  N   UNL     1      10.736  13.669  19.867  0.00  0.00    +0.000 NA
ATOM     10  C   UNL     1      11.437  14.358  18.961  0.00  0.00    +0.000 A 
ATOM     11  N   UNL     1      10.833  15.432  18.319  0.00  0.00    +0.000 N 
ATOM     12  C   UNL     1      11.590  16.423  17.565  0.00  0.00    +0.000 C 
ATOM     13  C   UNL     1      11.301  17.790  18.198  0.00  0.00    +0.000 C 
ATOM     14  O   UNL     1       9.890  18.085  18.187  0.00  0.00    +0.000 OA
ATOM     15  C   UNL     1       9.156  17.087  18.930  0.00  0.00    +0.000 C 
ATOM     16  C   UNL     1       9.387  15.679  18.367  0.00  0.00    +0.000 C 
ATOM     17  C   UNL     1      12.333  13.639  18.201  0.00  0.00    +0.000 A 
ATOM     18  C   UNL     1      11.808  12.500  17.618  0.00  0.00    +0.000 A 
ATOM     19  C   UNL     1      10.706  11.914  18.240  0.00  0.00    +0.000 A 
ATOM     20  C   UNL     1       9.977  10.851  17.705  0.00  0.00    +0.000 A 
ENDBRANCH   3   5
BRANCH   2  21
ATOM     21  C   UNL     1       6.955   7.243  17.317  0.00  0.00    +0.000 C 
BRANCH  21  22
ATOM     22  O   UNL     1       6.923   5.827  17.462  0.00  0.00    +0.000 OA
BRANCH  22  23
ATOM     23  C   UNL     1       5.678   5.315  17.753  0.00  0.00    +0.000 A 
ATOM     24  C   UNL     1       5.029   4.645  16.716  0.00  0.00    +0.000 A 
ATOM     25  C   UNL     1       3.753   4.100  16.908  0.00  0.00    +0.000 A 
ATOM     26  C   UNL     1       3.120   4.182  18.155  0.00  0.00    +0.000 A 
ATOM     27  C   UNL     1       3.782   4.846  19.191  0.00  0.00    +0.000 A 
ATOM     28  C   UNL     1       5.062   5.379  19.001  0.00  0.00    +0.000 A 
BRANCH  26  29
ATOM     29  C   UNL     1       1.762   3.616  18.408  0.00  0.00    +0.000 C 
ATOM     30  F   UNL     1       1.678   2.270  18.228  0.00  0.00    +0.000 F 
ATOM     31  F   UNL     1       1.322   3.850  19.677  0.00  0.00    +0.000 F 
ATOM     32  F   UNL     1       0.804   4.152  17.590  0.00  0.00    +0.000 F 
ENDBRANCH  26  29
ENDBRANCH  22  23
ENDBRANCH  21  22
ENDBRANCH   2  21
TORSDOF 5
ENDMDL
MODEL 3
REMARK VINA RESULT:      -8.9      1.268      1.535
REMARK  Name = 
REMARK  5 active torsions:
REMARK  status: ('A' for Active; 'I' for Inactive)
REMARK    1  A    between atoms: C_2  and  C_3
REMARK    2  A    between atoms: C_3  and  O_4
REMARK    3  A    between atoms: O_4  and  C_5
REMARK    4  A    between atoms: C_8  and  C_9
REMARK    5  A    between atoms: N_15  and  C_16
REMARK                            x       y       z     vdW  Elec       q    Type
REMARK                         _______ _______ _______ _____ _____    ______ ____
ROOT
ATOM      1  O   UNL     1       8.584   7.557  18.935  0.00  0.00    +0.000 OA
ATOM      2  C   UNL     1       8.071   8.273  18.082  0.00  0.00    +0.000 C 
ATOM      3  N   UNL     1       8.351   9.620  17.864  0.00  0.00    +0.000 N 
ATOM      4  H   UNL     1       7.749  10.113  17.218  0.00  0.00    +0.000 HD
ENDROOT
BRANCH   3   5
ATOM      5  C   UNL     1       9.220  10.432  18.618  0.00  0.00    +0.000 A 
ATOM      6  C   UNL     1       9.257  10.450  20.010  0.00  0.00    +0.000 A 
ATOM      7  C   UNL     1       9.854  11.528  20.667  0.00  0.00    +0.000 A 
ATOM      8  C   UNL     1      10.484  12.530  19.965  0.00  0.00    +0.000 A 
ATOM      9  N   UNL     1      10.799  13.716  20.518  0.00  0.00    +0.000 NA
ATOM     10  C   UNL     1      11.441  14.582  19.727  0.00  0.00    +0.000 A 
ATOM     11  N   UNL     1      10.774  15.725  19.302  0.00  0.00    +0.000 N 
ATOM     12  C   UNL     1      11.466  16.864  18.712  0.00  0.00    +0.000 C 
ATOM     13  C   UNL     1      11.150  18.086  19.585  0.00  0.00    +0.000 C 
ATOM     14  O   UNL     1       9.730  18.318  19.669  0.00  0.00    +0.000 OA
ATOM     15  C   UNL     1       9.061  17.174  20.246  0.00  0.00    +0.000 C 
ATOM     16  C   UNL     1       9.323  15.898  19.436  0.00  0.00    +0.000 C 
ATOM     17  C   UNL     1      12.333  14.046  18.825  0.00  0.00    +0.000 A 
ATOM     18  C   UNL     1      11.829  13.005  18.066  0.00  0.00    +0.000 A 
ATOM     19  C   UNL     1      10.773  12.273  18.608  0.00  0.00    +0.000 A 
ATOM     20  C   UNL     1      10.064  11.290  17.917  0.00  0.00    +0.000 A 
ENDBRANCH   3   5
BRANCH   2  21
ATOM     21  C   UNL     1       7.045   7.714  17.091  0.00  0.00    +0.000 C 
BRANCH  21  22
ATOM     22  O   UNL     1       7.075   6.294  16.997  0.00  0.00    +0.000 OA
BRANCH  22  23
ATOM     23  C   UNL     1       5.857   5.685  17.199  0.00  0.00    +0.000 A 
ATOM     24  C   UNL     1       4.777   6.532  17.445  0.00  0.00    +0.000 A 
ATOM     25  C   UNL     1       3.499   6.009  17.679  0.00  0.00    +0.000 A 
ATOM     26  C   UNL     1       3.272   4.628  17.630  0.00  0.00    +0.000 A 
ATOM     27  C   UNL     1       4.357   3.787  17.373  0.00  0.00    +0.000 A 
ATOM     28  C   UNL     1       5.631   4.311  17.128  0.00  0.00    +0.000 A 
BRANCH  26  29
ATOM     29  C   UNL     1       1.928   4.023  17.870  0.00  0.00    +0.000 C 
ATOM     30  F   UNL     1       0.922   4.606  17.163  0.00  0.00    +0.000 F 
ATOM     31  F   UNL     1       1.883   2.697  17.557  0.00  0.00    +0.000 F 
ATOM     32  F   UNL     1       1.541   4.097  19.182  0.00  0.00    +0.000 F 
ENDBRANCH  26  29
ENDBRANCH  22  23
ENDBRANCH  21  22
ENDBRANCH   2  21
TORSDOF 5
ENDMDL
MODEL 4
REMARK VINA RESULT:      -8.8      0.346      1.134
REMARK  Name = 
REMARK  5 active torsions:
REMARK  status: ('A' for Active; 'I' for Inactive)
REMARK    1  A    between atoms: C_2  and  C_3
REMARK    2  A    between atoms: C_3  and  O_4
REMARK    3  A    between atoms: O_4  and  C_5
REMARK    4  A    between atoms: C_8  and  C_9
REMARK    5  A    between atoms: N_15  and  C_16
REMARK                            x       y       z     vdW  Elec       q    Type
REMARK                         _______ _______ _______ _____ _____    ______ ____
ROOT
ATOM      1  O   UNL     1       7.216   9.710  17.401  0.00  0.00    +0.000 OA
ATOM      2  C   UNL     1       7.861   8.805  17.918  0.00  0.00    +0.000 C 
ATOM      3  N   UNL     1       8.863   8.953  18.875  0.00  0.00    +0.000 N 
ATOM      4  H   UNL     1       9.401   8.127  19.105  0.00  0.00    +0.000 HD
ENDROOT
BRANCH   3   5
ATOM      5  C   UNL     1       9.373  10.164  19.380  0.00  0.00    +0.000 A 
ATOM      6  C   UNL     1       9.310  10.535  20.721  0.00  0.00    +0.000 A 
ATOM      7  C   UNL     1       9.484  11.876  21.072  0.00  0.00    +0.000 A 
ATOM      8  C   UNL     1       9.804  12.823  20.125  0.00  0.00    +0.000 A 
ATOM      9  N   UNL     1       9.683  14.145  20.353  0.00  0.00    +0.000 NA
ATOM     10  C   UNL     1      10.063  14.950  19.355  0.00  0.00    +0.000 A 
ATOM     11  N   UNL     1       9.093  15.669  18.668  0.00  0.00    +0.000 N 
ATOM     12  C   UNL     1       9.419  16.790  17.793  0.00  0.00    +0.000 C 
ATOM     13  C   UNL     1       8.670  18.016  18.333  0.00  0.00    +0.000 C 
ATOM     14  O   UNL     1       7.248  17.782  18.383  0.00  0.00    +0.000 OA
ATOM     15  C   UNL     1       6.947  16.663  19.245  0.00  0.00    +0.000 C 
ATOM     16  C   UNL     1       7.658  15.385  18.781  0.00  0.00    +0.000 C 
ATOM     17  C   UNL     1      11.137  14.531  18.602  0.00  0.00    +0.000 A 
ATOM     18  C   UNL     1      11.045  13.230  18.142  0.00  0.00    +0.000 A 
ATOM     19  C   UNL     1      10.248  12.350  18.873  0.00  0.00    +0.000 A 
ATOM     20  C   UNL     1       9.940  11.050  18.468  0.00  0.00    +0.000 A 
ENDBRANCH   3   5
BRANCH   2  21
ATOM     21  C   UNL     1       7.584   7.337  17.574  0.00  0.00    +0.000 C 
BRANCH  21  22
ATOM     22  O   UNL     1       6.649   7.179  16.513  0.00  0.00    +0.000 OA
BRANCH  22  23
ATOM     23  C   UNL     1       5.608   6.323  16.795  0.00  0.00    +0.000 A 
ATOM     24  C   UNL     1       4.476   6.898  17.371  0.00  0.00    +0.000 A 
ATOM     25  C   UNL     1       3.369   6.109  17.709  0.00  0.00    +0.000 A 
ATOM     26  C   UNL     1       3.362   4.734  17.440  0.00  0.00    +0.000 A 
ATOM     27  C   UNL     1       4.497   4.168  16.854  0.00  0.00    +0.000 A 
ATOM     28  C   UNL     1       5.597   4.960  16.506  0.00  0.00    +0.000 A 
BRANCH  26  29
ATOM     29  C   UNL     1       2.207   3.852  17.780  0.00  0.00    +0.000 C 
ATOM     30  F   UNL     1       2.230   2.641  17.160  0.00  0.00    +0.000 F 
ATOM     31  F   UNL     1       2.122   3.585  19.114  0.00  0.00    +0.000 F 
ATOM     32  F   UNL     1       1.000   4.407  17.446  0.00  0.00    +0.000 F 
ENDBRANCH  26  29
ENDBRANCH  22  23
ENDBRANCH  21  22
ENDBRANCH   2  21
TORSDOF 5
ENDMDL
MODEL 5
REMARK VINA RESULT:      -8.8      1.137      1.423
REMARK  Name = 
REMARK  5 active torsions:
REMARK  status: ('A' for Active; 'I' for Inactive)
REMARK    1  A    between atoms: C_2  and  C_3
REMARK    2  A    between atoms: C_3  and  O_4
REMARK    3  A    between atoms: O_4  and  C_5
REMARK    4  A    between atoms: C_8  and  C_9
REMARK    5  A    between atoms: N_15  and  C_16
REMARK                            x       y       z     vdW  Elec       q    Type
REMARK                         _______ _______ _______ _____ _____    ______ ____
ROOT
ATOM      1  O   UNL     1       8.592   7.136  19.082  0.00  0.00    +0.000 OA
ATOM      2  C   UNL     1       7.993   7.637  18.137  0.00  0.00    +0.000 C 
ATOM      3  N   UNL     1       8.098   8.957  17.705  0.00  0.00    +0.000 N 
ATOM      4  H   UNL     1       7.438   9.261  17.000  0.00  0.00    +0.000 HD
ENDROOT
BRANCH   3   5
ATOM      5  C   UNL     1       8.854   9.982  18.304  0.00  0.00    +0.000 A 
ATOM      6  C   UNL     1       8.939  10.183  19.680  0.00  0.00    +0.000 A 
ATOM      7  C   UNL     1       9.381  11.415  20.168  0.00  0.00    +0.000 A 
ATOM      8  C   UNL     1       9.818  12.403  19.315  0.00  0.00    +0.000 A 
ATOM      9  N   UNL     1       9.960  13.684  19.703  0.00  0.00    +0.000 NA
ATOM     10  C   UNL     1      10.426  14.530  18.779  0.00  0.00    +0.000 A 
ATOM     11  N   UNL     1       9.571  15.494  18.259  0.00  0.00    +0.000 N 
ATOM     12  C   UNL     1      10.050  16.641  17.497  0.00  0.00    +0.000 C 
ATOM     13  C   UNL     1       9.576  17.902  18.233  0.00  0.00    +0.000 C 
ATOM     14  O   UNL     1       8.141  17.921  18.370  0.00  0.00    +0.000 OA
ATOM     15  C   UNL     1       7.685  16.772  19.118  0.00  0.00    +0.000 C 
ATOM     16  C   UNL     1       8.116  15.459  18.453  0.00  0.00    +0.000 C 
ATOM     17  C   UNL     1      11.358  14.027  17.898  0.00  0.00    +0.000 A 
ATOM     18  C   UNL     1      10.998  12.833  17.300  0.00  0.00    +0.000 A 
ATOM     19  C   UNL     1      10.093  12.023  17.985  0.00  0.00    +0.000 A 
ATOM     20  C   UNL     1       9.524  10.863  17.459  0.00  0.00    +0.000 A 
ENDBRANCH   3   5
BRANCH   2  21
ATOM     21  C   UNL     1       7.049   6.802  17.265  0.00  0.00    +0.000 C 
BRANCH  21  22
ATOM     22  O   UNL     1       5.696   7.239  17.330  0.00  0.00    +0.000 OA
BRANCH  22  23
ATOM     23  C   UNL     1       4.784   6.233  17.558  0.00  0.00    +0.000 A 
ATOM     24  C   UNL     1       5.271   4.929  17.475  0.00  0.00    +0.000 A 
ATOM     25  C   UNL     1       4.419   3.835  17.676  0.00  0.00    +0.000 A 
ATOM     26  C   UNL     1       3.071   4.029  18.004  0.00  0.00    +0.000 A 
ATOM     27  C   UNL     1       2.594   5.339  18.095  0.00  0.00    +0.000 A 
ATOM     28  C   UNL     1       3.449   6.431  17.905  0.00  0.00    +0.000 A 
BRANCH  26  29
ATOM     29  C   UNL     1       2.125   2.897  18.229  0.00  0.00    +0.000 C 
ATOM     30  F   UNL     1       2.257   1.877  17.338  0.00  0.00    +0.000 F 
ATOM     31  F   UNL     1       2.260   2.333  19.462  0.00  0.00    +0.000 F 
ATOM     32  F   UNL     1       0.812   3.280  18.149  0.00  0.00    +0.000 F 
ENDBRANCH  26  29
ENDBRANCH  22  23
ENDBRANCH  21  22
ENDBRANCH   2  21
TORSDOF 5
ENDMDL
MODEL 6
REMARK VINA RESULT:      -8.8      8.189      9.866
REMARK  Name = 
REMARK  5 active torsions:
REMARK  status: ('A' for Active; 'I' for Inactive)
REMARK    1  A    between atoms: C_2  and  C_3
REMARK    2  A    between atoms: C_3  and  O_4
REMARK    3  A    between atoms: O_4  and  C_5
REMARK    4  A    between atoms: C_8  and  C_9
REMARK    5  A    between atoms: N_15  and  C_16
REMARK                            x       y       z     vdW  Elec       q    Type
REMARK                         _______ _______ _______ _____ _____    ______ ____
ROOT
ATOM      1  O   UNL     1      -0.487   9.934  18.467  0.00  0.00    +0.000 OA
ATOM      2  C   UNL     1       0.625   9.602  18.859  0.00  0.00    +0.000 C 
ATOM      3  N   UNL     1       1.115   9.744  20.156  0.00  0.00    +0.000 N 
ATOM      4  H   UNL     1       2.099   9.552  20.296  0.00  0.00    +0.000 HD
ENDROOT
BRANCH   3   5
ATOM      5  C   UNL     1       0.459  10.354  21.242  0.00  0.00    +0.000 A 
ATOM      6  C   UNL     1      -0.051   9.656  22.334  0.00  0.00    +0.000 A 
ATOM      7  C   UNL     1      -0.998  10.268  23.159  0.00  0.00    +0.000 A 
ATOM      8  C   UNL     1      -1.371  11.578  22.963  0.00  0.00    +0.000 A 
ATOM      9  N   UNL     1      -2.476  12.108  23.521  0.00  0.00    +0.000 NA
ATOM     10  C   UNL     1      -2.697  13.403  23.273  0.00  0.00    +0.000 A 
ATOM     11  N   UNL     1      -3.764  13.757  22.457  0.00  0.00    +0.000 N 
ATOM     12  C   UNL     1      -4.275  15.120  22.378  0.00  0.00    +0.000 C 
ATOM     13  C   UNL     1      -5.756  15.071  22.779  0.00  0.00    +0.000 C 
ATOM     14  O   UNL     1      -6.501  14.180  21.925  0.00  0.00    +0.000 OA
ATOM     15  C   UNL     1      -5.974  12.837  22.008  0.00  0.00    +0.000 C 
ATOM     16  C   UNL     1      -4.489  12.788  21.625  0.00  0.00    +0.000 C 
ATOM     17  C   UNL     1      -1.584  14.209  23.179  0.00  0.00    +0.000 A 
ATOM     18  C   UNL     1      -0.599  13.733  22.333  0.00  0.00    +0.000 A 
ATOM     19  C   UNL     1      -0.552  12.356  22.119  0.00  0.00    +0.000 A 
ATOM     20  C   UNL     1       0.286  11.735  21.192  0.00  0.00    +0.000 A 
ENDBRANCH   3   5
BRANCH   2  21
ATOM     21  C   UNL     1       1.627   8.921  17.920  0.00  0.00    +0.000 C 
BRANCH  21  22
ATOM     22  O   UNL     1       2.629   8.183  18.611  0.00  0.00    +0.000 OA
BRANCH  22  23
ATOM     23  C   UNL     1       2.316   6.859  18.821  0.00  0.00    +0.000 A 
ATOM     24  C   UNL     1       2.122   6.473  20.147  0.00  0.00    +0.000 A 
ATOM     25  C   UNL     1       1.814   5.144  20.465  0.00  0.00    +0.000 A 
ATOM     26  C   UNL     1       1.655   4.185  19.456  0.00  0.00    +0.000 A 
ATOM     27  C   UNL     1       1.841   4.583  18.130  0.00  0.00    +0.000 A 
ATOM     28  C   UNL     1       2.137   5.913  17.812  0.00  0.00    +0.000 A 
BRANCH  26  29
ATOM     29  C   UNL     1       1.326   2.758  19.745  0.00  0.00    +0.000 C 
ATOM     30  F   UNL     1       0.374   2.231  18.928  0.00  0.00    +0.000 F 
ATOM     31  F   UNL     1       2.407   1.935  19.635  0.00  0.00    +0.000 F 
ATOM     32  F   UNL     1       0.857   2.570  21.018  0.00  0.00    +0.000 F 
ENDBRANCH  26  29
ENDBRANCH  22  23
ENDBRANCH  21  22
ENDBRANCH   2  21
TORSDOF 5
ENDMDL
MODEL 7
REMARK VINA RESULT:      -8.7      1.228      1.748
REMARK  Name = 
REMARK  5 active torsions:
REMARK  status: ('A' for Active; 'I' for Inactive)
REMARK    1  A    between atoms: C_2  and  C_3
REMARK    2  A    between atoms: C_3  and  O_4
REMARK    3  A    between atoms: O_4  and  C_5
REMARK    4  A    between atoms: C_8  and  C_9
REMARK    5  A    between atoms: N_15  and  C_16
REMARK                            x       y       z     vdW  Elec       q    Type
REMARK                         _______ _______ _______ _____ _____    ______ ____
ROOT
ATOM      1  O   UNL     1       8.550   7.136  18.986  0.00  0.00    +0.000 OA
ATOM      2  C   UNL     1       7.975   7.745  18.091  0.00  0.00    +0.000 C 
ATOM      3  N   UNL     1       8.152   9.088  17.765  0.00  0.00    +0.000 N 
ATOM      4  H   UNL     1       7.507   9.484  17.094  0.00  0.00    +0.000 HD
ENDROOT
BRANCH   3   5
ATOM      5  C   UNL     1       8.968  10.017  18.439  0.00  0.00    +0.000 A 
ATOM      6  C   UNL     1       8.941  10.221  19.816  0.00  0.00    +0.000 A 
ATOM      7  C   UNL     1       9.483  11.393  20.348  0.00  0.00    +0.000 A 
ATOM      8  C   UNL     1      10.123  12.309  19.544  0.00  0.00    +0.000 A 
ATOM      9  N   UNL     1      10.387  13.567  19.946  0.00  0.00    +0.000 NA
ATOM     10  C   UNL     1      11.044  14.337  19.074  0.00  0.00    +0.000 A 
ATOM     11  N   UNL     1      10.373  15.395  18.472  0.00  0.00    +0.000 N 
ATOM     12  C   UNL     1      11.065  16.464  17.764  0.00  0.00    +0.000 C 
ATOM     13  C   UNL     1      10.683  17.782  18.451  0.00  0.00    +0.000 C 
ATOM     14  O   UNL     1       9.256  17.983  18.443  0.00  0.00    +0.000 OA
ATOM     15  C   UNL     1       8.587  16.909  19.141  0.00  0.00    +0.000 C 
ATOM     16  C   UNL     1       8.913  15.544  18.521  0.00  0.00    +0.000 C 
ATOM     17  C   UNL     1      11.988  13.711  18.290  0.00  0.00    +0.000 A 
ATOM     18  C   UNL     1      11.542  12.565  17.657  0.00  0.00    +0.000 A 
ATOM     19  C   UNL     1      10.479  11.883  18.248  0.00  0.00    +0.000 A 
ATOM     20  C   UNL     1       9.824  10.797  17.665  0.00  0.00    +0.000 A 
ENDBRANCH   3   5
BRANCH   2  21
ATOM     21  C   UNL     1       6.981   7.038  17.163  0.00  0.00    +0.000 C 
BRANCH  21  22
ATOM     22  O   UNL     1       5.623   7.336  17.468  0.00  0.00    +0.000 OA
BRANCH  22  23
ATOM     23  C   UNL     1       4.819   6.228  17.620  0.00  0.00    +0.000 A 
ATOM     24  C   UNL     1       3.542   6.458  18.131  0.00  0.00    +0.000 A 
ATOM     25  C   UNL     1       2.654   5.394  18.337  0.00  0.00    +0.000 A 
ATOM     26  C   UNL     1       3.016   4.084  17.996  0.00  0.00    +0.000 A 
ATOM     27  C   UNL     1       4.293   3.865  17.475  0.00  0.00    +0.000 A 
ATOM     28  C   UNL     1       5.175   4.929  17.259  0.00  0.00    +0.000 A 
BRANCH  26  29
ATOM     29  C   UNL     1       2.104   2.919  18.194  0.00  0.00    +0.000 C 
ATOM     30  F   UNL     1       2.247   2.301  19.399  0.00  0.00    +0.000 F 
ATOM     31  F   UNL     1       0.787   3.258  18.104  0.00  0.00    +0.000 F 
ATOM     32  F   UNL     1       2.289   1.937  17.258  0.00  0.00    +0.000 F 
ENDBRANCH  26  29
ENDBRANCH  22  23
ENDBRANCH  21  22
ENDBRANCH   2  21
TORSDOF 5
ENDMDL
MODEL 8
REMARK VINA RESULT:      -8.6      1.022      1.410
REMARK  Name = 
REMARK  5 active torsions:
REMARK  status: ('A' for Active; 'I' for Inactive)
REMARK    1  A    between atoms: C_2  and  C_3
REMARK    2  A    between atoms: C_3  and  O_4
REMARK    3  A    between atoms: O_4  and  C_5
REMARK    4  A    between atoms: C_8  and  C_9
REMARK    5  A    between atoms: N_15  and  C_16
REMARK                            x       y       z     vdW  Elec       q    Type
REMARK                         _______ _______ _______ _____ _____    ______ ____
ROOT
ATOM      1  O   UNL     1       7.321   9.789  17.504  0.00  0.00    +0.000 OA
ATOM      2  C   UNL     1       7.995   8.892  17.996  0.00  0.00    +0.000 C 
ATOM      3  N   UNL     1       8.992   9.046  18.957  0.00  0.00    +0.000 N 
ATOM      4  H   UNL     1       9.557   8.232  19.164  0.00  0.00    +0.000 HD
ENDROOT
BRANCH   3   5
ATOM      5  C   UNL     1       9.463  10.258  19.496  0.00  0.00    +0.000 A 
ATOM      6  C   UNL     1       9.270  10.648  20.819  0.00  0.00    +0.000 A 
ATOM      7  C   UNL     1       9.424  11.992  21.168  0.00  0.00    +0.000 A 
ATOM      8  C   UNL     1       9.848  12.923  20.247  0.00  0.00    +0.000 A 
ATOM      9  N   UNL     1       9.720  14.248  20.445  0.00  0.00    +0.000 NA
ATOM     10  C   UNL     1      10.207  15.036  19.481  0.00  0.00    +0.000 A 
ATOM     11  N   UNL     1       9.320  15.756  18.691  0.00  0.00    +0.000 N 
ATOM     12  C   UNL     1       9.744  16.861  17.840  0.00  0.00    +0.000 C 
ATOM     13  C   UNL     1       8.960  18.102  18.286  0.00  0.00    +0.000 C 
ATOM     14  O   UNL     1       7.537  17.884  18.196  0.00  0.00    +0.000 OA
ATOM     15  C   UNL     1       7.138  16.779  19.037  0.00  0.00    +0.000 C 
ATOM     16  C   UNL     1       7.877  15.488  18.663  0.00  0.00    +0.000 C 
ATOM     17  C   UNL     1      11.347  14.596  18.845  0.00  0.00    +0.000 A 
ATOM     18  C   UNL     1      11.286  13.290  18.394  0.00  0.00    +0.000 A 
ATOM     19  C   UNL     1      10.410  12.428  19.052  0.00  0.00    +0.000 A 
ATOM     20  C   UNL     1      10.129  11.126  18.634  0.00  0.00    +0.000 A 
ENDBRANCH   3   5
BRANCH   2  21
ATOM     21  C   UNL     1       7.766   7.426  17.611  0.00  0.00    +0.000 C 
BRANCH  21  22
ATOM     22  O   UNL     1       6.594   7.232  16.827  0.00  0.00    +0.000 OA
BRANCH  22  23
ATOM     23  C   UNL     1       5.517   6.737  17.529  0.00  0.00    +0.000 A 
ATOM     24  C   UNL     1       5.803   5.787  18.509  0.00  0.00    +0.000 A 
ATOM     25  C   UNL     1       4.774   5.213  19.267  0.00  0.00    +0.000 A 
ATOM     26  C   UNL     1       3.443   5.611  19.084  0.00  0.00    +0.000 A 
ATOM     27  C   UNL     1       3.168   6.571  18.108  0.00  0.00    +0.000 A 
ATOM     28  C   UNL     1       4.197   7.152  17.359  0.00  0.00    +0.000 A 
BRANCH  26  29
ATOM     29  C   UNL     1       2.314   5.031  19.868  0.00  0.00    +0.000 C 
ATOM     30  F   UNL     1       2.699   4.144  20.827  0.00  0.00    +0.000 F 
ATOM     31  F   UNL     1       1.577   5.979  20.514  0.00  0.00    +0.000 F 
ATOM     32  F   UNL     1       1.420   4.351  19.085  0.00  0.00    +0.000 F 
ENDBRANCH  26  29
ENDBRANCH  22  23
ENDBRANCH  21  22
ENDBRANCH   2  21
TORSDOF 5
ENDMDL
MODEL 9
REMARK VINA RESULT:      -8.5      6.206      7.680
REMARK  Name = 
REMARK  5 active torsions:
REMARK  status: ('A' for Active; 'I' for Inactive)
REMARK    1  A    between atoms: C_2  and  C_3
REMARK    2  A    between atoms: C_3  and  O_4
REMARK    3  A    between atoms: O_4  and  C_5
REMARK    4  A    between atoms: C_8  and  C_9
REMARK    5  A    between atoms: N_15  and  C_16
REMARK                            x       y       z     vdW  Elec       q    Type
REMARK                         _______ _______ _______ _____ _____    ______ ____
ROOT
ATOM      1  O   UNL     1       0.798   5.008  20.357  0.00  0.00    +0.000 OA
ATOM      2  C   UNL     1       1.974   5.309  20.531  0.00  0.00    +0.000 C 
ATOM      3  N   UNL     1       2.546   6.555  20.286  0.00  0.00    +0.000 N 
ATOM      4  H   UNL     1       3.555   6.614  20.344  0.00  0.00    +0.000 HD
ENDROOT
BRANCH   3   5
ATOM      5  C   UNL     1       1.909   7.681  19.731  0.00  0.00    +0.000 A 
ATOM      6  C   UNL     1       2.099   8.117  18.422  0.00  0.00    +0.000 A 
ATOM      7  C   UNL     1       1.742   9.421  18.073  0.00  0.00    +0.000 A 
ATOM      8  C   UNL     1       1.125  10.256  18.977  0.00  0.00    +0.000 A 
ATOM      9  N   UNL     1       1.041  11.587  18.794  0.00  0.00    +0.000 NA
ATOM     10  C   UNL     1       0.383  12.269  19.737  0.00  0.00    +0.000 A 
ATOM     11  N   UNL     1       1.099  13.115  20.576  0.00  0.00    +0.000 N 
ATOM     12  C   UNL     1       0.456  14.122  21.411  0.00  0.00    +0.000 C 
ATOM     13  C   UNL     1       1.046  15.482  21.013  0.00  0.00    +0.000 C 
ATOM     14  O   UNL     1       2.478  15.500  21.174  0.00  0.00    +0.000 OA
ATOM     15  C   UNL     1       3.096  14.489  20.347  0.00  0.00    +0.000 C 
ATOM     16  C   UNL     1       2.563  13.088  20.676  0.00  0.00    +0.000 C 
ATOM     17  C   UNL     1      -0.698  11.639  20.312  0.00  0.00    +0.000 A 
ATOM     18  C   UNL     1      -0.444  10.354  20.757  0.00  0.00    +0.000 A 
ATOM     19  C   UNL     1       0.595   9.658  20.139  0.00  0.00    +0.000 A 
ATOM     20  C   UNL     1       1.067   8.415  20.563  0.00  0.00    +0.000 A 
ENDBRANCH   3   5
BRANCH   2  21
ATOM     21  C   UNL     1       2.974   4.301  21.107  0.00  0.00    +0.000 C 
BRANCH  21  22
ATOM     22  O   UNL     1       3.251   3.221  20.221  0.00  0.00    +0.000 OA
BRANCH  22  23
ATOM     23  C   UNL     1       3.878   3.592  19.053  0.00  0.00    +0.000 A 
ATOM     24  C   UNL     1       5.149   4.149  19.185  0.00  0.00    +0.000 A 
ATOM     25  C   UNL     1       5.864   4.572  18.056  0.00  0.00    +0.000 A 
ATOM     26  C   UNL     1       5.332   4.407  16.771  0.00  0.00    +0.000 A 
ATOM     27  C   UNL     1       4.062   3.840  16.647  0.00  0.00    +0.000 A 
ATOM     28  C   UNL     1       3.355   3.407  17.774  0.00  0.00    +0.000 A 
BRANCH  26  29
ATOM     29  C   UNL     1       6.055   4.840  15.538  0.00  0.00    +0.000 C 
ATOM     30  F   UNL     1       7.248   5.449  15.779  0.00  0.00    +0.000 F 
ATOM     31  F   UNL     1       6.329   3.804  14.696  0.00  0.00    +0.000 F 
ATOM     32  F   UNL     1       5.337   5.734  14.789  0.00  0.00    +0.000 F 
ENDBRANCH  26  29
ENDBRANCH  22  23
ENDBRANCH  21  22
ENDBRANCH   2  21
TORSDOF 5
ENDMDL
