MODEL 1
REMARK VINA RESULT:      -6.3      0.000      0.000
REMARK  Name = 
REMARK  9 active torsions:
REMARK  status: ('A' for Active; 'I' for Inactive)
REMARK    1  A    between atoms: C_1  and  O_2
REMARK    2  A    between atoms: O_2  and  C_3
REMARK    3  A    between atoms: C_3  and  C_5
REMARK    4  A    between atoms: C_5  and  C_6
REMARK    5  A    between atoms: C_6  and  C_7
REMARK    6  A    between atoms: C_16  and  C_17
REMARK    7  A    between atoms: N_19  and  C_20
REMARK    8  A    between atoms: N_19  and  C_21
REMARK    9  A    between atoms: C_28  and  C_30
REMARK                            x       y       z     vdW  Elec       q    Type
REMARK                         _______ _______ _______ _____ _____    ______ ____
ROOT
ATOM      1  C   UNL     1      -0.241  11.895  19.934  0.00  0.00    +0.000 C 
ATOM      2  C   UNL     1      -0.485  10.362  20.315  0.00  0.00    +0.000 C 
ATOM      3  C   UNL     1       0.645   9.410  20.240  0.00  0.00    +0.000 A 
ATOM      4  C   UNL     1       0.986   8.262  19.508  0.00  0.00    +0.000 A 
ATOM      5  C   UNL     1       1.758   7.444  20.348  0.00  0.00    +0.000 A 
ATOM      6  N   UNL     1       1.977   8.167  21.513  0.00  0.00    +0.000 N 
ATOM      7  C   UNL     1       1.277   9.330  21.441  0.00  0.00    +0.000 A 
ATOM      8  C   UNL     1       0.679  10.198  22.501  0.00  0.00    +0.000 C 
ATOM      9  C   UNL     1      -0.745  10.443  21.889  0.00  0.00    +0.000 C 
ATOM     10  C   UNL     1      -1.712  11.595  21.755  0.00  0.00    +0.000 C 
ATOM     11  N   UNL     1      -1.071  12.591  20.984  0.00  0.00    +0.000 N 
ATOM     12  C   UNL     1      -1.331  13.918  21.346  0.00  0.00    +0.000 C 
ATOM     13  O   UNL     1      -2.296  14.140  22.111  0.00  0.00    +0.000 OA
ATOM     14  H   UNL     1       2.356   7.768  22.362  0.00  0.00    +0.000 HD
ENDROOT
BRANCH  12  15
ATOM     15  C   UNL     1      -0.488  15.065  21.033  0.00  0.00    +0.000 A 
ATOM     16  C   UNL     1       0.316  15.613  22.059  0.00  0.00    +0.000 A 
ATOM     17  C   UNL     1       1.184  16.704  21.816  0.00  0.00    +0.000 A 
ATOM     18  C   UNL     1       1.264  17.256  20.551  0.00  0.00    +0.000 A 
ATOM     19  C   UNL     1       0.504  16.701  19.515  0.00  0.00    +0.000 A 
ATOM     20  C   UNL     1      -0.369  15.655  19.773  0.00  0.00    +0.000 A 
ENDBRANCH  12  15
BRANCH   5  21
ATOM     21  C   UNL     1       2.020   6.020  20.161  0.00  0.00    +0.000 C 
ATOM     22  O   UNL     1       1.338   5.191  20.768  0.00  0.00    +0.000 OA
ATOM     23  N   UNL     1       3.089   5.601  19.356  0.00  0.00    +0.000 N 
ATOM     24  C   UNL     1       3.738   6.379  18.310  0.00  0.00    +0.000 C 
ATOM     25  C   UNL     1       3.424   4.185  19.359  0.00  0.00    +0.000 C 
ENDBRANCH   5  21
BRANCH   1  26
ATOM     26  C   UNL     1       1.251  12.275  20.198  0.00  0.00    +0.000 C 
ATOM     27  O   UNL     1       1.764  12.630  21.259  0.00  0.00    +0.000 OA
BRANCH  26  29
ATOM     28  C   UNL     1       2.680  13.470  18.731  0.00  0.00    +0.000 C 
ATOM     29  O   UNL     1       2.007  12.249  19.062  0.00  0.00    +0.000 OA
ENDBRANCH  26  29
ENDBRANCH   1  26
BRANCH   1  30
ATOM     30  C   UNL     1      -0.807  12.307  18.580  0.00  0.00    +0.000 C 
BRANCH  30  31
ATOM     31  C   UNL     1      -1.956  11.564  17.922  0.00  0.00    +0.000 A 
ATOM     32  C   UNL     1      -1.726  10.569  16.966  0.00  0.00    +0.000 A 
ATOM     33  C   UNL     1      -2.794   9.904  16.363  0.00  0.00    +0.000 A 
ATOM     34  C   UNL     1      -4.105  10.221  16.700  0.00  0.00    +0.000 A 
ATOM     35  C   UNL     1      -4.352  11.197  17.660  0.00  0.00    +0.000 A 
ATOM     36  C   UNL     1      -3.286  11.857  18.282  0.00  0.00    +0.000 A 
ENDBRANCH  30  31
ENDBRANCH   1  30
TORSDOF 6
ENDMDL
MODEL 2
REMARK VINA RESULT:      -6.2      1.075      1.149
REMARK  Name = 
REMARK  9 active torsions:
REMARK  status: ('A' for Active; 'I' for Inactive)
REMARK    1  A    between atoms: C_1  and  O_2
REMARK    2  A    between atoms: O_2  and  C_3
REMARK    3  A    between atoms: C_3  and  C_5
REMARK    4  A    between atoms: C_5  and  C_6
REMARK    5  A    between atoms: C_6  and  C_7
REMARK    6  A    between atoms: C_16  and  C_17
REMARK    7  A    between atoms: N_19  and  C_20
REMARK    8  A    between atoms: N_19  and  C_21
REMARK    9  A    between atoms: C_28  and  C_30
REMARK                            x       y       z     vdW  Elec       q    Type
REMARK                         _______ _______ _______ _____ _____    ______ ____
ROOT
ATOM      1  C   UNL     1      -0.076  11.578  19.508  0.00  0.00    +0.000 C 
ATOM      2  C   UNL     1      -0.189   9.984  19.536  0.00  0.00    +0.000 C 
ATOM      3  C   UNL     1       0.995   9.169  19.183  0.00  0.00    +0.000 A 
ATOM      4  C   UNL     1       1.360   8.249  18.187  0.00  0.00    +0.000 A 
ATOM      5  C   UNL     1       2.243   7.328  18.772  0.00  0.00    +0.000 A 
ATOM      6  N   UNL     1       2.495   7.784  20.060  0.00  0.00    +0.000 N 
ATOM      7  C   UNL     1       1.715   8.871  20.296  0.00  0.00    +0.000 A 
ATOM      8  C   UNL     1       1.136   9.424  21.559  0.00  0.00    +0.000 C 
ATOM      9  C   UNL     1      -0.341   9.684  21.098  0.00  0.00    +0.000 C 
ATOM     10  C   UNL     1      -1.390  10.753  21.286  0.00  0.00    +0.000 C 
ATOM     11  N   UNL     1      -0.875  11.948  20.733  0.00  0.00    +0.000 N 
ATOM     12  C   UNL     1      -1.197  13.132  21.406  0.00  0.00    +0.000 C 
ATOM     13  O   UNL     1      -2.118  13.095  22.252  0.00  0.00    +0.000 OA
ATOM     14  H   UNL     1       2.959   7.235  20.772  0.00  0.00    +0.000 HD
ENDROOT
BRANCH  12  15
ATOM     15  C   UNL     1      -0.457  14.385  21.322  0.00  0.00    +0.000 A 
ATOM     16  C   UNL     1       0.318  14.788  22.434  0.00  0.00    +0.000 A 
ATOM     17  C   UNL     1       1.088  15.975  22.408  0.00  0.00    +0.000 A 
ATOM     18  C   UNL     1       1.098  16.769  21.275  0.00  0.00    +0.000 A 
ATOM     19  C   UNL     1       0.367  16.364  20.153  0.00  0.00    +0.000 A 
ATOM     20  C   UNL     1      -0.411  15.218  20.202  0.00  0.00    +0.000 A 
ENDBRANCH  12  15
BRANCH   5  21
ATOM     21  C   UNL     1       2.587   6.010  18.247  0.00  0.00    +0.000 C 
ATOM     22  O   UNL     1       1.816   5.063  18.427  0.00  0.00    +0.000 OA
ATOM     23  N   UNL     1       3.818   5.806  17.610  0.00  0.00    +0.000 N 
ATOM     24  C   UNL     1       4.654   6.831  16.998  0.00  0.00    +0.000 C 
ATOM     25  C   UNL     1       4.191   4.438  17.280  0.00  0.00    +0.000 C 
ENDBRANCH   5  21
BRANCH   1  26
ATOM     26  C   UNL     1       1.402  12.009  19.772  0.00  0.00    +0.000 C 
ATOM     27  O   UNL     1       1.937  12.252  20.855  0.00  0.00    +0.000 OA
BRANCH  26  29
ATOM     28  C   UNL     1       2.731  13.460  18.448  0.00  0.00    +0.000 C 
ATOM     29  O   UNL     1       2.113  12.178  18.620  0.00  0.00    +0.000 OA
ENDBRANCH  26  29
ENDBRANCH   1  26
BRANCH   1  30
ATOM     30  C   UNL     1      -0.763  12.238  18.318  0.00  0.00    +0.000 C 
BRANCH  30  31
ATOM     31  C   UNL     1      -2.092  11.747  17.774  0.00  0.00    +0.000 A 
ATOM     32  C   UNL     1      -2.167  11.022  16.581  0.00  0.00    +0.000 A 
ATOM     33  C   UNL     1      -3.399  10.587  16.090  0.00  0.00    +0.000 A 
ATOM     34  C   UNL     1      -4.573  10.870  16.778  0.00  0.00    +0.000 A 
ATOM     35  C   UNL     1      -4.516  11.576  17.975  0.00  0.00    +0.000 A 
ATOM     36  C   UNL     1      -3.283  12.001  18.483  0.00  0.00    +0.000 A 
ENDBRANCH  30  31
ENDBRANCH   1  30
TORSDOF 6
ENDMDL
MODEL 3
REMARK VINA RESULT:      -6.2      1.073      1.602
REMARK  Name = 
REMARK  9 active torsions:
REMARK  status: ('A' for Active; 'I' for Inactive)
REMARK    1  A    between atoms: C_1  and  O_2
REMARK    2  A    between atoms: O_2  and  C_3
REMARK    3  A    between atoms: C_3  and  C_5
REMARK    4  A    between atoms: C_5  and  C_6
REMARK    5  A    between atoms: C_6  and  C_7
REMARK    6  A    between atoms: C_16  and  C_17
REMARK    7  A    between atoms: N_19  and  C_20
REMARK    8  A    between atoms: N_19  and  C_21
REMARK    9  A    between atoms: C_28  and  C_30
REMARK                            x       y       z     vdW  Elec       q    Type
REMARK                         _______ _______ _______ _____ _____    ______ ____
ROOT
ATOM      1  C   UNL     1      -0.075  11.570  19.580  0.00  0.00    +0.000 C 
ATOM      2  C   UNL     1      -0.187   9.976  19.601  0.00  0.00    +0.000 C 
ATOM      3  C   UNL     1       0.992   9.164  19.226  0.00  0.00    +0.000 A 
ATOM      4  C   UNL     1       1.344   8.250  18.221  0.00  0.00    +0.000 A 
ATOM      5  C   UNL     1       2.236   7.327  18.789  0.00  0.00    +0.000 A 
ATOM      6  N   UNL     1       2.506   7.775  20.075  0.00  0.00    +0.000 N 
ATOM      7  C   UNL     1       1.728   8.861  20.328  0.00  0.00    +0.000 A 
ATOM      8  C   UNL     1       1.166   9.407  21.602  0.00  0.00    +0.000 C 
ATOM      9  C   UNL     1      -0.317   9.667  21.163  0.00  0.00    +0.000 C 
ATOM     10  C   UNL     1      -1.364  10.735  21.371  0.00  0.00    +0.000 C 
ATOM     11  N   UNL     1      -0.857  11.933  20.818  0.00  0.00    +0.000 N 
ATOM     12  C   UNL     1      -1.171  13.113  21.501  0.00  0.00    +0.000 C 
ATOM     13  O   UNL     1      -2.080  13.071  22.360  0.00  0.00    +0.000 OA
ATOM     14  H   UNL     1       2.980   7.223  20.778  0.00  0.00    +0.000 HD
ENDROOT
BRANCH  12  15
ATOM     15  C   UNL     1      -0.433  14.368  21.414  0.00  0.00    +0.000 A 
ATOM     16  C   UNL     1      -0.585  15.162  20.255  0.00  0.00    +0.000 A 
ATOM     17  C   UNL     1       0.073  16.408  20.119  0.00  0.00    +0.000 A 
ATOM     18  C   UNL     1       0.884  16.876  21.138  0.00  0.00    +0.000 A 
ATOM     19  C   UNL     1       1.014  16.120  22.308  0.00  0.00    +0.000 A 
ATOM     20  C   UNL     1       0.392  14.885  22.415  0.00  0.00    +0.000 A 
ENDBRANCH  12  15
BRANCH   5  21
ATOM     21  C   UNL     1       2.574   6.012  18.252  0.00  0.00    +0.000 C 
ATOM     22  O   UNL     1       1.795   5.069  18.417  0.00  0.00    +0.000 OA
ATOM     23  N   UNL     1       3.807   5.805  17.620  0.00  0.00    +0.000 N 
ATOM     24  C   UNL     1       4.653   6.830  17.024  0.00  0.00    +0.000 C 
ATOM     25  C   UNL     1       4.172   4.438  17.278  0.00  0.00    +0.000 C 
ENDBRANCH   5  21
BRANCH   1  26
ATOM     26  C   UNL     1       1.405  12.001  19.825  0.00  0.00    +0.000 C 
ATOM     27  O   UNL     1       1.951  12.253  20.900  0.00  0.00    +0.000 OA
BRANCH  26  29
ATOM     28  C   UNL     1       2.733  13.434  18.481  0.00  0.00    +0.000 C 
ATOM     29  O   UNL     1       2.106  12.159  18.665  0.00  0.00    +0.000 OA
ENDBRANCH  26  29
ENDBRANCH   1  26
BRANCH   1  30
ATOM     30  C   UNL     1      -0.779  12.237  18.403  0.00  0.00    +0.000 C 
BRANCH  30  31
ATOM     31  C   UNL     1      -2.122  11.755  17.883  0.00  0.00    +0.000 A 
ATOM     32  C   UNL     1      -3.307  12.010  18.581  0.00  0.00    +0.000 A 
ATOM     33  C   UNL     1      -4.531  11.550  18.095  0.00  0.00    +0.000 A 
ATOM     34  C   UNL     1      -4.593  10.828  16.909  0.00  0.00    +0.000 A 
ATOM     35  C   UNL     1      -3.427  10.578  16.193  0.00  0.00    +0.000 A 
ATOM     36  C   UNL     1      -2.197  11.050  16.665  0.00  0.00    +0.000 A 
ENDBRANCH  30  31
ENDBRANCH   1  30
TORSDOF 6
ENDMDL
MODEL 4
REMARK VINA RESULT:      -6.1      3.719      6.720
REMARK  Name = 
REMARK  9 active torsions:
REMARK  status: ('A' for Active; 'I' for Inactive)
REMARK    1  A    between atoms: C_1  and  O_2
REMARK    2  A    between atoms: O_2  and  C_3
REMARK    3  A    between atoms: C_3  and  C_5
REMARK    4  A    between atoms: C_5  and  C_6
REMARK    5  A    between atoms: C_6  and  C_7
REMARK    6  A    between atoms: C_16  and  C_17
REMARK    7  A    between atoms: N_19  and  C_20
REMARK    8  A    between atoms: N_19  and  C_21
REMARK    9  A    between atoms: C_28  and  C_30
REMARK                            x       y       z     vdW  Elec       q    Type
REMARK                         _______ _______ _______ _____ _____    ______ ____
ROOT
ATOM      1  C   UNL     1      -1.843  13.553  22.435  0.00  0.00    +0.000 C 
ATOM      2  C   UNL     1      -0.310  13.983  22.297  0.00  0.00    +0.000 C 
ATOM      3  C   UNL     1       0.221  14.352  20.966  0.00  0.00    +0.000 A 
ATOM      4  C   UNL     1       1.185  13.873  20.065  0.00  0.00    +0.000 A 
ATOM      5  C   UNL     1       1.716  14.984  19.392  0.00  0.00    +0.000 A 
ATOM      6  N   UNL     1       0.976  16.086  19.799  0.00  0.00    +0.000 N 
ATOM      7  C   UNL     1       0.104  15.691  20.764  0.00  0.00    +0.000 A 
ATOM      8  C   UNL     1      -0.508  16.427  21.913  0.00  0.00    +0.000 C 
ATOM      9  C   UNL     1      -0.281  15.385  23.063  0.00  0.00    +0.000 C 
ATOM     10  C   UNL     1      -1.056  14.850  24.243  0.00  0.00    +0.000 C 
ATOM     11  N   UNL     1      -2.217  14.223  23.734  0.00  0.00    +0.000 N 
ATOM     12  C   UNL     1      -3.381  14.360  24.498  0.00  0.00    +0.000 C 
ATOM     13  O   UNL     1      -3.266  14.765  25.676  0.00  0.00    +0.000 OA
ATOM     14  H   UNL     1       1.239  17.044  19.610  0.00  0.00    +0.000 HD
ENDROOT
BRANCH  12  15
ATOM     15  C   UNL     1      -4.745  14.217  24.003  0.00  0.00    +0.000 A 
ATOM     16  C   UNL     1      -5.322  12.927  23.977  0.00  0.00    +0.000 A 
ATOM     17  C   UNL     1      -6.653  12.720  23.542  0.00  0.00    +0.000 A 
ATOM     18  C   UNL     1      -7.422  13.795  23.133  0.00  0.00    +0.000 A 
ATOM     19  C   UNL     1      -6.878  15.083  23.189  0.00  0.00    +0.000 A 
ATOM     20  C   UNL     1      -5.563  15.268  23.584  0.00  0.00    +0.000 A 
ENDBRANCH  12  15
BRANCH   5  21
ATOM     21  C   UNL     1       2.974  15.023  18.651  0.00  0.00    +0.000 C 
ATOM     22  O   UNL     1       2.956  14.974  17.418  0.00  0.00    +0.000 OA
ATOM     23  N   UNL     1       4.195  15.040  19.339  0.00  0.00    +0.000 N 
ATOM     24  C   UNL     1       4.404  15.462  20.717  0.00  0.00    +0.000 C 
ATOM     25  C   UNL     1       5.414  14.883  18.558  0.00  0.00    +0.000 C 
ENDBRANCH   5  21
BRANCH   1  26
ATOM     26  C   UNL     1      -2.685  14.228  21.307  0.00  0.00    +0.000 C 
ATOM     27  O   UNL     1      -3.076  15.395  21.250  0.00  0.00    +0.000 OA
BRANCH  26  29
ATOM     28  C   UNL     1      -4.455  13.081  20.223  0.00  0.00    +0.000 C 
ATOM     29  O   UNL     1      -3.052  13.350  20.329  0.00  0.00    +0.000 OA
ENDBRANCH  26  29
ENDBRANCH   1  26
BRANCH   1  30
ATOM     30  C   UNL     1      -2.064  12.058  22.632  0.00  0.00    +0.000 C 
BRANCH  30  31
ATOM     31  C   UNL     1      -1.037  11.024  22.206  0.00  0.00    +0.000 A 
ATOM     32  C   UNL     1      -0.396  10.206  23.143  0.00  0.00    +0.000 A 
ATOM     33  C   UNL     1       0.554   9.269  22.736  0.00  0.00    +0.000 A 
ATOM     34  C   UNL     1       0.881   9.133  21.392  0.00  0.00    +0.000 A 
ATOM     35  C   UNL     1       0.242   9.926  20.444  0.00  0.00    +0.000 A 
ATOM     36  C   UNL     1      -0.724  10.857  20.842  0.00  0.00    +0.000 A 
ENDBRANCH  30  31
ENDBRANCH   1  30
TORSDOF 6
ENDMDL
MODEL 5
REMARK VINA RESULT:      -6.1      2.336      7.298
REMARK  Name = 
REMARK  9 active torsions:
REMARK  status: ('A' for Active; 'I' for Inactive)
REMARK    1  A    between atoms: C_1  and  O_2
REMARK    2  A    between atoms: O_2  and  C_3
REMARK    3  A    between atoms: C_3  and  C_5
REMARK    4  A    between atoms: C_5  and  C_6
REMARK    5  A    between atoms: C_6  and  C_7
REMARK    6  A    between atoms: C_16  and  C_17
REMARK    7  A    between atoms: N_19  and  C_20
REMARK    8  A    between atoms: N_19  and  C_21
REMARK    9  A    between atoms: C_28  and  C_30
REMARK                            x       y       z     vdW  Elec       q    Type
REMARK                         _______ _______ _______ _____ _____    ______ ____
ROOT
ATOM      1  C   UNL     1      -0.436  10.935  19.877  0.00  0.00    +0.000 C 
ATOM      2  C   UNL     1      -0.753  12.501  19.905  0.00  0.00    +0.000 C 
ATOM      3  C   UNL     1      -1.035  13.158  21.201  0.00  0.00    +0.000 A 
ATOM      4  C   UNL     1      -2.110  13.822  21.814  0.00  0.00    +0.000 A 
ATOM      5  C   UNL     1      -1.567  14.801  22.662  0.00  0.00    +0.000 A 
ATOM      6  N   UNL     1      -0.190  14.621  22.645  0.00  0.00    +0.000 N 
ATOM      7  C   UNL     1       0.110  13.652  21.741  0.00  0.00    +0.000 A 
ATOM      8  C   UNL     1       1.327  13.415  20.905  0.00  0.00    +0.000 C 
ATOM      9  C   UNL     1       0.658  13.139  19.513  0.00  0.00    +0.000 C 
ATOM     10  C   UNL     1       0.858  12.190  18.355  0.00  0.00    +0.000 C 
ATOM     11  N   UNL     1       0.666  10.880  18.848  0.00  0.00    +0.000 N 
ATOM     12  C   UNL     1       1.492   9.887  18.309  0.00  0.00    +0.000 C 
ATOM     13  O   UNL     1       2.124  10.153  17.263  0.00  0.00    +0.000 OA
ATOM     14  H   UNL     1       0.470  15.286  23.026  0.00  0.00    +0.000 HD
ENDROOT
BRANCH  12  15
ATOM     15  C   UNL     1       1.805   8.608  18.936  0.00  0.00    +0.000 A 
ATOM     16  C   UNL     1       2.599   7.682  18.222  0.00  0.00    +0.000 A 
ATOM     17  C   UNL     1       2.970   6.437  18.784  0.00  0.00    +0.000 A 
ATOM     18  C   UNL     1       2.559   6.106  20.063  0.00  0.00    +0.000 A 
ATOM     19  C   UNL     1       1.805   7.028  20.797  0.00  0.00    +0.000 A 
ATOM     20  C   UNL     1       1.418   8.228  20.223  0.00  0.00    +0.000 A 
ENDBRANCH  12  15
BRANCH   5  21
ATOM     21  C   UNL     1      -2.274  15.955  23.209  0.00  0.00    +0.000 C 
ATOM     22  O   UNL     1      -2.446  16.953  22.504  0.00  0.00    +0.000 OA
ATOM     23  N   UNL     1      -2.688  15.957  24.548  0.00  0.00    +0.000 N 
ATOM     24  C   UNL     1      -2.902  14.785  25.387  0.00  0.00    +0.000 C 
ATOM     25  C   UNL     1      -3.212  17.201  25.093  0.00  0.00    +0.000 C 
ENDBRANCH   5  21
BRANCH   1  26
ATOM     26  C   UNL     1       0.183  10.496  21.242  0.00  0.00    +0.000 C 
ATOM     27  O   UNL     1       1.346  10.633  21.624  0.00  0.00    +0.000 OA
BRANCH  26  29
ATOM     28  C   UNL     1      -0.256   9.514  23.355  0.00  0.00    +0.000 C 
ATOM     29  O   UNL     1      -0.708   9.831  22.033  0.00  0.00    +0.000 OA
ENDBRANCH  26  29
ENDBRANCH   1  26
BRANCH   1  30
ATOM     30  C   UNL     1      -1.575  10.069  19.350  0.00  0.00    +0.000 C 
BRANCH  30  31
ATOM     31  C   UNL     1      -2.349  10.426  18.094  0.00  0.00    +0.000 A 
ATOM     32  C   UNL     1      -3.460  11.274  18.140  0.00  0.00    +0.000 A 
ATOM     33  C   UNL     1      -4.167  11.582  16.977  0.00  0.00    +0.000 A 
ATOM     34  C   UNL     1      -3.780  11.050  15.753  0.00  0.00    +0.000 A 
ATOM     35  C   UNL     1      -2.667  10.218  15.685  0.00  0.00    +0.000 A 
ATOM     36  C   UNL     1      -1.942   9.917  16.844  0.00  0.00    +0.000 A 
ENDBRANCH  30  31
ENDBRANCH   1  30
TORSDOF 6
ENDMDL
MODEL 6
REMARK VINA RESULT:      -6.1      1.016      1.189
REMARK  Name = 
REMARK  9 active torsions:
REMARK  status: ('A' for Active; 'I' for Inactive)
REMARK    1  A    between atoms: C_1  and  O_2
REMARK    2  A    between atoms: O_2  and  C_3
REMARK    3  A    between atoms: C_3  and  C_5
REMARK    4  A    between atoms: C_5  and  C_6
REMARK    5  A    between atoms: C_6  and  C_7
REMARK    6  A    between atoms: C_16  and  C_17
REMARK    7  A    between atoms: N_19  and  C_20
REMARK    8  A    between atoms: N_19  and  C_21
REMARK    9  A    between atoms: C_28  and  C_30
REMARK                            x       y       z     vdW  Elec       q    Type
REMARK                         _______ _______ _______ _____ _____    ______ ____
ROOT
ATOM      1  C   UNL     1      -0.092  11.558  19.694  0.00  0.00    +0.000 C 
ATOM      2  C   UNL     1      -0.198   9.967  19.802  0.00  0.00    +0.000 C 
ATOM      3  C   UNL     1       0.990   9.140  19.497  0.00  0.00    +0.000 A 
ATOM      4  C   UNL     1       1.365   8.172  18.552  0.00  0.00    +0.000 A 
ATOM      5  C   UNL     1       2.248   7.286  19.188  0.00  0.00    +0.000 A 
ATOM      6  N   UNL     1       2.491   7.808  20.452  0.00  0.00    +0.000 N 
ATOM      7  C   UNL     1       1.706   8.903  20.628  0.00  0.00    +0.000 A 
ATOM      8  C   UNL     1       1.117   9.517  21.858  0.00  0.00    +0.000 C 
ATOM      9  C   UNL     1      -0.358   9.746  21.377  0.00  0.00    +0.000 C 
ATOM     10  C   UNL     1      -1.412  10.819  21.505  0.00  0.00    +0.000 C 
ATOM     11  N   UNL     1      -0.899  11.986  20.894  0.00  0.00    +0.000 N 
ATOM     12  C   UNL     1      -1.230  13.201  21.504  0.00  0.00    +0.000 C 
ATOM     13  O   UNL     1      -2.155  13.203  22.347  0.00  0.00    +0.000 OA
ATOM     14  H   UNL     1       2.954   7.298  21.193  0.00  0.00    +0.000 HD
ENDROOT
BRANCH  12  15
ATOM     15  C   UNL     1      -0.495  14.452  21.361  0.00  0.00    +0.000 A 
ATOM     16  C   UNL     1       0.292  14.902  22.446  0.00  0.00    +0.000 A 
ATOM     17  C   UNL     1       1.058  16.089  22.362  0.00  0.00    +0.000 A 
ATOM     18  C   UNL     1       1.053  16.835  21.198  0.00  0.00    +0.000 A 
ATOM     19  C   UNL     1       0.310  16.383  20.101  0.00  0.00    +0.000 A 
ATOM     20  C   UNL     1      -0.464  15.238  20.207  0.00  0.00    +0.000 A 
ENDBRANCH  12  15
BRANCH   5  21
ATOM     21  C   UNL     1       2.600   5.945  18.732  0.00  0.00    +0.000 C 
ATOM     22  O   UNL     1       3.438   5.807  17.836  0.00  0.00    +0.000 OA
ATOM     23  N   UNL     1       1.937   4.827  19.256  0.00  0.00    +0.000 N 
ATOM     24  C   UNL     1       1.227   4.762  20.526  0.00  0.00    +0.000 C 
ATOM     25  C   UNL     1       2.189   3.536  18.632  0.00  0.00    +0.000 C 
ENDBRANCH   5  21
BRANCH   1  26
ATOM     26  C   UNL     1       1.382  12.008  19.943  0.00  0.00    +0.000 C 
ATOM     27  O   UNL     1       1.919  12.279  21.018  0.00  0.00    +0.000 OA
BRANCH  26  29
ATOM     28  C   UNL     1       2.683  13.447  18.578  0.00  0.00    +0.000 C 
ATOM     29  O   UNL     1       2.088  12.160  18.785  0.00  0.00    +0.000 OA
ENDBRANCH  26  29
ENDBRANCH   1  26
BRANCH   1  30
ATOM     30  C   UNL     1      -0.775  12.154  18.468  0.00  0.00    +0.000 C 
BRANCH  30  31
ATOM     31  C   UNL     1      -2.016  11.534  17.850  0.00  0.00    +0.000 A 
ATOM     32  C   UNL     1      -1.923  10.587  16.826  0.00  0.00    +0.000 A 
ATOM     33  C   UNL     1      -3.074  10.036  16.261  0.00  0.00    +0.000 A 
ATOM     34  C   UNL     1      -4.333  10.421  16.707  0.00  0.00    +0.000 A 
ATOM     35  C   UNL     1      -4.445  11.349  17.737  0.00  0.00    +0.000 A 
ATOM     36  C   UNL     1      -3.295  11.895  18.320  0.00  0.00    +0.000 A 
ENDBRANCH  30  31
ENDBRANCH   1  30
TORSDOF 6
ENDMDL
MODEL 7
REMARK VINA RESULT:      -6.0      0.628      1.022
REMARK  Name = 
REMARK  9 active torsions:
REMARK  status: ('A' for Active; 'I' for Inactive)
REMARK    1  A    between atoms: C_1  and  O_2
REMARK    2  A    between atoms: O_2  and  C_3
REMARK    3  A    between atoms: C_3  and  C_5
REMARK    4  A    between atoms: C_5  and  C_6
REMARK    5  A    between atoms: C_6  and  C_7
REMARK    6  A    between atoms: C_16  and  C_17
REMARK    7  A    between atoms: N_19  and  C_20
REMARK    8  A    between atoms: N_19  and  C_21
REMARK    9  A    between atoms: C_28  and  C_30
REMARK                            x       y       z     vdW  Elec       q    Type
REMARK                         _______ _______ _______ _____ _____    ______ ____
ROOT
ATOM      1  C   UNL     1      -0.559  12.041  20.454  0.00  0.00    +0.000 C 
ATOM      2  C   UNL     1      -0.699  10.471  20.718  0.00  0.00    +0.000 C 
ATOM      3  C   UNL     1       0.473   9.595  20.497  0.00  0.00    +0.000 A 
ATOM      4  C   UNL     1       0.826   8.531  19.651  0.00  0.00    +0.000 A 
ATOM      5  C   UNL     1       1.692   7.694  20.372  0.00  0.00    +0.000 A 
ATOM      6  N   UNL     1       1.947   8.332  21.579  0.00  0.00    +0.000 N 
ATOM      7  C   UNL     1       1.184   9.454  21.647  0.00  0.00    +0.000 A 
ATOM      8  C   UNL     1       0.610  10.198  22.810  0.00  0.00    +0.000 C 
ATOM      9  C   UNL     1      -0.861  10.409  22.307  0.00  0.00    +0.000 C 
ATOM     10  C   UNL     1      -1.893  11.511  22.328  0.00  0.00    +0.000 C 
ATOM     11  N   UNL     1      -1.357  12.602  21.606  0.00  0.00    +0.000 N 
ATOM     12  C   UNL     1      -1.662  13.878  22.093  0.00  0.00    +0.000 C 
ATOM     13  O   UNL     1      -2.586  13.981  22.931  0.00  0.00    +0.000 OA
ATOM     14  H   UNL     1       2.400   7.888  22.368  0.00  0.00    +0.000 HD
ENDROOT
BRANCH  12  15
ATOM     15  C   UNL     1      -0.901  15.093  21.829  0.00  0.00    +0.000 A 
ATOM     16  C   UNL     1      -1.042  15.718  20.569  0.00  0.00    +0.000 A 
ATOM     17  C   UNL     1      -0.361  16.919  20.257  0.00  0.00    +0.000 A 
ATOM     18  C   UNL     1       0.461  17.511  21.199  0.00  0.00    +0.000 A 
ATOM     19  C   UNL     1       0.581  16.927  22.465  0.00  0.00    +0.000 A 
ATOM     20  C   UNL     1      -0.064  15.732  22.745  0.00  0.00    +0.000 A 
ENDBRANCH  12  15
BRANCH   5  21
ATOM     21  C   UNL     1       2.016   6.307  20.051  0.00  0.00    +0.000 C 
ATOM     22  O   UNL     1       1.478   5.394  20.684  0.00  0.00    +0.000 OA
ATOM     23  N   UNL     1       2.988   6.018  19.083  0.00  0.00    +0.000 N 
ATOM     24  C   UNL     1       3.435   6.904  18.017  0.00  0.00    +0.000 C 
ATOM     25  C   UNL     1       3.410   4.632  18.940  0.00  0.00    +0.000 C 
ENDBRANCH   5  21
BRANCH   1  26
ATOM     26  C   UNL     1       0.924  12.484  20.660  0.00  0.00    +0.000 C 
ATOM     27  O   UNL     1       1.433  12.979  21.667  0.00  0.00    +0.000 OA
BRANCH  26  29
ATOM     28  C   UNL     1       2.448  13.477  19.139  0.00  0.00    +0.000 C 
ATOM     29  O   UNL     1       1.677  12.335  19.532  0.00  0.00    +0.000 OA
ENDBRANCH  26  29
ENDBRANCH   1  26
BRANCH   1  30
ATOM     30  C   UNL     1      -1.232  12.528  19.175  0.00  0.00    +0.000 C 
BRANCH  30  31
ATOM     31  C   UNL     1      -2.091  11.620  18.315  0.00  0.00    +0.000 A 
ATOM     32  C   UNL     1      -1.519  10.662  17.471  0.00  0.00    +0.000 A 
ATOM     33  C   UNL     1      -2.323   9.843  16.678  0.00  0.00    +0.000 A 
ATOM     34  C   UNL     1      -3.708   9.965  16.713  0.00  0.00    +0.000 A 
ATOM     35  C   UNL     1      -4.295  10.901  17.558  0.00  0.00    +0.000 A 
ATOM     36  C   UNL     1      -3.496  11.716  18.369  0.00  0.00    +0.000 A 
ENDBRANCH  30  31
ENDBRANCH   1  30
TORSDOF 6
ENDMDL
MODEL 8
REMARK VINA RESULT:      -6.0      2.348      7.221
REMARK  Name = 
REMARK  9 active torsions:
REMARK  status: ('A' for Active; 'I' for Inactive)
REMARK    1  A    between atoms: C_1  and  O_2
REMARK    2  A    between atoms: O_2  and  C_3
REMARK    3  A    between atoms: C_3  and  C_5
REMARK    4  A    between atoms: C_5  and  C_6
REMARK    5  A    between atoms: C_6  and  C_7
REMARK    6  A    between atoms: C_16  and  C_17
REMARK    7  A    between atoms: N_19  and  C_20
REMARK    8  A    between atoms: N_19  and  C_21
REMARK    9  A    between atoms: C_28  and  C_30
REMARK                            x       y       z     vdW  Elec       q    Type
REMARK                         _______ _______ _______ _____ _____    ______ ____
ROOT
ATOM      1  C   UNL     1      -0.510  10.731  19.843  0.00  0.00    +0.000 C 
ATOM      2  C   UNL     1      -0.946  12.259  20.005  0.00  0.00    +0.000 C 
ATOM      3  C   UNL     1      -1.308  12.770  21.346  0.00  0.00    +0.000 A 
ATOM      4  C   UNL     1      -2.444  13.292  21.985  0.00  0.00    +0.000 A 
ATOM      5  C   UNL     1      -1.998  14.224  22.935  0.00  0.00    +0.000 A 
ATOM      6  N   UNL     1      -0.612  14.148  22.944  0.00  0.00    +0.000 N 
ATOM      7  C   UNL     1      -0.217  13.293  21.965  0.00  0.00    +0.000 A 
ATOM      8  C   UNL     1       1.034  13.226  21.148  0.00  0.00    +0.000 C 
ATOM      9  C   UNL     1       0.422  13.033  19.717  0.00  0.00    +0.000 C 
ATOM     10  C   UNL     1       0.721  12.216  18.483  0.00  0.00    +0.000 C 
ATOM     11  N   UNL     1       0.617  10.854  18.848  0.00  0.00    +0.000 N 
ATOM     12  C   UNL     1       1.529   9.979  18.245  0.00  0.00    +0.000 C 
ATOM     13  O   UNL     1       2.164  10.389  17.248  0.00  0.00    +0.000 OA
ATOM     14  H   UNL     1      -0.013  14.821  23.405  0.00  0.00    +0.000 HD
ENDROOT
BRANCH  12  15
ATOM     15  C   UNL     1       1.923   8.674  18.761  0.00  0.00    +0.000 A 
ATOM     16  C   UNL     1       2.722   7.839  17.947  0.00  0.00    +0.000 A 
ATOM     17  C   UNL     1       3.170   6.575  18.398  0.00  0.00    +0.000 A 
ATOM     18  C   UNL     1       2.831   6.133  19.665  0.00  0.00    +0.000 A 
ATOM     19  C   UNL     1       2.074   6.964  20.497  0.00  0.00    +0.000 A 
ATOM     20  C   UNL     1       1.611   8.184  20.031  0.00  0.00    +0.000 A 
ENDBRANCH  12  15
BRANCH   5  21
ATOM     21  C   UNL     1      -2.804  15.266  23.564  0.00  0.00    +0.000 C 
ATOM     22  O   UNL     1      -3.227  15.099  24.711  0.00  0.00    +0.000 OA
ATOM     23  N   UNL     1      -3.157  16.414  22.842  0.00  0.00    +0.000 N 
ATOM     24  C   UNL     1      -2.474  16.939  21.668  0.00  0.00    +0.000 C 
ATOM     25  C   UNL     1      -4.117  17.326  23.448  0.00  0.00    +0.000 C 
ENDBRANCH   5  21
BRANCH   1  26
ATOM     26  C   UNL     1       0.108  10.212  21.180  0.00  0.00    +0.000 C 
ATOM     27  O   UNL     1       1.259  10.366  21.591  0.00  0.00    +0.000 OA
BRANCH  26  29
ATOM     28  C   UNL     1      -0.624   9.518  23.326  0.00  0.00    +0.000 C 
ATOM     29  O   UNL     1      -0.766   9.451  21.901  0.00  0.00    +0.000 OA
ENDBRANCH  26  29
ENDBRANCH   1  26
BRANCH   1  30
ATOM     30  C   UNL     1      -1.567   9.837  19.203  0.00  0.00    +0.000 C 
BRANCH  30  31
ATOM     31  C   UNL     1      -2.374  10.275  17.994  0.00  0.00    +0.000 A 
ATOM     32  C   UNL     1      -3.500  11.094  18.128  0.00  0.00    +0.000 A 
ATOM     33  C   UNL     1      -4.237  11.477  17.007  0.00  0.00    +0.000 A 
ATOM     34  C   UNL     1      -3.866  11.051  15.738  0.00  0.00    +0.000 A 
ATOM     35  C   UNL     1      -2.739  10.249  15.583  0.00  0.00    +0.000 A 
ATOM     36  C   UNL     1      -1.984   9.874  16.701  0.00  0.00    +0.000 A 
ENDBRANCH  30  31
ENDBRANCH   1  30
TORSDOF 6
ENDMDL
MODEL 9
REMARK VINA RESULT:      -5.9      3.477      5.212
REMARK  Name = 
REMARK  9 active torsions:
REMARK  status: ('A' for Active; 'I' for Inactive)
REMARK    1  A    between atoms: C_1  and  O_2
REMARK    2  A    between atoms: O_2  and  C_3
REMARK    3  A    between atoms: C_3  and  C_5
REMARK    4  A    between atoms: C_5  and  C_6
REMARK    5  A    between atoms: C_6  and  C_7
REMARK    6  A    between atoms: C_16  and  C_17
REMARK    7  A    between atoms: N_19  and  C_20
REMARK    8  A    between atoms: N_19  and  C_21
REMARK    9  A    between atoms: C_28  and  C_30
REMARK                            x       y       z     vdW  Elec       q    Type
REMARK                         _______ _______ _______ _____ _____    ______ ____
ROOT
ATOM      1  C   UNL     1      -3.877  13.929  21.467  0.00  0.00    +0.000 C 
ATOM      2  C   UNL     1      -2.923  12.668  21.237  0.00  0.00    +0.000 C 
ATOM      3  C   UNL     1      -1.613  12.864  20.576  0.00  0.00    +0.000 A 
ATOM      4  C   UNL     1      -0.978  12.453  19.394  0.00  0.00    +0.000 A 
ATOM      5  C   UNL     1       0.393  12.341  19.673  0.00  0.00    +0.000 A 
ATOM      6  N   UNL     1       0.574  12.811  20.968  0.00  0.00    +0.000 N 
ATOM      7  C   UNL     1      -0.644  13.092  21.502  0.00  0.00    +0.000 A 
ATOM      8  C   UNL     1      -1.139  13.079  22.913  0.00  0.00    +0.000 C 
ATOM      9  C   UNL     1      -2.486  12.298  22.729  0.00  0.00    +0.000 C 
ATOM     10  C   UNL     1      -3.900  12.387  23.253  0.00  0.00    +0.000 C 
ATOM     11  N   UNL     1      -4.422  13.635  22.843  0.00  0.00    +0.000 N 
ATOM     12  C   UNL     1      -5.270  14.280  23.750  0.00  0.00    +0.000 C 
ATOM     13  O   UNL     1      -5.725  13.613  24.705  0.00  0.00    +0.000 OA
ATOM     14  H   UNL     1       1.427  12.693  21.497  0.00  0.00    +0.000 HD
ENDROOT
BRANCH  12  15
ATOM     15  C   UNL     1      -5.560  15.709  23.774  0.00  0.00    +0.000 A 
ATOM     16  C   UNL     1      -4.862  16.525  24.693  0.00  0.00    +0.000 A 
ATOM     17  C   UNL     1      -5.069  17.924  24.746  0.00  0.00    +0.000 A 
ATOM     18  C   UNL     1      -5.967  18.524  23.882  0.00  0.00    +0.000 A 
ATOM     19  C   UNL     1      -6.638  17.735  22.940  0.00  0.00    +0.000 A 
ATOM     20  C   UNL     1      -6.453  16.362  22.922  0.00  0.00    +0.000 A 
ENDBRANCH  12  15
BRANCH   5  21
ATOM     21  C   UNL     1       1.378  11.607  18.884  0.00  0.00    +0.000 C 
ATOM     22  O   UNL     1       2.173  12.228  18.173  0.00  0.00    +0.000 OA
ATOM     23  N   UNL     1       1.369  10.205  18.876  0.00  0.00    +0.000 N 
ATOM     24  C   UNL     1       0.785   9.340  19.892  0.00  0.00    +0.000 C 
ATOM     25  C   UNL     1       2.241   9.528  17.927  0.00  0.00    +0.000 C 
ENDBRANCH   5  21
BRANCH   1  26
ATOM     26  C   UNL     1      -3.019  15.229  21.578  0.00  0.00    +0.000 C 
ATOM     27  O   UNL     1      -2.432  15.666  22.568  0.00  0.00    +0.000 OA
BRANCH  26  29
ATOM     28  C   UNL     1      -2.985  17.378  20.574  0.00  0.00    +0.000 C 
ATOM     29  O   UNL     1      -3.012  15.953  20.420  0.00  0.00    +0.000 OA
ENDBRANCH  26  29
ENDBRANCH   1  26
BRANCH   1  30
ATOM     30  C   UNL     1      -5.074  13.995  20.525  0.00  0.00    +0.000 C 
BRANCH  30  31
ATOM     31  C   UNL     1      -5.694  12.752  19.913  0.00  0.00    +0.000 A 
ATOM     32  C   UNL     1      -5.335  12.313  18.635  0.00  0.00    +0.000 A 
ATOM     33  C   UNL     1      -5.923  11.174  18.083  0.00  0.00    +0.000 A 
ATOM     34  C   UNL     1      -6.877  10.457  18.795  0.00  0.00    +0.000 A 
ATOM     35  C   UNL     1      -7.235  10.869  20.075  0.00  0.00    +0.000 A 
ATOM     36  C   UNL     1      -6.638  12.001  20.642  0.00  0.00    +0.000 A 
ENDBRANCH  30  31
ENDBRANCH   1  30
TORSDOF 6
ENDMDL
