MODEL 1
REMARK VINA RESULT:      -7.8      0.000      0.000
REMARK  Name = 
REMARK  5 active torsions:
REMARK  status: ('A' for Active; 'I' for Inactive)
REMARK    1  A    between atoms: C_1  and  C_2
REMARK    2  A    between atoms: C_2  and  O_3
REMARK    3  A    between atoms: O_3  and  C_4
REMARK    4  A    between atoms: C_4  and  C_6
REMARK    5  A    between atoms: C_13  and  C_14
REMARK                            x       y       z     vdW  Elec       q    Type
REMARK                         _______ _______ _______ _____ _____    ______ ____
ROOT
ATOM      1  C   UNL     1       6.094   5.709  16.625  0.00  0.00    +0.000 A 
ATOM      2  C   UNL     1       7.285   6.289  16.871  0.00  0.00    +0.000 A 
ATOM      3  N   UNL     1       7.975   6.236  18.076  0.00  0.00    +0.000 NA
ATOM      4  C   UNL     1       7.415   5.583  19.060  0.00  0.00    +0.000 A 
ATOM      5  N   UNL     1       8.016   5.491  20.289  0.00  0.00    +0.000 N 
ATOM      6  N   UNL     1       6.161   4.975  18.864  0.00  0.00    +0.000 N 
ATOM      7  N   UNL     1       5.460   4.328  19.830  0.00  0.00    +0.000 NA
ATOM      8  C   UNL     1       4.365   3.959  19.143  0.00  0.00    +0.000 A 
ATOM      9  N   UNL     1       4.334   4.374  17.837  0.00  0.00    +0.000 NA
ATOM     10  C   UNL     1       5.475   5.003  17.684  0.00  0.00    +0.000 A 
ATOM     11  H   UNL     1       8.723   6.194  20.468  0.00  0.00    +0.000 HD
ATOM     12  H   UNL     1       7.398   5.278  21.068  0.00  0.00    +0.000 HD
ENDROOT
BRANCH   8  13
ATOM     13  C   UNL     1       3.250   3.162  19.722  0.00  0.00    +0.000 C 
ATOM     14  C   UNL     1       2.451   3.926  20.778  0.00  0.00    +0.000 C 
ATOM     15  C   UNL     1       1.142   3.156  20.881  0.00  0.00    +0.000 C 
ATOM     16  C   UNL     1       0.908   2.544  19.502  0.00  0.00    +0.000 C 
ATOM     17  C   UNL     1       2.175   2.810  18.691  0.00  0.00    +0.000 C 
ENDBRANCH   8  13
BRANCH   1  18
ATOM     18  C   UNL     1       5.429   5.919  15.319  0.00  0.00    +0.000 C 
ATOM     19  O   UNL     1       5.010   7.002  14.937  0.00  0.00    +0.000 OA
BRANCH  18  20
ATOM     20  O   UNL     1       5.281   4.738  14.672  0.00  0.00    +0.000 OA
BRANCH  20  22
ATOM     21  C   UNL     1       6.016   3.526  12.749  0.00  0.00    +0.000 C 
ATOM     22  C   UNL     1       6.449   4.222  14.026  0.00  0.00    +0.000 C 
ENDBRANCH  20  22
ENDBRANCH  18  20
ENDBRANCH   1  18
TORSDOF 4
ENDMDL
MODEL 2
REMARK VINA RESULT:      -7.4      2.444      3.891
REMARK  Name = 
REMARK  5 active torsions:
REMARK  status: ('A' for Active; 'I' for Inactive)
REMARK    1  A    between atoms: C_1  and  C_2
REMARK    2  A    between atoms: C_2  and  O_3
REMARK    3  A    between atoms: O_3  and  C_4
REMARK    4  A    between atoms: C_4  and  C_6
REMARK    5  A    between atoms: C_13  and  C_14
REMARK                            x       y       z     vdW  Elec       q    Type
REMARK                         _______ _______ _______ _____ _____    ______ ____
ROOT
ATOM      1  C   UNL     1       7.000   5.305  17.730  0.00  0.00    +0.000 A 
ATOM      2  C   UNL     1       7.801   5.061  16.674  0.00  0.00    +0.000 A 
ATOM      3  N   UNL     1       7.407   4.463  15.484  0.00  0.00    +0.000 NA
ATOM      4  C   UNL     1       6.157   4.090  15.383  0.00  0.00    +0.000 A 
ATOM      5  N   UNL     1       5.684   3.480  14.251  0.00  0.00    +0.000 N 
ATOM      6  N   UNL     1       5.281   4.302  16.465  0.00  0.00    +0.000 N 
ATOM      7  N   UNL     1       3.986   3.900  16.496  0.00  0.00    +0.000 NA
ATOM      8  C   UNL     1       3.619   4.324  17.718  0.00  0.00    +0.000 A 
ATOM      9  N   UNL     1       4.615   4.920  18.447  0.00  0.00    +0.000 NA
ATOM     10  C   UNL     1       5.647   4.901  17.637  0.00  0.00    +0.000 A 
ATOM     11  H   UNL     1       6.397   3.067  13.663  0.00  0.00    +0.000 HD
ATOM     12  H   UNL     1       4.835   2.930  14.368  0.00  0.00    +0.000 HD
ENDROOT
BRANCH   8  13
ATOM     13  C   UNL     1       2.247   4.176  18.271  0.00  0.00    +0.000 C 
ATOM     14  C   UNL     1       1.802   2.719  18.393  0.00  0.00    +0.000 C 
ATOM     15  C   UNL     1       0.639   2.766  19.375  0.00  0.00    +0.000 C 
ATOM     16  C   UNL     1       0.920   3.949  20.297  0.00  0.00    +0.000 C 
ATOM     17  C   UNL     1       2.131   4.674  19.715  0.00  0.00    +0.000 C 
ENDBRANCH   8  13
BRANCH   1  18
ATOM     18  C   UNL     1       7.573   5.870  18.972  0.00  0.00    +0.000 C 
ATOM     19  O   UNL     1       7.341   5.429  20.089  0.00  0.00    +0.000 OA
BRANCH  18  20
ATOM     20  O   UNL     1       8.299   6.979  18.694  0.00  0.00    +0.000 OA
BRANCH  20  22
ATOM     21  C   UNL     1       8.340   9.289  18.086  0.00  0.00    +0.000 C 
ATOM     22  C   UNL     1       7.670   7.948  17.848  0.00  0.00    +0.000 C 
ENDBRANCH  20  22
ENDBRANCH  18  20
ENDBRANCH   1  18
TORSDOF 4
ENDMDL
MODEL 3
REMARK VINA RESULT:      -7.2      1.998      5.842
REMARK  Name = 
REMARK  5 active torsions:
REMARK  status: ('A' for Active; 'I' for Inactive)
REMARK    1  A    between atoms: C_1  and  C_2
REMARK    2  A    between atoms: C_2  and  O_3
REMARK    3  A    between atoms: O_3  and  C_4
REMARK    4  A    between atoms: C_4  and  C_6
REMARK    5  A    between atoms: C_13  and  C_14
REMARK                            x       y       z     vdW  Elec       q    Type
REMARK                         _______ _______ _______ _____ _____    ______ ____
ROOT
ATOM      1  C   UNL     1       3.884   4.313  18.216  0.00  0.00    +0.000 A 
ATOM      2  C   UNL     1       4.234   4.837  19.407  0.00  0.00    +0.000 A 
ATOM      3  N   UNL     1       5.472   5.386  19.714  0.00  0.00    +0.000 NA
ATOM      4  C   UNL     1       6.382   5.379  18.775  0.00  0.00    +0.000 A 
ATOM      5  N   UNL     1       7.636   5.887  18.994  0.00  0.00    +0.000 N 
ATOM      6  N   UNL     1       6.077   4.825  17.518  0.00  0.00    +0.000 N 
ATOM      7  N   UNL     1       6.961   4.707  16.494  0.00  0.00    +0.000 NA
ATOM      8  C   UNL     1       6.189   4.121  15.562  0.00  0.00    +0.000 A 
ATOM      9  N   UNL     1       4.910   3.836  15.964  0.00  0.00    +0.000 NA
ATOM     10  C   UNL     1       4.861   4.294  17.192  0.00  0.00    +0.000 A 
ATOM     11  H   UNL     1       7.899   5.963  19.969  0.00  0.00    +0.000 HD
ATOM     12  H   UNL     1       8.364   5.550  18.367  0.00  0.00    +0.000 HD
ENDROOT
BRANCH   8  13
ATOM     13  C   UNL     1       6.653   3.789  14.188  0.00  0.00    +0.000 C 
ATOM     14  C   UNL     1       5.505   3.542  13.210  0.00  0.00    +0.000 C 
ATOM     15  C   UNL     1       6.147   3.694  11.838  0.00  0.00    +0.000 C 
ATOM     16  C   UNL     1       7.290   4.689  12.020  0.00  0.00    +0.000 C 
ATOM     17  C   UNL     1       7.407   4.943  13.521  0.00  0.00    +0.000 C 
ENDBRANCH   8  13
BRANCH   1  18
ATOM     18  C   UNL     1       2.556   3.681  18.051  0.00  0.00    +0.000 C 
ATOM     19  O   UNL     1       1.710   4.074  17.261  0.00  0.00    +0.000 OA
BRANCH  18  20
ATOM     20  O   UNL     1       2.394   2.683  18.954  0.00  0.00    +0.000 OA
BRANCH  20  22
ATOM     21  C   UNL     1       1.262   3.164  21.002  0.00  0.00    +0.000 C 
ATOM     22  C   UNL     1       1.116   2.615  19.595  0.00  0.00    +0.000 C 
ENDBRANCH  20  22
ENDBRANCH  18  20
ENDBRANCH   1  18
TORSDOF 4
ENDMDL
MODEL 4
REMARK VINA RESULT:      -7.2      0.989      1.124
REMARK  Name = 
REMARK  5 active torsions:
REMARK  status: ('A' for Active; 'I' for Inactive)
REMARK    1  A    between atoms: C_1  and  C_2
REMARK    2  A    between atoms: C_2  and  O_3
REMARK    3  A    between atoms: O_3  and  C_4
REMARK    4  A    between atoms: C_4  and  C_6
REMARK    5  A    between atoms: C_13  and  C_14
REMARK                            x       y       z     vdW  Elec       q    Type
REMARK                         _______ _______ _______ _____ _____    ______ ____
ROOT
ATOM      1  C   UNL     1       6.216   4.560  16.017  0.00  0.00    +0.000 A 
ATOM      2  C   UNL     1       7.344   5.270  16.217  0.00  0.00    +0.000 A 
ATOM      3  N   UNL     1       7.876   5.610  17.454  0.00  0.00    +0.000 NA
ATOM      4  C   UNL     1       7.219   5.222  18.517  0.00  0.00    +0.000 A 
ATOM      5  N   UNL     1       7.662   5.524  19.778  0.00  0.00    +0.000 N 
ATOM      6  N   UNL     1       6.023   4.495  18.366  0.00  0.00    +0.000 N 
ATOM      7  N   UNL     1       5.230   4.098  19.394  0.00  0.00    +0.000 NA
ATOM      8  C   UNL     1       4.246   3.473  18.724  0.00  0.00    +0.000 A 
ATOM      9  N   UNL     1       4.366   3.499  17.359  0.00  0.00    +0.000 NA
ATOM     10  C   UNL     1       5.493   4.139  17.159  0.00  0.00    +0.000 A 
ATOM     11  H   UNL     1       8.313   6.299  19.825  0.00  0.00    +0.000 HD
ATOM     12  H   UNL     1       6.957   5.496  20.512  0.00  0.00    +0.000 HD
ENDROOT
BRANCH   8  13
ATOM     13  C   UNL     1       3.097   2.794  19.380  0.00  0.00    +0.000 C 
ATOM     14  C   UNL     1       2.615   3.512  20.641  0.00  0.00    +0.000 C 
ATOM     15  C   UNL     1       1.213   2.963  20.868  0.00  0.00    +0.000 C 
ATOM     16  C   UNL     1       0.673   2.612  19.484  0.00  0.00    +0.000 C 
ATOM     17  C   UNL     1       1.837   2.783  18.510  0.00  0.00    +0.000 C 
ENDBRANCH   8  13
BRANCH   1  18
ATOM     18  C   UNL     1       5.716   4.345  14.641  0.00  0.00    +0.000 C 
ATOM     19  O   UNL     1       4.621   4.723  14.249  0.00  0.00    +0.000 OA
BRANCH  18  20
ATOM     20  O   UNL     1       6.599   3.603  13.931  0.00  0.00    +0.000 OA
BRANCH  20  22
ATOM     21  C   UNL     1       5.810   2.656  11.883  0.00  0.00    +0.000 C 
ATOM     22  C   UNL     1       6.588   3.798  12.512  0.00  0.00    +0.000 C 
ENDBRANCH  20  22
ENDBRANCH  18  20
ENDBRANCH   1  18
TORSDOF 4
ENDMDL
MODEL 5
REMARK VINA RESULT:      -7.1      2.055      5.870
REMARK  Name = 
REMARK  5 active torsions:
REMARK  status: ('A' for Active; 'I' for Inactive)
REMARK    1  A    between atoms: C_1  and  C_2
REMARK    2  A    between atoms: C_2  and  O_3
REMARK    3  A    between atoms: O_3  and  C_4
REMARK    4  A    between atoms: C_4  and  C_6
REMARK    5  A    between atoms: C_13  and  C_14
REMARK                            x       y       z     vdW  Elec       q    Type
REMARK                         _______ _______ _______ _____ _____    ______ ____
ROOT
ATOM      1  C   UNL     1       4.508   3.848  18.472  0.00  0.00    +0.000 A 
ATOM      2  C   UNL     1       5.049   4.264  19.634  0.00  0.00    +0.000 A 
ATOM      3  N   UNL     1       6.156   5.093  19.758  0.00  0.00    +0.000 NA
ATOM      4  C   UNL     1       6.734   5.493  18.656  0.00  0.00    +0.000 A 
ATOM      5  N   UNL     1       7.841   6.301  18.683  0.00  0.00    +0.000 N 
ATOM      6  N   UNL     1       6.223   5.072  17.413  0.00  0.00    +0.000 N 
ATOM      7  N   UNL     1       6.779   5.372  16.212  0.00  0.00    +0.000 NA
ATOM      8  C   UNL     1       5.936   4.737  15.379  0.00  0.00    +0.000 A 
ATOM      9  N   UNL     1       4.931   4.038  15.994  0.00  0.00    +0.000 NA
ATOM     10  C   UNL     1       5.128   4.269  17.271  0.00  0.00    +0.000 A 
ATOM     11  H   UNL     1       8.344   6.301  19.562  0.00  0.00    +0.000 HD
ATOM     12  H   UNL     1       8.417   6.289  17.844  0.00  0.00    +0.000 HD
ENDROOT
BRANCH   8  13
ATOM     13  C   UNL     1       6.053   4.768  13.897  0.00  0.00    +0.000 C 
ATOM     14  C   UNL     1       7.491   4.952  13.412  0.00  0.00    +0.000 C 
ATOM     15  C   UNL     1       7.455   4.492  11.961  0.00  0.00    +0.000 C 
ATOM     16  C   UNL     1       6.358   3.433  11.886  0.00  0.00    +0.000 C 
ATOM     17  C   UNL     1       5.655   3.442  13.242  0.00  0.00    +0.000 C 
ENDBRANCH   8  13
BRANCH   1  18
ATOM     18  C   UNL     1       3.378   2.893  18.485  0.00  0.00    +0.000 C 
ATOM     19  O   UNL     1       3.512   1.681  18.392  0.00  0.00    +0.000 OA
BRANCH  18  20
ATOM     20  O   UNL     1       2.199   3.559  18.524  0.00  0.00    +0.000 OA
BRANCH  20  22
ATOM     21  C   UNL     1       1.093   3.306  20.626  0.00  0.00    +0.000 C 
ATOM     22  C   UNL     1       1.115   2.883  19.169  0.00  0.00    +0.000 C 
ENDBRANCH  20  22
ENDBRANCH  18  20
ENDBRANCH   1  18
TORSDOF 4
ENDMDL
MODEL 6
REMARK VINA RESULT:      -7.1      3.840      5.513
REMARK  Name = 
REMARK  5 active torsions:
REMARK  status: ('A' for Active; 'I' for Inactive)
REMARK    1  A    between atoms: C_1  and  C_2
REMARK    2  A    between atoms: C_2  and  O_3
REMARK    3  A    between atoms: O_3  and  C_4
REMARK    4  A    between atoms: C_4  and  C_6
REMARK    5  A    between atoms: C_13  and  C_14
REMARK                            x       y       z     vdW  Elec       q    Type
REMARK                         _______ _______ _______ _____ _____    ______ ____
ROOT
ATOM      1  C   UNL     1       3.156   3.887  17.836  0.00  0.00    +0.000 A 
ATOM      2  C   UNL     1       4.136   3.355  17.080  0.00  0.00    +0.000 A 
ATOM      3  N   UNL     1       5.122   4.072  16.415  0.00  0.00    +0.000 NA
ATOM      4  C   UNL     1       5.087   5.376  16.515  0.00  0.00    +0.000 A 
ATOM      5  N   UNL     1       6.011   6.164  15.880  0.00  0.00    +0.000 N 
ATOM      6  N   UNL     1       4.072   5.986  17.275  0.00  0.00    +0.000 N 
ATOM      7  N   UNL     1       3.903   7.327  17.396  0.00  0.00    +0.000 NA
ATOM      8  C   UNL     1       2.821   7.373  18.193  0.00  0.00    +0.000 A 
ATOM      9  N   UNL     1       2.297   6.152  18.530  0.00  0.00    +0.000 NA
ATOM     10  C   UNL     1       3.104   5.297  17.949  0.00  0.00    +0.000 A 
ATOM     11  H   UNL     1       6.494   5.716  15.110  0.00  0.00    +0.000 HD
ATOM     12  H   UNL     1       5.733   7.130  15.723  0.00  0.00    +0.000 HD
ENDROOT
BRANCH   8  13
ATOM     13  C   UNL     1       2.209   8.634  18.691  0.00  0.00    +0.000 C 
ATOM     14  C   UNL     1       1.097   9.161  17.784  0.00  0.00    +0.000 C 
ATOM     15  C   UNL     1       0.322  10.127  18.670  0.00  0.00    +0.000 C 
ATOM     16  C   UNL     1       0.471   9.597  20.094  0.00  0.00    +0.000 C 
ATOM     17  C   UNL     1       1.482   8.455  20.027  0.00  0.00    +0.000 C 
ENDBRANCH   8  13
BRANCH   1  18
ATOM     18  C   UNL     1       2.117   3.009  18.420  0.00  0.00    +0.000 C 
ATOM     19  O   UNL     1       0.937   3.049  18.102  0.00  0.00    +0.000 OA
BRANCH  18  20
ATOM     20  O   UNL     1       2.648   2.238  19.399  0.00  0.00    +0.000 OA
BRANCH  20  22
ATOM     21  C   UNL     1       1.624   2.735  21.500  0.00  0.00    +0.000 C 
ATOM     22  C   UNL     1       2.877   2.885  20.655  0.00  0.00    +0.000 C 
ENDBRANCH  20  22
ENDBRANCH  18  20
ENDBRANCH   1  18
TORSDOF 4
ENDMDL
MODEL 7
REMARK VINA RESULT:      -7.0      1.252      1.683
REMARK  Name = 
REMARK  5 active torsions:
REMARK  status: ('A' for Active; 'I' for Inactive)
REMARK    1  A    between atoms: C_1  and  C_2
REMARK    2  A    between atoms: C_2  and  O_3
REMARK    3  A    between atoms: O_3  and  C_4
REMARK    4  A    between atoms: C_4  and  C_6
REMARK    5  A    between atoms: C_13  and  C_14
REMARK                            x       y       z     vdW  Elec       q    Type
REMARK                         _______ _______ _______ _____ _____    ______ ____
ROOT
ATOM      1  C   UNL     1       6.120   4.373  15.772  0.00  0.00    +0.000 A 
ATOM      2  C   UNL     1       7.398   4.694  16.051  0.00  0.00    +0.000 A 
ATOM      3  N   UNL     1       7.900   4.982  17.314  0.00  0.00    +0.000 NA
ATOM      4  C   UNL     1       7.059   4.958  18.315  0.00  0.00    +0.000 A 
ATOM      5  N   UNL     1       7.463   5.243  19.593  0.00  0.00    +0.000 N 
ATOM      6  N   UNL     1       5.707   4.649  18.076  0.00  0.00    +0.000 N 
ATOM      7  N   UNL     1       4.737   4.657  19.027  0.00  0.00    +0.000 NA
ATOM      8  C   UNL     1       3.664   4.314  18.293  0.00  0.00    +0.000 A 
ATOM      9  N   UNL     1       3.907   4.140  16.956  0.00  0.00    +0.000 NA
ATOM     10  C   UNL     1       5.198   4.348  16.845  0.00  0.00    +0.000 A 
ATOM     11  H   UNL     1       8.331   5.762  19.657  0.00  0.00    +0.000 HD
ATOM     12  H   UNL     1       6.728   5.533  20.234  0.00  0.00    +0.000 HD
ENDROOT
BRANCH   8  13
ATOM     13  C   UNL     1       2.299   4.130  18.854  0.00  0.00    +0.000 C 
ATOM     14  C   UNL     1       1.629   2.836  18.391  0.00  0.00    +0.000 C 
ATOM     15  C   UNL     1       0.512   2.613  19.402  0.00  0.00    +0.000 C 
ATOM     16  C   UNL     1       1.002   3.235  20.707  0.00  0.00    +0.000 C 
ATOM     17  C   UNL     1       2.300   3.969  20.377  0.00  0.00    +0.000 C 
ENDBRANCH   8  13
BRANCH   1  18
ATOM     18  C   UNL     1       5.702   4.174  14.366  0.00  0.00    +0.000 C 
ATOM     19  O   UNL     1       4.598   4.479  13.936  0.00  0.00    +0.000 OA
BRANCH  18  20
ATOM     20  O   UNL     1       6.673   3.534  13.672  0.00  0.00    +0.000 OA
BRANCH  20  22
ATOM     21  C   UNL     1       5.908   2.365  11.734  0.00  0.00    +0.000 C 
ATOM     22  C   UNL     1       6.590   3.621  12.246  0.00  0.00    +0.000 C 
ENDBRANCH  20  22
ENDBRANCH  18  20
ENDBRANCH   1  18
TORSDOF 4
ENDMDL
MODEL 8
REMARK VINA RESULT:      -6.9      2.930      6.085
REMARK  Name = 
REMARK  5 active torsions:
REMARK  status: ('A' for Active; 'I' for Inactive)
REMARK    1  A    between atoms: C_1  and  C_2
REMARK    2  A    between atoms: C_2  and  O_3
REMARK    3  A    between atoms: O_3  and  C_4
REMARK    4  A    between atoms: C_4  and  C_6
REMARK    5  A    between atoms: C_13  and  C_14
REMARK                            x       y       z     vdW  Elec       q    Type
REMARK                         _______ _______ _______ _____ _____    ______ ____
ROOT
ATOM      1  C   UNL     1       3.947   3.952  18.828  0.00  0.00    +0.000 A 
ATOM      2  C   UNL     1       3.365   4.990  19.460  0.00  0.00    +0.000 A 
ATOM      3  N   UNL     1       3.295   6.291  18.978  0.00  0.00    +0.000 NA
ATOM      4  C   UNL     1       3.854   6.534  17.821  0.00  0.00    +0.000 A 
ATOM      5  N   UNL     1       3.846   7.791  17.276  0.00  0.00    +0.000 N 
ATOM      6  N   UNL     1       4.495   5.490  17.128  0.00  0.00    +0.000 N 
ATOM      7  N   UNL     1       5.161   5.642  15.955  0.00  0.00    +0.000 NA
ATOM      8  C   UNL     1       5.579   4.382  15.739  0.00  0.00    +0.000 A 
ATOM      9  N   UNL     1       5.248   3.485  16.721  0.00  0.00    +0.000 NA
ATOM     10  C   UNL     1       4.561   4.203  17.578  0.00  0.00    +0.000 A 
ATOM     11  H   UNL     1       3.675   8.540  17.937  0.00  0.00    +0.000 HD
ATOM     12  H   UNL     1       4.563   7.974  16.578  0.00  0.00    +0.000 HD
ENDROOT
BRANCH   8  13
ATOM     13  C   UNL     1       6.345   3.956  14.537  0.00  0.00    +0.000 C 
ATOM     14  C   UNL     1       5.452   3.617  13.344  0.00  0.00    +0.000 C 
ATOM     15  C   UNL     1       6.392   3.676  12.148  0.00  0.00    +0.000 C 
ATOM     16  C   UNL     1       7.464   4.700  12.510  0.00  0.00    +0.000 C 
ATOM     17  C   UNL     1       7.234   5.068  13.974  0.00  0.00    +0.000 C 
ENDBRANCH   8  13
BRANCH   1  18
ATOM     18  C   UNL     1       4.027   2.634  19.497  0.00  0.00    +0.000 C 
ATOM     19  O   UNL     1       4.953   2.293  20.220  0.00  0.00    +0.000 OA
BRANCH  18  20
ATOM     20  O   UNL     1       2.987   1.852  19.121  0.00  0.00    +0.000 OA
BRANCH  20  22
ATOM     21  C   UNL     1       0.693   2.407  18.749  0.00  0.00    +0.000 C 
ATOM     22  C   UNL     1       1.746   2.087  19.795  0.00  0.00    +0.000 C 
ENDBRANCH  20  22
ENDBRANCH  18  20
ENDBRANCH   1  18
TORSDOF 4
ENDMDL
MODEL 9
REMARK VINA RESULT:      -6.8      3.573      4.916
REMARK  Name = 
REMARK  5 active torsions:
REMARK  status: ('A' for Active; 'I' for Inactive)
REMARK    1  A    between atoms: C_1  and  C_2
REMARK    2  A    between atoms: C_2  and  O_3
REMARK    3  A    between atoms: O_3  and  C_4
REMARK    4  A    between atoms: C_4  and  C_6
REMARK    5  A    between atoms: C_13  and  C_14
REMARK                            x       y       z     vdW  Elec       q    Type
REMARK                         _______ _______ _______ _____ _____    ______ ____
ROOT
ATOM      1  C   UNL     1       4.180   4.019  18.783  0.00  0.00    +0.000 A 
ATOM      2  C   UNL     1       3.863   2.736  19.048  0.00  0.00    +0.000 A 
ATOM      3  N   UNL     1       2.762   2.312  19.780  0.00  0.00    +0.000 NA
ATOM      4  C   UNL     1       1.974   3.235  20.269  0.00  0.00    +0.000 A 
ATOM      5  N   UNL     1       0.872   2.909  21.016  0.00  0.00    +0.000 N 
ATOM      6  N   UNL     1       2.269   4.592  20.039  0.00  0.00    +0.000 N 
ATOM      7  N   UNL     1       1.560   5.630  20.550  0.00  0.00    +0.000 NA
ATOM      8  C   UNL     1       2.247   6.673  20.053  0.00  0.00    +0.000 A 
ATOM      9  N   UNL     1       3.350   6.339  19.310  0.00  0.00    +0.000 NA
ATOM     10  C   UNL     1       3.338   5.027  19.310  0.00  0.00    +0.000 A 
ATOM     11  H   UNL     1       0.891   1.978  21.415  0.00  0.00    +0.000 HD
ATOM     12  H   UNL     1       0.519   3.643  21.625  0.00  0.00    +0.000 HD
ENDROOT
BRANCH   8  13
ATOM     13  C   UNL     1       1.871   8.095  20.271  0.00  0.00    +0.000 C 
ATOM     14  C   UNL     1       1.449   8.808  18.986  0.00  0.00    +0.000 C 
ATOM     15  C   UNL     1       0.684  10.031  19.474  0.00  0.00    +0.000 C 
ATOM     16  C   UNL     1       0.059   9.627  20.807  0.00  0.00    +0.000 C 
ATOM     17  C   UNL     1       0.631   8.254  21.154  0.00  0.00    +0.000 C 
ENDBRANCH   8  13
BRANCH   1  18
ATOM     18  C   UNL     1       5.434   4.333  18.062  0.00  0.00    +0.000 C 
ATOM     19  O   UNL     1       6.530   4.392  18.600  0.00  0.00    +0.000 OA
BRANCH  18  20
ATOM     20  O   UNL     1       5.171   4.627  16.766  0.00  0.00    +0.000 OA
BRANCH  20  22
ATOM     21  C   UNL     1       6.676   4.689  14.912  0.00  0.00    +0.000 C 
ATOM     22  C   UNL     1       5.813   3.801  15.789  0.00  0.00    +0.000 C 
ENDBRANCH  20  22
ENDBRANCH  18  20
ENDBRANCH   1  18
TORSDOF 4
ENDMDL
