MODEL 1
REMARK VINA RESULT:      -7.8      0.000      0.000
REMARK  Name = 
REMARK  3 active torsions:
REMARK  status: ('A' for Active; 'I' for Inactive)
REMARK    1  A    between atoms: C_5  and  C_6
REMARK    2  A    between atoms: C_6  and  N_7
REMARK    3  A    between atoms: C_11  and  C_12
REMARK                            x       y       z     vdW  Elec       q    Type
REMARK                         _______ _______ _______ _____ _____    ______ ____
ROOT
ATOM      1  N   UNL     1       4.152   4.127  18.085  0.00  0.00    +0.000 NA
ATOM      2  C   UNL     1       4.278   3.207  19.217  0.00  0.00    +0.000 C 
ATOM      3  C   UNL     1       3.007   3.089  20.055  0.00  0.00    +0.000 C 
ATOM      4  C   UNL     1       2.536   4.459  20.519  0.00  0.00    +0.000 C 
ATOM      5  C   UNL     1       2.295   5.370  19.312  0.00  0.00    +0.000 C 
ATOM      6  C   UNL     1       3.546   5.425  18.400  0.00  0.00    +0.000 C 
ENDROOT
BRANCH   5   7
ATOM      7  C   UNL     1       1.913   6.757  19.766  0.00  0.00    +0.000 A 
ATOM      8  C   UNL     1       1.896   7.954  19.069  0.00  0.00    +0.000 A 
ATOM      9  C   UNL     1       1.389   8.953  19.929  0.00  0.00    +0.000 A 
ATOM     10  N   UNL     1       1.153  10.260  19.668  0.00  0.00    +0.000 NA
ATOM     11  C   UNL     1       0.636  10.954  20.703  0.00  0.00    +0.000 A 
ATOM     12  C   UNL     1       0.355  10.434  21.963  0.00  0.00    +0.000 A 
ATOM     13  C   UNL     1       0.610   9.089  22.224  0.00  0.00    +0.000 A 
ATOM     14  C   UNL     1       1.134   8.356  21.161  0.00  0.00    +0.000 A 
ATOM     15  N   UNL     1       1.481   7.029  21.046  0.00  0.00    +0.000 N 
ATOM     16  H   UNL     1       1.402   6.350  21.791  0.00  0.00    +0.000 HD
ENDBRANCH   5   7
BRANCH   1  17
ATOM     17  C   UNL     1       5.404   4.263  17.312  0.00  0.00    +0.000 C 
BRANCH  17  22
ATOM     18  F   UNL     1       8.977   8.422  18.762  0.00  0.00    +0.000 F 
ATOM     19  C   UNL     1       8.126   7.445  18.417  0.00  0.00    +0.000 A 
ATOM     20  C   UNL     1       8.053   6.294  19.189  0.00  0.00    +0.000 A 
ATOM     21  C   UNL     1       7.176   5.270  18.822  0.00  0.00    +0.000 A 
ATOM     22  C   UNL     1       6.350   5.396  17.690  0.00  0.00    +0.000 A 
ATOM     23  C   UNL     1       6.443   6.573  16.925  0.00  0.00    +0.000 A 
ATOM     24  C   UNL     1       7.331   7.594  17.289  0.00  0.00    +0.000 A 
ENDBRANCH  17  22
ENDBRANCH   1  17
TORSDOF 3
ENDMDL
MODEL 2
REMARK VINA RESULT:      -7.7      0.174      1.020
REMARK  Name = 
REMARK  3 active torsions:
REMARK  status: ('A' for Active; 'I' for Inactive)
REMARK    1  A    between atoms: C_5  and  C_6
REMARK    2  A    between atoms: C_6  and  N_7
REMARK    3  A    between atoms: C_11  and  C_12
REMARK                            x       y       z     vdW  Elec       q    Type
REMARK                         _______ _______ _______ _____ _____    ______ ____
ROOT
ATOM      1  N   UNL     1       4.030   4.099  18.265  0.00  0.00    +0.000 NA
ATOM      2  C   UNL     1       4.225   3.238  19.433  0.00  0.00    +0.000 C 
ATOM      3  C   UNL     1       2.997   3.146  20.337  0.00  0.00    +0.000 C 
ATOM      4  C   UNL     1       2.529   4.532  20.756  0.00  0.00    +0.000 C 
ATOM      5  C   UNL     1       2.217   5.379  19.519  0.00  0.00    +0.000 C 
ATOM      6  C   UNL     1       3.422   5.404  18.545  0.00  0.00    +0.000 C 
ENDROOT
BRANCH   5   7
ATOM      7  C   UNL     1       1.838   6.782  19.923  0.00  0.00    +0.000 A 
ATOM      8  C   UNL     1       1.830   7.955  19.187  0.00  0.00    +0.000 A 
ATOM      9  C   UNL     1       1.322   8.984  20.008  0.00  0.00    +0.000 A 
ATOM     10  N   UNL     1       1.092  10.283  19.702  0.00  0.00    +0.000 NA
ATOM     11  C   UNL     1       0.571  11.013  20.709  0.00  0.00    +0.000 A 
ATOM     12  C   UNL     1       0.278  10.536  21.984  0.00  0.00    +0.000 A 
ATOM     13  C   UNL     1       0.526   9.200  22.292  0.00  0.00    +0.000 A 
ATOM     14  C   UNL     1       1.055   8.430  21.258  0.00  0.00    +0.000 A 
ATOM     15  N   UNL     1       1.398   7.099  21.190  0.00  0.00    +0.000 N 
ATOM     16  H   UNL     1       1.310   6.446  21.957  0.00  0.00    +0.000 HD
ENDBRANCH   5   7
BRANCH   1  17
ATOM     17  C   UNL     1       5.242   4.212  17.426  0.00  0.00    +0.000 C 
BRANCH  17  22
ATOM     18  F   UNL     1       8.906   8.360  18.662  0.00  0.00    +0.000 F 
ATOM     19  C   UNL     1       8.047   7.374  18.372  0.00  0.00    +0.000 A 
ATOM     20  C   UNL     1       7.165   7.522  17.310  0.00  0.00    +0.000 A 
ATOM     21  C   UNL     1       6.260   6.499  17.015  0.00  0.00    +0.000 A 
ATOM     22  C   UNL     1       6.241   5.311  17.768  0.00  0.00    +0.000 A 
ATOM     23  C   UNL     1       7.145   5.186  18.839  0.00  0.00    +0.000 A 
ATOM     24  C   UNL     1       8.044   6.217  19.139  0.00  0.00    +0.000 A 
ENDBRANCH  17  22
ENDBRANCH   1  17
TORSDOF 3
ENDMDL
MODEL 3
REMARK VINA RESULT:      -7.6      2.995      3.647
REMARK  Name = 
REMARK  3 active torsions:
REMARK  status: ('A' for Active; 'I' for Inactive)
REMARK    1  A    between atoms: C_5  and  C_6
REMARK    2  A    between atoms: C_6  and  N_7
REMARK    3  A    between atoms: C_11  and  C_12
REMARK                            x       y       z     vdW  Elec       q    Type
REMARK                         _______ _______ _______ _____ _____    ______ ____
ROOT
ATOM      1  N   UNL     1       5.226   5.337  16.962  0.00  0.00    +0.000 NA
ATOM      2  C   UNL     1       5.839   4.551  18.034  0.00  0.00    +0.000 C 
ATOM      3  C   UNL     1       4.837   4.040  19.068  0.00  0.00    +0.000 C 
ATOM      4  C   UNL     1       4.015   5.186  19.637  0.00  0.00    +0.000 C 
ATOM      5  C   UNL     1       3.287   5.923  18.509  0.00  0.00    +0.000 C 
ATOM      6  C   UNL     1       4.278   6.366  17.404  0.00  0.00    +0.000 C 
ENDROOT
BRANCH   5   7
ATOM      7  C   UNL     1       2.539   7.115  19.054  0.00  0.00    +0.000 A 
ATOM      8  C   UNL     1       2.101   8.264  18.418  0.00  0.00    +0.000 A 
ATOM      9  C   UNL     1       1.387   9.039  19.358  0.00  0.00    +0.000 A 
ATOM     10  N   UNL     1       0.743  10.216  19.177  0.00  0.00    +0.000 NA
ATOM     11  C   UNL     1       0.127  10.693  20.278  0.00  0.00    +0.000 A 
ATOM     12  C   UNL     1       0.122  10.082  21.529  0.00  0.00    +0.000 A 
ATOM     13  C   UNL     1       0.795   8.875  21.707  0.00  0.00    +0.000 A 
ATOM     14  C   UNL     1       1.428   8.364  20.575  0.00  0.00    +0.000 A 
ATOM     15  N   UNL     1       2.152   7.211  20.373  0.00  0.00    +0.000 N 
ATOM     16  H   UNL     1       2.345   6.524  21.089  0.00  0.00    +0.000 HD
ENDBRANCH   5   7
BRANCH   1  17
ATOM     17  C   UNL     1       6.214   5.862  15.996  0.00  0.00    +0.000 C 
BRANCH  17  22
ATOM     18  F   UNL     1       6.851   2.990  11.147  0.00  0.00    +0.000 F 
ATOM     19  C   UNL     1       6.709   3.668  12.294  0.00  0.00    +0.000 A 
ATOM     20  C   UNL     1       5.610   3.423  13.106  0.00  0.00    +0.000 A 
ATOM     21  C   UNL     1       5.456   4.139  14.296  0.00  0.00    +0.000 A 
ATOM     22  C   UNL     1       6.409   5.094  14.694  0.00  0.00    +0.000 A 
ATOM     23  C   UNL     1       7.514   5.324  13.854  0.00  0.00    +0.000 A 
ATOM     24  C   UNL     1       7.661   4.612  12.656  0.00  0.00    +0.000 A 
ENDBRANCH  17  22
ENDBRANCH   1  17
TORSDOF 3
ENDMDL
MODEL 4
REMARK VINA RESULT:      -7.6      2.281      2.868
REMARK  Name = 
REMARK  3 active torsions:
REMARK  status: ('A' for Active; 'I' for Inactive)
REMARK    1  A    between atoms: C_5  and  C_6
REMARK    2  A    between atoms: C_6  and  N_7
REMARK    3  A    between atoms: C_11  and  C_12
REMARK                            x       y       z     vdW  Elec       q    Type
REMARK                         _______ _______ _______ _____ _____    ______ ____
ROOT
ATOM      1  N   UNL     1       4.725   4.431  18.253  0.00  0.00    +0.000 NA
ATOM      2  C   UNL     1       4.693   3.471  19.358  0.00  0.00    +0.000 C 
ATOM      3  C   UNL     1       3.303   3.276  19.960  0.00  0.00    +0.000 C 
ATOM      4  C   UNL     1       2.704   4.610  20.381  0.00  0.00    +0.000 C 
ATOM      5  C   UNL     1       2.637   5.560  19.182  0.00  0.00    +0.000 C 
ATOM      6  C   UNL     1       4.022   5.694  18.502  0.00  0.00    +0.000 C 
ENDROOT
BRANCH   5   7
ATOM      7  C   UNL     1       2.126   6.914  19.609  0.00  0.00    +0.000 A 
ATOM      8  C   UNL     1       1.983   8.085  18.886  0.00  0.00    +0.000 A 
ATOM      9  C   UNL     1       1.392   9.050  19.730  0.00  0.00    +0.000 A 
ATOM     10  N   UNL     1       1.025  10.322  19.442  0.00  0.00    +0.000 NA
ATOM     11  C   UNL     1       0.456  10.987  20.469  0.00  0.00    +0.000 A 
ATOM     12  C   UNL     1       0.244  10.473  21.745  0.00  0.00    +0.000 A 
ATOM     13  C   UNL     1       0.633   9.166  22.033  0.00  0.00    +0.000 A 
ATOM     14  C   UNL     1       1.213   8.462  20.979  0.00  0.00    +0.000 A 
ATOM     15  N   UNL     1       1.687   7.173  20.889  0.00  0.00    +0.000 N 
ATOM     16  H   UNL     1       1.684   6.509  21.651  0.00  0.00    +0.000 HD
ENDBRANCH   5   7
BRANCH   1  17
ATOM     17  C   UNL     1       6.085   4.641  17.713  0.00  0.00    +0.000 C 
BRANCH  17  22
ATOM     18  F   UNL     1       6.715   4.123  12.100  0.00  0.00    +0.000 F 
ATOM     19  C   UNL     1       6.575   4.245  13.427  0.00  0.00    +0.000 A 
ATOM     20  C   UNL     1       5.538   3.585  14.072  0.00  0.00    +0.000 A 
ATOM     21  C   UNL     1       5.384   3.722  15.454  0.00  0.00    +0.000 A 
ATOM     22  C   UNL     1       6.277   4.507  16.207  0.00  0.00    +0.000 A 
ATOM     23  C   UNL     1       7.320   5.165  15.530  0.00  0.00    +0.000 A 
ATOM     24  C   UNL     1       7.466   5.034  14.142  0.00  0.00    +0.000 A 
ENDBRANCH  17  22
ENDBRANCH   1  17
TORSDOF 3
ENDMDL
MODEL 5
REMARK VINA RESULT:      -7.6      3.941      8.242
REMARK  Name = 
REMARK  3 active torsions:
REMARK  status: ('A' for Active; 'I' for Inactive)
REMARK    1  A    between atoms: C_5  and  C_6
REMARK    2  A    between atoms: C_6  and  N_7
REMARK    3  A    between atoms: C_11  and  C_12
REMARK                            x       y       z     vdW  Elec       q    Type
REMARK                         _______ _______ _______ _____ _____    ______ ____
ROOT
ATOM      1  N   UNL     1       0.641  10.349  19.806  0.00  0.00    +0.000 NA
ATOM      2  C   UNL     1      -0.310  10.105  20.891  0.00  0.00    +0.000 C 
ATOM      3  C   UNL     1       0.241   9.208  21.998  0.00  0.00    +0.000 C 
ATOM      4  C   UNL     1       0.759   7.898  21.425  0.00  0.00    +0.000 C 
ATOM      5  C   UNL     1       1.839   8.172  20.375  0.00  0.00    +0.000 C 
ATOM      6  C   UNL     1       1.326   9.157  19.294  0.00  0.00    +0.000 C 
ENDROOT
BRANCH   5   7
ATOM      7  C   UNL     1       2.296   6.883  19.737  0.00  0.00    +0.000 A 
ATOM      8  C   UNL     1       2.577   6.589  18.414  0.00  0.00    +0.000 A 
ATOM      9  C   UNL     1       3.038   5.256  18.351  0.00  0.00    +0.000 A 
ATOM     10  N   UNL     1       3.469   4.555  17.275  0.00  0.00    +0.000 NA
ATOM     11  C   UNL     1       3.873   3.298  17.551  0.00  0.00    +0.000 A 
ATOM     12  C   UNL     1       3.864   2.705  18.811  0.00  0.00    +0.000 A 
ATOM     13  C   UNL     1       3.410   3.433  19.909  0.00  0.00    +0.000 A 
ATOM     14  C   UNL     1       2.999   4.737  19.642  0.00  0.00    +0.000 A 
ATOM     15  N   UNL     1       2.524   5.734  20.463  0.00  0.00    +0.000 N 
ATOM     16  H   UNL     1       2.390   5.638  21.461  0.00  0.00    +0.000 HD
ENDBRANCH   5   7
BRANCH   1  17
ATOM     17  C   UNL     1       0.076  11.181  18.722  0.00  0.00    +0.000 C 
BRANCH  17  22
ATOM     18  F   UNL     1      -5.453  10.680  17.565  0.00  0.00    +0.000 F 
ATOM     19  C   UNL     1      -4.146  10.789  17.839  0.00  0.00    +0.000 A 
ATOM     20  C   UNL     1      -3.699  11.819  18.655  0.00  0.00    +0.000 A 
ATOM     21  C   UNL     1      -2.335  11.942  18.931  0.00  0.00    +0.000 A 
ATOM     22  C   UNL     1      -1.406  11.023  18.407  0.00  0.00    +0.000 A 
ATOM     23  C   UNL     1      -1.884   9.988  17.583  0.00  0.00    +0.000 A 
ATOM     24  C   UNL     1      -3.252   9.874  17.300  0.00  0.00    +0.000 A 
ENDBRANCH  17  22
ENDBRANCH   1  17
TORSDOF 3
ENDMDL
MODEL 6
REMARK VINA RESULT:      -7.5      2.403      2.977
REMARK  Name = 
REMARK  3 active torsions:
REMARK  status: ('A' for Active; 'I' for Inactive)
REMARK    1  A    between atoms: C_5  and  C_6
REMARK    2  A    between atoms: C_6  and  N_7
REMARK    3  A    between atoms: C_11  and  C_12
REMARK                            x       y       z     vdW  Elec       q    Type
REMARK                         _______ _______ _______ _____ _____    ______ ____
ROOT
ATOM      1  N   UNL     1       4.793   4.399  18.012  0.00  0.00    +0.000 NA
ATOM      2  C   UNL     1       4.791   3.428  19.108  0.00  0.00    +0.000 C 
ATOM      3  C   UNL     1       3.416   3.221  19.740  0.00  0.00    +0.000 C 
ATOM      4  C   UNL     1       2.821   4.549  20.188  0.00  0.00    +0.000 C 
ATOM      5  C   UNL     1       2.723   5.510  19.000  0.00  0.00    +0.000 C 
ATOM      6  C   UNL     1       4.091   5.657  18.289  0.00  0.00    +0.000 C 
ENDROOT
BRANCH   5   7
ATOM      7  C   UNL     1       2.217   6.858  19.452  0.00  0.00    +0.000 A 
ATOM      8  C   UNL     1       2.014   8.024  18.735  0.00  0.00    +0.000 A 
ATOM      9  C   UNL     1       1.459   8.984  19.609  0.00  0.00    +0.000 A 
ATOM     10  N   UNL     1       1.057  10.248  19.339  0.00  0.00    +0.000 NA
ATOM     11  C   UNL     1       0.537  10.909  20.395  0.00  0.00    +0.000 A 
ATOM     12  C   UNL     1       0.406  10.396  21.682  0.00  0.00    +0.000 A 
ATOM     13  C   UNL     1       0.831   9.096  21.951  0.00  0.00    +0.000 A 
ATOM     14  C   UNL     1       1.360   8.397  20.868  0.00  0.00    +0.000 A 
ATOM     15  N   UNL     1       1.848   7.115  20.754  0.00  0.00    +0.000 N 
ATOM     16  H   UNL     1       1.899   6.453  21.517  0.00  0.00    +0.000 HD
ENDBRANCH   5   7
BRANCH   1  17
ATOM     17  C   UNL     1       6.139   4.619  17.442  0.00  0.00    +0.000 C 
BRANCH  17  22
ATOM     18  F   UNL     1       6.817   4.175  11.829  0.00  0.00    +0.000 F 
ATOM     19  C   UNL     1       6.648   4.281  13.154  0.00  0.00    +0.000 A 
ATOM     20  C   UNL     1       7.570   4.992  13.910  0.00  0.00    +0.000 A 
ATOM     21  C   UNL     1       7.401   5.092  15.293  0.00  0.00    +0.000 A 
ATOM     22  C   UNL     1       6.298   4.496  15.932  0.00  0.00    +0.000 A 
ATOM     23  C   UNL     1       5.377   3.781  15.143  0.00  0.00    +0.000 A 
ATOM     24  C   UNL     1       5.555   3.674  13.758  0.00  0.00    +0.000 A 
ENDBRANCH  17  22
ENDBRANCH   1  17
TORSDOF 3
ENDMDL
MODEL 7
REMARK VINA RESULT:      -7.5      4.224      8.172
REMARK  Name = 
REMARK  3 active torsions:
REMARK  status: ('A' for Active; 'I' for Inactive)
REMARK    1  A    between atoms: C_5  and  C_6
REMARK    2  A    between atoms: C_6  and  N_7
REMARK    3  A    between atoms: C_11  and  C_12
REMARK                            x       y       z     vdW  Elec       q    Type
REMARK                         _______ _______ _______ _____ _____    ______ ____
ROOT
ATOM      1  N   UNL     1       0.959  10.177  19.697  0.00  0.00    +0.000 NA
ATOM      2  C   UNL     1       0.112  10.260  20.887  0.00  0.00    +0.000 C 
ATOM      3  C   UNL     1       0.618   9.420  22.059  0.00  0.00    +0.000 C 
ATOM      4  C   UNL     1       0.822   7.972  21.637  0.00  0.00    +0.000 C 
ATOM      5  C   UNL     1       1.805   7.898  20.465  0.00  0.00    +0.000 C 
ATOM      6  C   UNL     1       1.354   8.820  19.304  0.00  0.00    +0.000 C 
ENDROOT
BRANCH   5   7
ATOM      7  C   UNL     1       1.946   6.476  19.983  0.00  0.00    +0.000 A 
ATOM      8  C   UNL     1       1.614   5.283  20.603  0.00  0.00    +0.000 A 
ATOM      9  C   UNL     1       1.878   4.232  19.699  0.00  0.00    +0.000 A 
ATOM     10  N   UNL     1       1.667   2.903  19.854  0.00  0.00    +0.000 NA
ATOM     11  C   UNL     1       2.003   2.154  18.783  0.00  0.00    +0.000 A 
ATOM     12  C   UNL     1       2.536   2.640  17.593  0.00  0.00    +0.000 A 
ATOM     13  C   UNL     1       2.757   4.008  17.447  0.00  0.00    +0.000 A 
ATOM     14  C   UNL     1       2.405   4.797  18.541  0.00  0.00    +0.000 A 
ATOM     15  N   UNL     1       2.459   6.157  18.744  0.00  0.00    +0.000 N 
ATOM     16  H   UNL     1       2.802   6.824  18.066  0.00  0.00    +0.000 HD
ENDBRANCH   5   7
BRANCH   1  17
ATOM     17  C   UNL     1       0.431  10.960  18.559  0.00  0.00    +0.000 C 
BRANCH  17  22
ATOM     18  F   UNL     1      -5.146  10.667  17.568  0.00  0.00    +0.000 F 
ATOM     19  C   UNL     1      -3.828  10.745  17.802  0.00  0.00    +0.000 A 
ATOM     20  C   UNL     1      -2.974   9.808  17.238  0.00  0.00    +0.000 A 
ATOM     21  C   UNL     1      -1.602   9.881  17.492  0.00  0.00    +0.000 A 
ATOM     22  C   UNL     1      -1.069  10.905  18.297  0.00  0.00    +0.000 A 
ATOM     23  C   UNL     1      -1.956  11.843  18.857  0.00  0.00    +0.000 A 
ATOM     24  C   UNL     1      -3.333  11.760  18.609  0.00  0.00    +0.000 A 
ENDBRANCH  17  22
ENDBRANCH   1  17
TORSDOF 3
ENDMDL
MODEL 8
REMARK VINA RESULT:      -7.5      1.973      2.401
REMARK  Name = 
REMARK  3 active torsions:
REMARK  status: ('A' for Active; 'I' for Inactive)
REMARK    1  A    between atoms: C_5  and  C_6
REMARK    2  A    between atoms: C_6  and  N_7
REMARK    3  A    between atoms: C_11  and  C_12
REMARK                            x       y       z     vdW  Elec       q    Type
REMARK                         _______ _______ _______ _____ _____    ______ ____
ROOT
ATOM      1  N   UNL     1       4.152   4.257  19.006  0.00  0.00    +0.000 NA
ATOM      2  C   UNL     1       3.845   3.336  20.101  0.00  0.00    +0.000 C 
ATOM      3  C   UNL     1       2.374   3.345  20.514  0.00  0.00    +0.000 C 
ATOM      4  C   UNL     1       1.914   4.756  20.846  0.00  0.00    +0.000 C 
ATOM      5  C   UNL     1       2.135   5.679  19.644  0.00  0.00    +0.000 C 
ATOM      6  C   UNL     1       3.603   5.609  19.153  0.00  0.00    +0.000 C 
ENDROOT
BRANCH   5   7
ATOM      7  C   UNL     1       1.764   7.099  19.992  0.00  0.00    +0.000 A 
ATOM      8  C   UNL     1       1.738   8.237  19.204  0.00  0.00    +0.000 A 
ATOM      9  C   UNL     1       1.248   9.302  19.990  0.00  0.00    +0.000 A 
ATOM     10  N   UNL     1       1.011  10.586  19.631  0.00  0.00    +0.000 NA
ATOM     11  C   UNL     1       0.513  11.361  20.617  0.00  0.00    +0.000 A 
ATOM     12  C   UNL     1       0.252  10.943  21.919  0.00  0.00    +0.000 A 
ATOM     13  C   UNL     1       0.509   9.622  22.280  0.00  0.00    +0.000 A 
ATOM     14  C   UNL     1       1.013   8.806  21.270  0.00  0.00    +0.000 A 
ATOM     15  N   UNL     1       1.355   7.473  21.254  0.00  0.00    +0.000 N 
ATOM     16  H   UNL     1       1.287   6.855  22.052  0.00  0.00    +0.000 HD
ENDBRANCH   5   7
BRANCH   1  17
ATOM     17  C   UNL     1       5.587   4.268  18.650  0.00  0.00    +0.000 C 
BRANCH  17  22
ATOM     18  F   UNL     1       7.024   4.775  13.187  0.00  0.00    +0.000 F 
ATOM     19  C   UNL     1       6.676   4.658  14.476  0.00  0.00    +0.000 A 
ATOM     20  C   UNL     1       7.601   4.959  15.466  0.00  0.00    +0.000 A 
ATOM     21  C   UNL     1       7.243   4.826  16.810  0.00  0.00    +0.000 A 
ATOM     22  C   UNL     1       5.950   4.407  17.176  0.00  0.00    +0.000 A 
ATOM     23  C   UNL     1       5.032   4.108  16.153  0.00  0.00    +0.000 A 
ATOM     24  C   UNL     1       5.397   4.233  14.806  0.00  0.00    +0.000 A 
ENDBRANCH  17  22
ENDBRANCH   1  17
TORSDOF 3
ENDMDL
MODEL 9
REMARK VINA RESULT:      -7.5      3.025      3.702
REMARK  Name = 
REMARK  3 active torsions:
REMARK  status: ('A' for Active; 'I' for Inactive)
REMARK    1  A    between atoms: C_5  and  C_6
REMARK    2  A    between atoms: C_6  and  N_7
REMARK    3  A    between atoms: C_11  and  C_12
REMARK                            x       y       z     vdW  Elec       q    Type
REMARK                         _______ _______ _______ _____ _____    ______ ____
ROOT
ATOM      1  N   UNL     1       5.074   5.414  16.832  0.00  0.00    +0.000 NA
ATOM      2  C   UNL     1       5.729   4.623  17.875  0.00  0.00    +0.000 C 
ATOM      3  C   UNL     1       4.769   4.107  18.946  0.00  0.00    +0.000 C 
ATOM      4  C   UNL     1       3.970   5.251  19.552  0.00  0.00    +0.000 C 
ATOM      5  C   UNL     1       3.198   5.993  18.458  0.00  0.00    +0.000 C 
ATOM      6  C   UNL     1       4.146   6.441  17.316  0.00  0.00    +0.000 C 
ENDROOT
BRANCH   5   7
ATOM      7  C   UNL     1       2.473   7.183  19.037  0.00  0.00    +0.000 A 
ATOM      8  C   UNL     1       2.044   8.352  18.431  0.00  0.00    +0.000 A 
ATOM      9  C   UNL     1       1.352   9.115  19.396  0.00  0.00    +0.000 A 
ATOM     10  N   UNL     1       0.722  10.305  19.248  0.00  0.00    +0.000 NA
ATOM     11  C   UNL     1       0.125  10.766  20.367  0.00  0.00    +0.000 A 
ATOM     12  C   UNL     1       0.126  10.128  21.604  0.00  0.00    +0.000 A 
ATOM     13  C   UNL     1       0.784   8.908  21.748  0.00  0.00    +0.000 A 
ATOM     14  C   UNL     1       1.397   8.413  20.598  0.00  0.00    +0.000 A 
ATOM     15  N   UNL     1       2.103   7.256  20.362  0.00  0.00    +0.000 N 
ATOM     16  H   UNL     1       2.294   6.550  21.061  0.00  0.00    +0.000 HD
ENDBRANCH   5   7
BRANCH   1  17
ATOM     17  C   UNL     1       6.024   5.942  15.830  0.00  0.00    +0.000 C 
BRANCH  17  22
ATOM     18  F   UNL     1       6.975   2.883  11.150  0.00  0.00    +0.000 F 
ATOM     19  C   UNL     1       6.742   3.606  12.254  0.00  0.00    +0.000 A 
ATOM     20  C   UNL     1       7.683   4.533  12.679  0.00  0.00    +0.000 A 
ATOM     21  C   UNL     1       7.446   5.279  13.837  0.00  0.00    +0.000 A 
ATOM     22  C   UNL     1       6.256   5.117  14.570  0.00  0.00    +0.000 A 
ATOM     23  C   UNL     1       5.318   4.171  14.118  0.00  0.00    +0.000 A 
ATOM     24  C   UNL     1       5.563   3.418  12.962  0.00  0.00    +0.000 A 
ENDBRANCH  17  22
ENDBRANCH   1  17
TORSDOF 3
ENDMDL
