MODEL 1
REMARK VINA RESULT:      -8.0      0.000      0.000
REMARK  Name = 
REMARK  7 active torsions:
REMARK  status: ('A' for Active; 'I' for Inactive)
REMARK    1  A    between atoms: C_1  and  O_2
REMARK    2  A    between atoms: O_2  and  C_3
REMARK    3  A    between atoms: C_6  and  C_7
REMARK    4  A    between atoms: N_8  and  N_9
REMARK    5  A    between atoms: N_12  and  C_13
REMARK    6  A    between atoms: C_29  and  O_30
REMARK    7  A    between atoms: O_30  and  C_31
REMARK                            x       y       z     vdW  Elec       q    Type
REMARK                         _______ _______ _______ _____ _____    ______ ____
ROOT
ATOM      1  N   UNL     1       6.740   5.363  16.401  0.00  0.00    +0.000 N 
ATOM      2  C   UNL     1       6.327   4.546  17.563  0.00  0.00    +0.000 C 
ATOM      3  C   UNL     1       5.874   5.387  18.779  0.00  0.00    +0.000 C 
ATOM      4  N   UNL     1       4.864   6.423  18.498  0.00  0.00    +0.000 NA
ATOM      5  C   UNL     1       5.387   7.222  17.372  0.00  0.00    +0.000 C 
ATOM      6  C   UNL     1       5.694   6.381  16.128  0.00  0.00    +0.000 C 
ENDROOT
BRANCH   4   7
ATOM      7  C   UNL     1       3.472   5.945  18.282  0.00  0.00    +0.000 C 
ATOM      8  C   UNL     1       3.075   4.814  19.245  0.00  0.00    +0.000 A 
ATOM      9  C   UNL     1       3.316   3.450  19.132  0.00  0.00    +0.000 A 
ATOM     10  C   UNL     1       2.736   2.593  20.070  0.00  0.00    +0.000 A 
ATOM     11  C   UNL     1       1.909   3.095  21.087  0.00  0.00    +0.000 A 
ATOM     12  C   UNL     1       1.672   4.468  21.203  0.00  0.00    +0.000 A 
ATOM     13  C   UNL     1       2.268   5.321  20.288  0.00  0.00    +0.000 A 
ATOM     14  C   UNL     1       2.034   6.726  20.053  0.00  0.00    +0.000 A 
ATOM     15  C   UNL     1       1.443   7.697  20.841  0.00  0.00    +0.000 A 
ATOM     16  C   UNL     1       1.188   8.946  20.271  0.00  0.00    +0.000 A 
ATOM     17  C   UNL     1       1.445   9.175  18.910  0.00  0.00    +0.000 A 
ATOM     18  C   UNL     1       2.095   8.211  18.137  0.00  0.00    +0.000 A 
ATOM     19  C   UNL     1       2.488   7.033  18.757  0.00  0.00    +0.000 A 
ENDBRANCH   4   7
BRANCH   1  21
ATOM     20  C   UNL     1       6.338   4.877  14.287  0.00  0.00    +0.000 C 
ATOM     21  N   UNL     1       7.113   4.650  15.301  0.00  0.00    +0.000 NA
BRANCH  20  25
ATOM     22  C   UNL     1       6.217   1.962  11.207  0.00  0.00    +0.000 A 
ATOM     23  C   UNL     1       7.457   2.386  11.714  0.00  0.00    +0.000 A 
ATOM     24  C   UNL     1       7.528   3.397  12.675  0.00  0.00    +0.000 A 
ATOM     25  C   UNL     1       6.351   4.020  13.090  0.00  0.00    +0.000 A 
ATOM     26  C   UNL     1       5.135   3.697  12.503  0.00  0.00    +0.000 A 
ATOM     27  C   UNL     1       5.049   2.667  11.552  0.00  0.00    +0.000 A 
BRANCH  22  29
ATOM     28  C   UNL     1       6.011  -0.380  11.061  0.00  0.00    +0.000 C 
ATOM     29  O   UNL     1       6.139   0.871  10.380  0.00  0.00    +0.000 OA
ENDBRANCH  22  29
BRANCH  27  30
ATOM     30  O   UNL     1       3.760   2.474  11.137  0.00  0.00    +0.000 OA
ATOM     31  C   UNL     1       3.163   3.422  10.267  0.00  0.00    +0.000 C 
ENDBRANCH  27  30
ENDBRANCH  20  25
ENDBRANCH   1  21
TORSDOF 5
ENDMDL
MODEL 2
REMARK VINA RESULT:      -7.7      5.745      8.706
REMARK  Name = 
REMARK  7 active torsions:
REMARK  status: ('A' for Active; 'I' for Inactive)
REMARK    1  A    between atoms: C_1  and  O_2
REMARK    2  A    between atoms: O_2  and  C_3
REMARK    3  A    between atoms: C_6  and  C_7
REMARK    4  A    between atoms: N_8  and  N_9
REMARK    5  A    between atoms: N_12  and  C_13
REMARK    6  A    between atoms: C_29  and  O_30
REMARK    7  A    between atoms: O_30  and  C_31
REMARK                            x       y       z     vdW  Elec       q    Type
REMARK                         _______ _______ _______ _____ _____    ______ ____
ROOT
ATOM      1  N   UNL     1       8.156   7.296  18.173  0.00  0.00    +0.000 N 
ATOM      2  C   UNL     1       6.889   7.748  17.556  0.00  0.00    +0.000 C 
ATOM      3  C   UNL     1       6.118   6.620  16.832  0.00  0.00    +0.000 C 
ATOM      4  N   UNL     1       5.896   5.393  17.618  0.00  0.00    +0.000 NA
ATOM      5  C   UNL     1       7.215   4.985  18.138  0.00  0.00    +0.000 C 
ATOM      6  C   UNL     1       7.897   6.075  18.974  0.00  0.00    +0.000 C 
ENDROOT
BRANCH   4   7
ATOM      7  C   UNL     1       4.847   5.465  18.670  0.00  0.00    +0.000 C 
ATOM      8  C   UNL     1       3.664   6.363  18.271  0.00  0.00    +0.000 A 
ATOM      9  C   UNL     1       3.544   7.743  18.382  0.00  0.00    +0.000 A 
ATOM     10  C   UNL     1       2.313   8.330  18.079  0.00  0.00    +0.000 A 
ATOM     11  C   UNL     1       1.217   7.541  17.696  0.00  0.00    +0.000 A 
ATOM     12  C   UNL     1       1.341   6.154  17.580  0.00  0.00    +0.000 A 
ATOM     13  C   UNL     1       2.569   5.574  17.855  0.00  0.00    +0.000 A 
ATOM     14  C   UNL     1       2.913   4.182  18.014  0.00  0.00    +0.000 A 
ATOM     15  C   UNL     1       2.258   3.028  17.618  0.00  0.00    +0.000 A 
ATOM     16  C   UNL     1       2.746   1.802  18.076  0.00  0.00    +0.000 A 
ATOM     17  C   UNL     1       3.817   1.752  18.982  0.00  0.00    +0.000 A 
ATOM     18  C   UNL     1       4.508   2.914  19.329  0.00  0.00    +0.000 A 
ATOM     19  C   UNL     1       4.114   4.109  18.743  0.00  0.00    +0.000 A 
ENDBRANCH   4   7
BRANCH   1  21
ATOM     20  C   UNL     1       8.520   9.454  18.453  0.00  0.00    +0.000 C 
ATOM     21  N   UNL     1       8.842   8.261  18.847  0.00  0.00    +0.000 NA
BRANCH  20  25
ATOM     22  C   UNL     1      11.292  12.477  19.541  0.00  0.00    +0.000 A 
ATOM     23  C   UNL     1      10.362  12.013  20.488  0.00  0.00    +0.000 A 
ATOM     24  C   UNL     1       9.392  11.072  20.135  0.00  0.00    +0.000 A 
ATOM     25  C   UNL     1       9.322  10.635  18.812  0.00  0.00    +0.000 A 
ATOM     26  C   UNL     1      10.152  11.182  17.842  0.00  0.00    +0.000 A 
ATOM     27  C   UNL     1      11.147  12.111  18.190  0.00  0.00    +0.000 A 
BRANCH  22  29
ATOM     28  C   UNL     1      12.074  14.683  19.806  0.00  0.00    +0.000 C 
ATOM     29  O   UNL     1      12.333  13.281  19.925  0.00  0.00    +0.000 OA
ENDBRANCH  22  29
BRANCH  27  30
ATOM     30  O   UNL     1      11.885  12.485  17.101  0.00  0.00    +0.000 OA
ATOM     31  C   UNL     1      11.477  13.610  16.341  0.00  0.00    +0.000 C 
ENDBRANCH  27  30
ENDBRANCH  20  25
ENDBRANCH   1  21
TORSDOF 5
ENDMDL
MODEL 3
REMARK VINA RESULT:      -7.7      4.817      8.418
REMARK  Name = 
REMARK  7 active torsions:
REMARK  status: ('A' for Active; 'I' for Inactive)
REMARK    1  A    between atoms: C_1  and  O_2
REMARK    2  A    between atoms: O_2  and  C_3
REMARK    3  A    between atoms: C_6  and  C_7
REMARK    4  A    between atoms: N_8  and  N_9
REMARK    5  A    between atoms: N_12  and  C_13
REMARK    6  A    between atoms: C_29  and  O_30
REMARK    7  A    between atoms: O_30  and  C_31
REMARK                            x       y       z     vdW  Elec       q    Type
REMARK                         _______ _______ _______ _____ _____    ______ ____
ROOT
ATOM      1  N   UNL     1       1.458  10.132  18.102  0.00  0.00    +0.000 N 
ATOM      2  C   UNL     1       1.829  11.556  18.261  0.00  0.00    +0.000 C 
ATOM      3  C   UNL     1       0.643  12.462  18.662  0.00  0.00    +0.000 C 
ATOM      4  N   UNL     1      -0.144  12.006  19.823  0.00  0.00    +0.000 NA
ATOM      5  C   UNL     1      -0.520  10.606  19.549  0.00  0.00    +0.000 C 
ATOM      6  C   UNL     1       0.688   9.696  19.294  0.00  0.00    +0.000 C 
ENDROOT
BRANCH   4   7
ATOM      7  C   UNL     1       0.482  12.196  21.159  0.00  0.00    +0.000 C 
ATOM      8  C   UNL     1       1.186  13.555  21.299  0.00  0.00    +0.000 A 
ATOM      9  C   UNL     1       2.469  13.916  20.903  0.00  0.00    +0.000 A 
ATOM     10  C   UNL     1       2.944  15.180  21.260  0.00  0.00    +0.000 A 
ATOM     11  C   UNL     1       2.154  16.055  22.023  0.00  0.00    +0.000 A 
ATOM     12  C   UNL     1       0.863  15.693  22.416  0.00  0.00    +0.000 A 
ATOM     13  C   UNL     1       0.381  14.449  22.040  0.00  0.00    +0.000 A 
ATOM     14  C   UNL     1      -0.806  13.753  22.475  0.00  0.00    +0.000 A 
ATOM     15  C   UNL     1      -1.958  14.209  23.090  0.00  0.00    +0.000 A 
ATOM     16  C   UNL     1      -2.873  13.265  23.564  0.00  0.00    +0.000 A 
ATOM     17  C   UNL     1      -2.584  11.894  23.493  0.00  0.00    +0.000 A 
ATOM     18  C   UNL     1      -1.449  11.440  22.818  0.00  0.00    +0.000 A 
ATOM     19  C   UNL     1      -0.629  12.382  22.212  0.00  0.00    +0.000 A 
ENDBRANCH   4   7
BRANCH   1  21
ATOM     20  C   UNL     1       2.173   8.053  17.925  0.00  0.00    +0.000 C 
ATOM     21  N   UNL     1       2.490   9.302  17.780  0.00  0.00    +0.000 NA
BRANCH  20  25
ATOM     22  C   UNL     1       5.323   5.253  18.416  0.00  0.00    +0.000 A 
ATOM     23  C   UNL     1       5.417   6.236  17.416  0.00  0.00    +0.000 A 
ATOM     24  C   UNL     1       4.362   7.123  17.185  0.00  0.00    +0.000 A 
ATOM     25  C   UNL     1       3.189   6.987  17.927  0.00  0.00    +0.000 A 
ATOM     26  C   UNL     1       3.038   5.941  18.826  0.00  0.00    +0.000 A 
ATOM     27  C   UNL     1       4.100   5.057  19.083  0.00  0.00    +0.000 A 
BRANCH  22  29
ATOM     28  C   UNL     1       7.544   4.673  17.888  0.00  0.00    +0.000 C 
ATOM     29  O   UNL     1       6.412   4.486  18.742  0.00  0.00    +0.000 OA
ENDBRANCH  22  29
BRANCH  27  30
ATOM     30  O   UNL     1       3.764   4.133  20.034  0.00  0.00    +0.000 OA
ATOM     31  C   UNL     1       3.471   2.805  19.636  0.00  0.00    +0.000 C 
ENDBRANCH  27  30
ENDBRANCH  20  25
ENDBRANCH   1  21
TORSDOF 5
ENDMDL
MODEL 4
REMARK VINA RESULT:      -7.7      4.220      7.685
REMARK  Name = 
REMARK  7 active torsions:
REMARK  status: ('A' for Active; 'I' for Inactive)
REMARK    1  A    between atoms: C_1  and  O_2
REMARK    2  A    between atoms: O_2  and  C_3
REMARK    3  A    between atoms: C_6  and  C_7
REMARK    4  A    between atoms: N_8  and  N_9
REMARK    5  A    between atoms: N_12  and  C_13
REMARK    6  A    between atoms: C_29  and  O_30
REMARK    7  A    between atoms: O_30  and  C_31
REMARK                            x       y       z     vdW  Elec       q    Type
REMARK                         _______ _______ _______ _____ _____    ______ ____
ROOT
ATOM      1  N   UNL     1       1.384   8.410  19.214  0.00  0.00    +0.000 N 
ATOM      2  C   UNL     1       1.529   9.637  18.401  0.00  0.00    +0.000 C 
ATOM      3  C   UNL     1       0.308  10.582  18.484  0.00  0.00    +0.000 C 
ATOM      4  N   UNL     1      -0.145  10.920  19.846  0.00  0.00    +0.000 NA
ATOM      5  C   UNL     1      -0.322   9.640  20.558  0.00  0.00    +0.000 C 
ATOM      6  C   UNL     1       0.949   8.784  20.583  0.00  0.00    +0.000 C 
ENDROOT
BRANCH   4   7
ATOM      7  C   UNL     1       0.690  11.898  20.594  0.00  0.00    +0.000 C 
ATOM      8  C   UNL     1       1.267  13.001  19.691  0.00  0.00    +0.000 A 
ATOM      9  C   UNL     1       2.414  12.971  18.907  0.00  0.00    +0.000 A 
ATOM     10  C   UNL     1       2.817  14.150  18.274  0.00  0.00    +0.000 A 
ATOM     11  C   UNL     1       2.094  15.341  18.446  0.00  0.00    +0.000 A 
ATOM     12  C   UNL     1       0.938  15.368  19.231  0.00  0.00    +0.000 A 
ATOM     13  C   UNL     1       0.523  14.193  19.839  0.00  0.00    +0.000 A 
ATOM     14  C   UNL     1      -0.490  13.987  20.845  0.00  0.00    +0.000 A 
ATOM     15  C   UNL     1      -1.551  14.777  21.248  0.00  0.00    +0.000 A 
ATOM     16  C   UNL     1      -2.266  14.396  22.386  0.00  0.00    +0.000 A 
ATOM     17  C   UNL     1      -1.858  13.288  23.146  0.00  0.00    +0.000 A 
ATOM     18  C   UNL     1      -0.824  12.463  22.702  0.00  0.00    +0.000 A 
ATOM     19  C   UNL     1      -0.226  12.762  21.486  0.00  0.00    +0.000 A 
ENDBRANCH   4   7
BRANCH   1  21
ATOM     20  C   UNL     1       3.015   7.531  18.018  0.00  0.00    +0.000 C 
ATOM     21  N   UNL     1       2.458   7.572  19.188  0.00  0.00    +0.000 NA
BRANCH  20  25
ATOM     22  C   UNL     1       5.777   4.736  16.417  0.00  0.00    +0.000 A 
ATOM     23  C   UNL     1       4.484   4.313  16.767  0.00  0.00    +0.000 A 
ATOM     24  C   UNL     1       3.580   5.195  17.364  0.00  0.00    +0.000 A 
ATOM     25  C   UNL     1       3.995   6.493  17.658  0.00  0.00    +0.000 A 
ATOM     26  C   UNL     1       5.309   6.883  17.434  0.00  0.00    +0.000 A 
ATOM     27  C   UNL     1       6.219   6.012  16.813  0.00  0.00    +0.000 A 
BRANCH  22  29
ATOM     28  C   UNL     1       6.389   3.948  14.283  0.00  0.00    +0.000 C 
ATOM     29  O   UNL     1       6.607   3.916  15.697  0.00  0.00    +0.000 OA
ENDBRANCH  22  29
BRANCH  27  30
ATOM     30  O   UNL     1       7.440   6.604  16.639  0.00  0.00    +0.000 OA
ATOM     31  C   UNL     1       7.807   7.694  17.468  0.00  0.00    +0.000 C 
ENDBRANCH  27  30
ENDBRANCH  20  25
ENDBRANCH   1  21
TORSDOF 5
ENDMDL
MODEL 5
REMARK VINA RESULT:      -7.5      7.211      9.032
REMARK  Name = 
REMARK  7 active torsions:
REMARK  status: ('A' for Active; 'I' for Inactive)
REMARK    1  A    between atoms: C_1  and  O_2
REMARK    2  A    between atoms: O_2  and  C_3
REMARK    3  A    between atoms: C_6  and  C_7
REMARK    4  A    between atoms: N_8  and  N_9
REMARK    5  A    between atoms: N_12  and  C_13
REMARK    6  A    between atoms: C_29  and  O_30
REMARK    7  A    between atoms: O_30  and  C_31
REMARK                            x       y       z     vdW  Elec       q    Type
REMARK                         _______ _______ _______ _____ _____    ______ ____
ROOT
ATOM      1  N   UNL     1       9.097  10.297  18.335  0.00  0.00    +0.000 N 
ATOM      2  C   UNL     1       9.277  10.387  19.801  0.00  0.00    +0.000 C 
ATOM      3  C   UNL     1      10.210  11.538  20.239  0.00  0.00    +0.000 C 
ATOM      4  N   UNL     1       9.893  12.865  19.680  0.00  0.00    +0.000 NA
ATOM      5  C   UNL     1       9.795  12.690  18.218  0.00  0.00    +0.000 C 
ATOM      6  C   UNL     1       8.757  11.640  17.805  0.00  0.00    +0.000 C 
ENDROOT
BRANCH   4   7
ATOM      7  C   UNL     1       8.719  13.564  20.268  0.00  0.00    +0.000 C 
ATOM      8  C   UNL     1       8.671  13.461  21.801  0.00  0.00    +0.000 A 
ATOM      9  C   UNL     1       8.164  12.435  22.590  0.00  0.00    +0.000 A 
ATOM     10  C   UNL     1       8.105  12.626  23.972  0.00  0.00    +0.000 A 
ATOM     11  C   UNL     1       8.525  13.835  24.549  0.00  0.00    +0.000 A 
ATOM     12  C   UNL     1       9.040  14.864  23.755  0.00  0.00    +0.000 A 
ATOM     13  C   UNL     1       9.123  14.666  22.386  0.00  0.00    +0.000 A 
ATOM     14  C   UNL     1       9.411  15.612  21.336  0.00  0.00    +0.000 A 
ATOM     15  C   UNL     1      10.010  16.859  21.370  0.00  0.00    +0.000 A 
ATOM     16  C   UNL     1       9.990  17.633  20.207  0.00  0.00    +0.000 A 
ATOM     17  C   UNL     1       9.303  17.191  19.066  0.00  0.00    +0.000 A 
ATOM     18  C   UNL     1       8.753  15.908  19.021  0.00  0.00    +0.000 A 
ATOM     19  C   UNL     1       8.918  15.087  20.127  0.00  0.00    +0.000 A 
ENDBRANCH   4   7
BRANCH   1  21
ATOM     20  C   UNL     1       8.388   8.227  18.617  0.00  0.00    +0.000 C 
ATOM     21  N   UNL     1       8.253   9.311  17.919  0.00  0.00    +0.000 NA
BRANCH  20  25
ATOM     22  C   UNL     1       6.191   4.803  17.412  0.00  0.00    +0.000 A 
ATOM     23  C   UNL     1       6.715   4.870  18.715  0.00  0.00    +0.000 A 
ATOM     24  C   UNL     1       7.504   5.952  19.113  0.00  0.00    +0.000 A 
ATOM     25  C   UNL     1       7.810   6.944  18.182  0.00  0.00    +0.000 A 
ATOM     26  C   UNL     1       7.405   6.824  16.860  0.00  0.00    +0.000 A 
ATOM     27  C   UNL     1       6.592   5.753  16.455  0.00  0.00    +0.000 A 
BRANCH  22  29
ATOM     28  C   UNL     1       3.961   4.052  17.530  0.00  0.00    +0.000 C 
ATOM     29  O   UNL     1       5.297   3.821  17.072  0.00  0.00    +0.000 OA
ENDBRANCH  22  29
BRANCH  27  30
ATOM     30  O   UNL     1       6.263   5.846  15.130  0.00  0.00    +0.000 OA
ATOM     31  C   UNL     1       6.696   4.836  14.235  0.00  0.00    +0.000 C 
ENDBRANCH  27  30
ENDBRANCH  20  25
ENDBRANCH   1  21
TORSDOF 5
ENDMDL
MODEL 6
REMARK VINA RESULT:      -7.5      5.805      8.885
REMARK  Name = 
REMARK  7 active torsions:
REMARK  status: ('A' for Active; 'I' for Inactive)
REMARK    1  A    between atoms: C_1  and  O_2
REMARK    2  A    between atoms: O_2  and  C_3
REMARK    3  A    between atoms: C_6  and  C_7
REMARK    4  A    between atoms: N_8  and  N_9
REMARK    5  A    between atoms: N_12  and  C_13
REMARK    6  A    between atoms: C_29  and  O_30
REMARK    7  A    between atoms: O_30  and  C_31
REMARK                            x       y       z     vdW  Elec       q    Type
REMARK                         _______ _______ _______ _____ _____    ______ ____
ROOT
ATOM      1  N   UNL     1       8.116   7.323  18.210  0.00  0.00    +0.000 N 
ATOM      2  C   UNL     1       6.850   7.737  17.567  0.00  0.00    +0.000 C 
ATOM      3  C   UNL     1       6.108   6.579  16.862  0.00  0.00    +0.000 C 
ATOM      4  N   UNL     1       5.897   5.367  17.674  0.00  0.00    +0.000 NA
ATOM      5  C   UNL     1       7.217   4.996  18.220  0.00  0.00    +0.000 C 
ATOM      6  C   UNL     1       7.868   6.117  19.038  0.00  0.00    +0.000 C 
ENDROOT
BRANCH   4   7
ATOM      7  C   UNL     1       4.833   5.446  18.711  0.00  0.00    +0.000 C 
ATOM      8  C   UNL     1       3.668   6.360  18.300  0.00  0.00    +0.000 A 
ATOM      9  C   UNL     1       3.561   7.741  18.415  0.00  0.00    +0.000 A 
ATOM     10  C   UNL     1       2.342   8.343  18.097  0.00  0.00    +0.000 A 
ATOM     11  C   UNL     1       1.242   7.568  17.694  0.00  0.00    +0.000 A 
ATOM     12  C   UNL     1       1.352   6.180  17.573  0.00  0.00    +0.000 A 
ATOM     13  C   UNL     1       2.569   5.585  17.864  0.00  0.00    +0.000 A 
ATOM     14  C   UNL     1       2.895   4.188  18.021  0.00  0.00    +0.000 A 
ATOM     15  C   UNL     1       2.233   3.044  17.610  0.00  0.00    +0.000 A 
ATOM     16  C   UNL     1       2.700   1.810  18.068  0.00  0.00    +0.000 A 
ATOM     17  C   UNL     1       3.757   1.744  18.990  0.00  0.00    +0.000 A 
ATOM     18  C   UNL     1       4.457   2.896  19.353  0.00  0.00    +0.000 A 
ATOM     19  C   UNL     1       4.085   4.098  18.767  0.00  0.00    +0.000 A 
ENDBRANCH   4   7
BRANCH   1  21
ATOM     20  C   UNL     1       8.582   9.477  18.325  0.00  0.00    +0.000 C 
ATOM     21  N   UNL     1       8.778   8.316  18.869  0.00  0.00    +0.000 NA
BRANCH  20  25
ATOM     22  C   UNL     1      10.447  13.147  19.350  0.00  0.00    +0.000 A 
ATOM     23  C   UNL     1      10.464  12.708  18.015  0.00  0.00    +0.000 A 
ATOM     24  C   UNL     1       9.922  11.469  17.663  0.00  0.00    +0.000 A 
ATOM     25  C   UNL     1       9.409  10.646  18.665  0.00  0.00    +0.000 A 
ATOM     26  C   UNL     1       9.503  11.014  20.000  0.00  0.00    +0.000 A 
ATOM     27  C   UNL     1      10.024  12.267  20.363  0.00  0.00    +0.000 A 
BRANCH  22  29
ATOM     28  C   UNL     1      11.110  15.257  18.539  0.00  0.00    +0.000 C 
ATOM     29  O   UNL     1      10.840  14.421  19.668  0.00  0.00    +0.000 OA
ENDBRANCH  22  29
BRANCH  27  30
ATOM     30  O   UNL     1       9.983  12.454  21.718  0.00  0.00    +0.000 OA
ATOM     31  C   UNL     1       8.744  12.754  22.338  0.00  0.00    +0.000 C 
ENDBRANCH  27  30
ENDBRANCH  20  25
ENDBRANCH   1  21
TORSDOF 5
ENDMDL
MODEL 7
REMARK VINA RESULT:      -7.4      7.739     10.026
REMARK  Name = 
REMARK  7 active torsions:
REMARK  status: ('A' for Active; 'I' for Inactive)
REMARK    1  A    between atoms: C_1  and  O_2
REMARK    2  A    between atoms: O_2  and  C_3
REMARK    3  A    between atoms: C_6  and  C_7
REMARK    4  A    between atoms: N_8  and  N_9
REMARK    5  A    between atoms: N_12  and  C_13
REMARK    6  A    between atoms: C_29  and  O_30
REMARK    7  A    between atoms: O_30  and  C_31
REMARK                            x       y       z     vdW  Elec       q    Type
REMARK                         _______ _______ _______ _____ _____    ______ ____
ROOT
ATOM      1  N   UNL     1       9.417  10.177  18.584  0.00  0.00    +0.000 N 
ATOM      2  C   UNL     1       9.398  10.636  19.990  0.00  0.00    +0.000 C 
ATOM      3  C   UNL     1      10.603  11.528  20.366  0.00  0.00    +0.000 C 
ATOM      4  N   UNL     1      10.864  12.662  19.461  0.00  0.00    +0.000 NA
ATOM      5  C   UNL     1      10.927  12.103  18.097  0.00  0.00    +0.000 C 
ATOM      6  C   UNL     1       9.658  11.343  17.697  0.00  0.00    +0.000 C 
ENDROOT
BRANCH   4   7
ATOM      7  C   UNL     1       9.940  13.823  19.578  0.00  0.00    +0.000 C 
ATOM      8  C   UNL     1       9.873  14.389  21.005  0.00  0.00    +0.000 A 
ATOM      9  C   UNL     1       9.098  13.960  22.076  0.00  0.00    +0.000 A 
ATOM     10  C   UNL     1       9.103  14.721  23.248  0.00  0.00    +0.000 A 
ATOM     11  C   UNL     1       9.853  15.905  23.332  0.00  0.00    +0.000 A 
ATOM     12  C   UNL     1      10.636  16.332  22.256  0.00  0.00    +0.000 A 
ATOM     13  C   UNL     1      10.652  15.564  21.103  0.00  0.00    +0.000 A 
ATOM     14  C   UNL     1      11.193  15.871  19.801  0.00  0.00    +0.000 A 
ATOM     15  C   UNL     1      12.123  16.813  19.397  0.00  0.00    +0.000 A 
ATOM     16  C   UNL     1      12.319  17.004  18.027  0.00  0.00    +0.000 A 
ATOM     17  C   UNL     1      11.529  16.320  17.091  0.00  0.00    +0.000 A 
ATOM     18  C   UNL     1      10.635  15.329  17.504  0.00  0.00    +0.000 A 
ATOM     19  C   UNL     1      10.565  15.036  18.858  0.00  0.00    +0.000 A 
ENDBRANCH   4   7
BRANCH   1  21
ATOM     20  C   UNL     1       8.476   8.182  18.592  0.00  0.00    +0.000 C 
ATOM     21  N   UNL     1       8.350   9.415  18.213  0.00  0.00    +0.000 NA
BRANCH  20  25
ATOM     22  C   UNL     1       5.676   5.158  17.584  0.00  0.00    +0.000 A 
ATOM     23  C   UNL     1       6.963   4.797  18.018  0.00  0.00    +0.000 A 
ATOM     24  C   UNL     1       7.927   5.771  18.285  0.00  0.00    +0.000 A 
ATOM     25  C   UNL     1       7.612   7.113  18.065  0.00  0.00    +0.000 A 
ATOM     26  C   UNL     1       6.389   7.471  17.516  0.00  0.00    +0.000 A 
ATOM     27  C   UNL     1       5.403   6.502  17.266  0.00  0.00    +0.000 A 
BRANCH  22  29
ATOM     28  C   UNL     1       4.021   3.902  18.695  0.00  0.00    +0.000 C 
ATOM     29  O   UNL     1       4.689   4.213  17.469  0.00  0.00    +0.000 OA
ENDBRANCH  22  29
BRANCH  27  30
ATOM     30  O   UNL     1       4.258   7.066  16.775  0.00  0.00    +0.000 OA
ATOM     31  C   UNL     1       3.319   7.626  17.677  0.00  0.00    +0.000 C 
ENDBRANCH  27  30
ENDBRANCH  20  25
ENDBRANCH   1  21
TORSDOF 5
ENDMDL
MODEL 8
REMARK VINA RESULT:      -7.4      5.659      8.648
REMARK  Name = 
REMARK  7 active torsions:
REMARK  status: ('A' for Active; 'I' for Inactive)
REMARK    1  A    between atoms: C_1  and  O_2
REMARK    2  A    between atoms: O_2  and  C_3
REMARK    3  A    between atoms: C_6  and  C_7
REMARK    4  A    between atoms: N_8  and  N_9
REMARK    5  A    between atoms: N_12  and  C_13
REMARK    6  A    between atoms: C_29  and  O_30
REMARK    7  A    between atoms: O_30  and  C_31
REMARK                            x       y       z     vdW  Elec       q    Type
REMARK                         _______ _______ _______ _____ _____    ______ ____
ROOT
ATOM      1  N   UNL     1       8.118   7.400  18.121  0.00  0.00    +0.000 N 
ATOM      2  C   UNL     1       6.835   7.784  17.493  0.00  0.00    +0.000 C 
ATOM      3  C   UNL     1       6.105   6.605  16.809  0.00  0.00    +0.000 C 
ATOM      4  N   UNL     1       5.929   5.397  17.635  0.00  0.00    +0.000 NA
ATOM      5  C   UNL     1       7.264   5.056  18.165  0.00  0.00    +0.000 C 
ATOM      6  C   UNL     1       7.905   6.197  18.963  0.00  0.00    +0.000 C 
ENDROOT
BRANCH   4   7
ATOM      7  C   UNL     1       4.879   5.466  18.687  0.00  0.00    +0.000 C 
ATOM      8  C   UNL     1       3.679   6.332  18.274  0.00  0.00    +0.000 A 
ATOM      9  C   UNL     1       3.529   7.711  18.361  0.00  0.00    +0.000 A 
ATOM     10  C   UNL     1       2.286   8.267  18.049  0.00  0.00    +0.000 A 
ATOM     11  C   UNL     1       1.206   7.449  17.680  0.00  0.00    +0.000 A 
ATOM     12  C   UNL     1       1.359   6.062  17.588  0.00  0.00    +0.000 A 
ATOM     13  C   UNL     1       2.599   5.513  17.872  0.00  0.00    +0.000 A 
ATOM     14  C   UNL     1       2.972   4.131  18.055  0.00  0.00    +0.000 A 
ATOM     15  C   UNL     1       2.342   2.958  17.680  0.00  0.00    +0.000 A 
ATOM     16  C   UNL     1       2.855   1.750  18.158  0.00  0.00    +0.000 A 
ATOM     17  C   UNL     1       3.927   1.738  19.064  0.00  0.00    +0.000 A 
ATOM     18  C   UNL     1       4.595   2.920  19.390  0.00  0.00    +0.000 A 
ATOM     19  C   UNL     1       4.176   4.096  18.784  0.00  0.00    +0.000 A 
ENDBRANCH   4   7
BRANCH   1  21
ATOM     20  C   UNL     1       8.443   9.575  18.293  0.00  0.00    +0.000 C 
ATOM     21  N   UNL     1       8.770   8.411  18.761  0.00  0.00    +0.000 NA
BRANCH  20  25
ATOM     22  C   UNL     1      10.920  13.000  18.662  0.00  0.00    +0.000 A 
ATOM     23  C   UNL     1      11.267  11.815  19.335  0.00  0.00    +0.000 A 
ATOM     24  C   UNL     1      10.432  10.697  19.290  0.00  0.00    +0.000 A 
ATOM     25  C   UNL     1       9.217  10.787  18.610  0.00  0.00    +0.000 A 
ATOM     26  C   UNL     1       8.807  11.989  18.051  0.00  0.00    +0.000 A 
ATOM     27  C   UNL     1       9.649  13.113  18.070  0.00  0.00    +0.000 A 
BRANCH  22  29
ATOM     28  C   UNL     1      11.661  15.026  19.609  0.00  0.00    +0.000 C 
ATOM     29  O   UNL     1      11.809  14.040  18.583  0.00  0.00    +0.000 OA
ENDBRANCH  22  29
BRANCH  27  30
ATOM     30  O   UNL     1       9.080  14.177  17.426  0.00  0.00    +0.000 OA
ATOM     31  C   UNL     1       7.974  14.836  18.019  0.00  0.00    +0.000 C 
ENDBRANCH  27  30
ENDBRANCH  20  25
ENDBRANCH   1  21
TORSDOF 5
ENDMDL
MODEL 9
REMARK VINA RESULT:      -7.4      6.050      9.589
REMARK  Name = 
REMARK  7 active torsions:
REMARK  status: ('A' for Active; 'I' for Inactive)
REMARK    1  A    between atoms: C_1  and  O_2
REMARK    2  A    between atoms: O_2  and  C_3
REMARK    3  A    between atoms: C_6  and  C_7
REMARK    4  A    between atoms: N_8  and  N_9
REMARK    5  A    between atoms: N_12  and  C_13
REMARK    6  A    between atoms: C_29  and  O_30
REMARK    7  A    between atoms: O_30  and  C_31
REMARK                            x       y       z     vdW  Elec       q    Type
REMARK                         _______ _______ _______ _____ _____    ______ ____
ROOT
ATOM      1  N   UNL     1       0.181  10.652  18.946  0.00  0.00    +0.000 N 
ATOM      2  C   UNL     1      -0.094  11.635  20.016  0.00  0.00    +0.000 C 
ATOM      3  C   UNL     1      -1.001  12.803  19.565  0.00  0.00    +0.000 C 
ATOM      4  N   UNL     1      -2.254  12.414  18.893  0.00  0.00    +0.000 NA
ATOM      5  C   UNL     1      -1.877  11.487  17.808  0.00  0.00    +0.000 C 
ATOM      6  C   UNL     1      -1.099  10.263  18.304  0.00  0.00    +0.000 C 
ENDROOT
BRANCH   4   7
ATOM      7  C   UNL     1      -3.334  11.885  19.768  0.00  0.00    +0.000 C 
ATOM      8  C   UNL     1      -3.491  12.686  21.071  0.00  0.00    +0.000 A 
ATOM      9  C   UNL     1      -2.783  12.561  22.260  0.00  0.00    +0.000 A 
ATOM     10  C   UNL     1      -3.196  13.312  23.363  0.00  0.00    +0.000 A 
ATOM     11  C   UNL     1      -4.317  14.154  23.278  0.00  0.00    +0.000 A 
ATOM     12  C   UNL     1      -5.025  14.282  22.080  0.00  0.00    +0.000 A 
ATOM     13  C   UNL     1      -4.599  13.558  20.979  0.00  0.00    +0.000 A 
ATOM     14  C   UNL     1      -5.252  13.346  19.709  0.00  0.00    +0.000 A 
ATOM     15  C   UNL     1      -6.273  14.037  19.081  0.00  0.00    +0.000 A 
ATOM     16  C   UNL     1      -6.830  13.485  17.925  0.00  0.00    +0.000 A 
ATOM     17  C   UNL     1      -6.422  12.223  17.467  0.00  0.00    +0.000 A 
ATOM     18  C   UNL     1      -5.351  11.561  18.071  0.00  0.00    +0.000 A 
ATOM     19  C   UNL     1      -4.701  12.192  19.122  0.00  0.00    +0.000 A 
ENDBRANCH   4   7
BRANCH   1  21
ATOM     20  C   UNL     1       1.668   9.138  18.342  0.00  0.00    +0.000 C 
ATOM     21  N   UNL     1       0.951   9.592  19.322  0.00  0.00    +0.000 NA
BRANCH  20  25
ATOM     22  C   UNL     1       3.977   5.635  18.971  0.00  0.00    +0.000 A 
ATOM     23  C   UNL     1       4.213   6.428  17.835  0.00  0.00    +0.000 A 
ATOM     24  C   UNL     1       3.418   7.545  17.566  0.00  0.00    +0.000 A 
ATOM     25  C   UNL     1       2.350   7.836  18.414  0.00  0.00    +0.000 A 
ATOM     26  C   UNL     1       2.031   6.987  19.465  0.00  0.00    +0.000 A 
ATOM     27  C   UNL     1       2.836   5.875  19.759  0.00  0.00    +0.000 A 
BRANCH  22  29
ATOM     28  C   UNL     1       4.514   3.350  18.779  0.00  0.00    +0.000 C 
ATOM     29  O   UNL     1       4.849   4.634  19.314  0.00  0.00    +0.000 OA
ENDBRANCH  22  29
BRANCH  27  30
ATOM     30  O   UNL     1       2.380   5.202  20.859  0.00  0.00    +0.000 OA
ATOM     31  C   UNL     1       1.416   4.175  20.692  0.00  0.00    +0.000 C 
ENDBRANCH  27  30
ENDBRANCH  20  25
ENDBRANCH   1  21
TORSDOF 5
ENDMDL
