MODEL 1
REMARK VINA RESULT:      -8.8      0.000      0.000
REMARK  Name = 
REMARK  5 active torsions:
REMARK  status: ('A' for Active; 'I' for Inactive)
REMARK    1  A    between atoms: C_1  and  C_2
REMARK    2  A    between atoms: C_5  and  N_6
REMARK    3  A    between atoms: C_8  and  C_9
REMARK    4  A    between atoms: C_12  and  C_13
REMARK    5  A    between atoms: C_13  and  C_14
REMARK                            x       y       z     vdW  Elec       q    Type
REMARK                         _______ _______ _______ _____ _____    ______ ____
ROOT
ATOM      1  N   UNL     1       5.583   4.687  18.102  0.00  0.00    +0.000 N 
ATOM      2  C   UNL     1       6.925   4.869  18.615  0.00  0.00    +0.000 C 
ATOM      3  C   UNL     1       7.701   5.530  17.487  0.00  0.00    +0.000 C 
ATOM      4  C   UNL     1       6.969   5.088  16.232  0.00  0.00    +0.000 C 
ATOM      5  C   UNL     1       5.559   4.828  16.706  0.00  0.00    +0.000 C 
ATOM      6  O   UNL     1       4.622   4.724  15.928  0.00  0.00    +0.000 OA
ENDROOT
BRANCH   1  11
ATOM      7  C   UNL     1       1.274   3.041  21.565  0.00  0.00    +0.000 C 
ATOM      8  C   UNL     1       2.380   3.465  20.645  0.00  0.00    +0.000 A 
ATOM      9  C   UNL     1       3.136   2.522  19.949  0.00  0.00    +0.000 A 
ATOM     10  C   UNL     1       4.175   2.925  19.101  0.00  0.00    +0.000 A 
ATOM     11  C   UNL     1       4.498   4.275  18.928  0.00  0.00    +0.000 A 
ATOM     12  C   UNL     1       3.718   5.216  19.621  0.00  0.00    +0.000 A 
ATOM     13  C   UNL     1       2.670   4.818  20.462  0.00  0.00    +0.000 A 
ENDBRANCH   1  11
BRANCH   3  14
ATOM     14  C   UNL     1       7.736   7.004  17.668  0.00  0.00    +0.000 A 
ATOM     15  N   UNL     1       7.190   7.933  16.913  0.00  0.00    +0.000 NA
ATOM     16  N   UNL     1       7.586   9.143  17.438  0.00  0.00    +0.000 NA
ATOM     17  C   UNL     1       8.351   8.867  18.473  0.00  0.00    +0.000 A 
ATOM     18  O   UNL     1       8.481   7.521  18.693  0.00  0.00    +0.000 OA
BRANCH  17  19
ATOM     19  C   UNL     1       9.061   9.785  19.394  0.00  0.00    +0.000 C 
BRANCH  19  20
ATOM     20  C   UNL     1       9.661  10.980  18.686  0.00  0.00    +0.000 A 
ATOM     21  C   UNL     1       8.837  12.022  18.230  0.00  0.00    +0.000 A 
ATOM     22  C   UNL     1       9.391  13.130  17.585  0.00  0.00    +0.000 A 
ATOM     23  C   UNL     1      10.768  13.199  17.385  0.00  0.00    +0.000 A 
ATOM     24 CL   UNL     1      11.451  14.574  16.609  0.00  0.00    +0.000 Cl
ATOM     25  C   UNL     1      11.594  12.161  17.810  0.00  0.00    +0.000 A 
ATOM     26  C   UNL     1      11.043  11.052  18.455  0.00  0.00    +0.000 A 
ENDBRANCH  19  20
ENDBRANCH  17  19
ENDBRANCH   3  14
TORSDOF 4
ENDMDL
MODEL 2
REMARK VINA RESULT:      -8.8      0.527      1.065
REMARK  Name = 
REMARK  5 active torsions:
REMARK  status: ('A' for Active; 'I' for Inactive)
REMARK    1  A    between atoms: C_1  and  C_2
REMARK    2  A    between atoms: C_5  and  N_6
REMARK    3  A    between atoms: C_8  and  C_9
REMARK    4  A    between atoms: C_12  and  C_13
REMARK    5  A    between atoms: C_13  and  C_14
REMARK                            x       y       z     vdW  Elec       q    Type
REMARK                         _______ _______ _______ _____ _____    ______ ____
ROOT
ATOM      1  N   UNL     1       5.687   4.983  18.225  0.00  0.00    +0.000 N 
ATOM      2  C   UNL     1       7.048   5.155  18.690  0.00  0.00    +0.000 C 
ATOM      3  C   UNL     1       7.773   5.868  17.560  0.00  0.00    +0.000 C 
ATOM      4  C   UNL     1       6.993   5.472  16.319  0.00  0.00    +0.000 C 
ATOM      5  C   UNL     1       5.605   5.181  16.838  0.00  0.00    +0.000 C 
ATOM      6  O   UNL     1       4.638   5.101  16.095  0.00  0.00    +0.000 OA
ENDROOT
BRANCH   1  11
ATOM      7  C   UNL     1       1.374   3.087  21.553  0.00  0.00    +0.000 C 
ATOM      8  C   UNL     1       2.507   3.589  20.708  0.00  0.00    +0.000 A 
ATOM      9  C   UNL     1       2.602   4.937  20.362  0.00  0.00    +0.000 A 
ATOM     10  C   UNL     1       3.656   5.396  19.563  0.00  0.00    +0.000 A 
ATOM     11  C   UNL     1       4.639   4.529  19.077  0.00  0.00    +0.000 A 
ATOM     12  C   UNL     1       4.542   3.177  19.446  0.00  0.00    +0.000 A 
ATOM     13  C   UNL     1       3.495   2.714  20.255  0.00  0.00    +0.000 A 
ENDBRANCH   1  11
BRANCH   3  14
ATOM     14  C   UNL     1       7.805   7.334  17.800  0.00  0.00    +0.000 A 
ATOM     15  N   UNL     1       7.186   8.285  17.135  0.00  0.00    +0.000 NA
ATOM     16  N   UNL     1       7.610   9.478  17.675  0.00  0.00    +0.000 NA
ATOM     17  C   UNL     1       8.464   9.172  18.629  0.00  0.00    +0.000 A 
ATOM     18  O   UNL     1       8.628   7.819  18.780  0.00  0.00    +0.000 OA
BRANCH  17  19
ATOM     19  C   UNL     1       9.239  10.060  19.525  0.00  0.00    +0.000 C 
BRANCH  19  20
ATOM     20  C   UNL     1       9.694  11.331  18.842  0.00  0.00    +0.000 A 
ATOM     21  C   UNL     1       9.109  12.564  19.172  0.00  0.00    +0.000 A 
ATOM     22  C   UNL     1       9.536  13.739  18.549  0.00  0.00    +0.000 A 
ATOM     23  C   UNL     1      10.542  13.687  17.587  0.00  0.00    +0.000 A 
ATOM     24 CL   UNL     1      11.081  15.137  16.835  0.00  0.00    +0.000 Cl
ATOM     25  C   UNL     1      11.114  12.467  17.231  0.00  0.00    +0.000 A 
ATOM     26  C   UNL     1      10.690  11.292  17.853  0.00  0.00    +0.000 A 
ENDBRANCH  19  20
ENDBRANCH  17  19
ENDBRANCH   3  14
TORSDOF 4
ENDMDL
MODEL 3
REMARK VINA RESULT:      -8.7      0.733      1.198
REMARK  Name = 
REMARK  5 active torsions:
REMARK  status: ('A' for Active; 'I' for Inactive)
REMARK    1  A    between atoms: C_1  and  C_2
REMARK    2  A    between atoms: C_5  and  N_6
REMARK    3  A    between atoms: C_8  and  C_9
REMARK    4  A    between atoms: C_12  and  C_13
REMARK    5  A    between atoms: C_13  and  C_14
REMARK                            x       y       z     vdW  Elec       q    Type
REMARK                         _______ _______ _______ _____ _____    ______ ____
ROOT
ATOM      1  N   UNL     1       5.512   4.513  17.696  0.00  0.00    +0.000 N 
ATOM      2  C   UNL     1       6.701   4.701  18.500  0.00  0.00    +0.000 C 
ATOM      3  C   UNL     1       7.731   5.307  17.559  0.00  0.00    +0.000 C 
ATOM      4  C   UNL     1       7.301   4.822  16.187  0.00  0.00    +0.000 C 
ATOM      5  C   UNL     1       5.815   4.597  16.329  0.00  0.00    +0.000 C 
ATOM      6  O   UNL     1       5.082   4.471  15.359  0.00  0.00    +0.000 OA
ENDROOT
BRANCH   1  11
ATOM      7  C   UNL     1       0.451   3.130  20.094  0.00  0.00    +0.000 C 
ATOM      8  C   UNL     1       1.763   3.472  19.452  0.00  0.00    +0.000 A 
ATOM      9  C   UNL     1       2.879   2.653  19.619  0.00  0.00    +0.000 A 
ATOM     10  C   UNL     1       4.103   2.986  19.027  0.00  0.00    +0.000 A 
ATOM     11  C   UNL     1       4.256   4.146  18.262  0.00  0.00    +0.000 A 
ATOM     12  C   UNL     1       3.121   4.955  18.088  0.00  0.00    +0.000 A 
ATOM     13  C   UNL     1       1.889   4.620  18.669  0.00  0.00    +0.000 A 
ENDBRANCH   1  11
BRANCH   3  14
ATOM     14  C   UNL     1       7.752   6.787  17.689  0.00  0.00    +0.000 A 
ATOM     15  N   UNL     1       7.249   7.686  16.870  0.00  0.00    +0.000 NA
ATOM     16  N   UNL     1       7.611   8.916  17.373  0.00  0.00    +0.000 NA
ATOM     17  C   UNL     1       8.315   8.680  18.461  0.00  0.00    +0.000 A 
ATOM     18  O   UNL     1       8.434   7.343  18.737  0.00  0.00    +0.000 OA
BRANCH  17  19
ATOM     19  C   UNL     1       8.968   9.633  19.388  0.00  0.00    +0.000 C 
BRANCH  19  20
ATOM     20  C   UNL     1       9.560  10.831  18.679  0.00  0.00    +0.000 A 
ATOM     21  C   UNL     1      10.951  10.957  18.537  0.00  0.00    +0.000 A 
ATOM     22  C   UNL     1      11.498  12.058  17.874  0.00  0.00    +0.000 A 
ATOM     23  C   UNL     1      10.659  13.043  17.359  0.00  0.00    +0.000 A 
ATOM     24 CL   UNL     1      11.332  14.389  16.525  0.00  0.00    +0.000 Cl
ATOM     25  C   UNL     1       9.278  12.944  17.514  0.00  0.00    +0.000 A 
ATOM     26  C   UNL     1       8.729  11.844  18.176  0.00  0.00    +0.000 A 
ENDBRANCH  19  20
ENDBRANCH  17  19
ENDBRANCH   3  14
TORSDOF 4
ENDMDL
MODEL 4
REMARK VINA RESULT:      -8.2     10.477     12.626
REMARK  Name = 
REMARK  5 active torsions:
REMARK  status: ('A' for Active; 'I' for Inactive)
REMARK    1  A    between atoms: C_1  and  C_2
REMARK    2  A    between atoms: C_5  and  N_6
REMARK    3  A    between atoms: C_8  and  C_9
REMARK    4  A    between atoms: C_12  and  C_13
REMARK    5  A    between atoms: C_13  and  C_14
REMARK                            x       y       z     vdW  Elec       q    Type
REMARK                         _______ _______ _______ _____ _____    ______ ____
ROOT
ATOM      1  N   UNL     1      -5.391  11.735  19.225  0.00  0.00    +0.000 N 
ATOM      2  C   UNL     1      -5.182  13.049  19.795  0.00  0.00    +0.000 C 
ATOM      3  C   UNL     1      -5.896  13.024  21.137  0.00  0.00    +0.000 C 
ATOM      4  C   UNL     1      -6.981  11.978  20.953  0.00  0.00    +0.000 C 
ATOM      5  C   UNL     1      -6.427  11.061  19.890  0.00  0.00    +0.000 C 
ATOM      6  O   UNL     1      -6.897   9.953  19.679  0.00  0.00    +0.000 OA
ENDROOT
BRANCH   1  11
ATOM      7  C   UNL     1      -2.762   9.867  14.442  0.00  0.00    +0.000 C 
ATOM      8  C   UNL     1      -3.425  10.365  15.691  0.00  0.00    +0.000 A 
ATOM      9  C   UNL     1      -3.139   9.796  16.932  0.00  0.00    +0.000 A 
ATOM     10  C   UNL     1      -3.771  10.258  18.093  0.00  0.00    +0.000 A 
ATOM     11  C   UNL     1      -4.711  11.292  18.053  0.00  0.00    +0.000 A 
ATOM     12  C   UNL     1      -4.979  11.869  16.800  0.00  0.00    +0.000 A 
ATOM     13  C   UNL     1      -4.340  11.417  15.637  0.00  0.00    +0.000 A 
ENDBRANCH   1  11
BRANCH   3  14
ATOM     14  C   UNL     1      -4.943  12.708  22.232  0.00  0.00    +0.000 A 
ATOM     15  N   UNL     1      -5.211  12.353  23.470  0.00  0.00    +0.000 NA
ATOM     16  N   UNL     1      -4.000  12.269  24.121  0.00  0.00    +0.000 NA
ATOM     17  C   UNL     1      -3.079  12.586  23.235  0.00  0.00    +0.000 A 
ATOM     18  O   UNL     1      -3.604  12.863  22.000  0.00  0.00    +0.000 OA
BRANCH  17  19
ATOM     19  C   UNL     1      -1.609  12.678  23.393  0.00  0.00    +0.000 C 
BRANCH  19  20
ATOM     20  C   UNL     1      -0.872  11.552  22.701  0.00  0.00    +0.000 A 
ATOM     21  C   UNL     1      -0.173  11.789  21.507  0.00  0.00    +0.000 A 
ATOM     22  C   UNL     1       0.516  10.753  20.873  0.00  0.00    +0.000 A 
ATOM     23  C   UNL     1       0.501   9.473  21.424  0.00  0.00    +0.000 A 
ATOM     24 CL   UNL     1       1.367   8.201  20.653  0.00  0.00    +0.000 Cl
ATOM     25  C   UNL     1      -0.209   9.218  22.595  0.00  0.00    +0.000 A 
ATOM     26  C   UNL     1      -0.898  10.252  23.230  0.00  0.00    +0.000 A 
ENDBRANCH  19  20
ENDBRANCH  17  19
ENDBRANCH   3  14
TORSDOF 4
ENDMDL
MODEL 5
REMARK VINA RESULT:      -8.1      5.474      8.057
REMARK  Name = 
REMARK  5 active torsions:
REMARK  status: ('A' for Active; 'I' for Inactive)
REMARK    1  A    between atoms: C_1  and  C_2
REMARK    2  A    between atoms: C_5  and  N_6
REMARK    3  A    between atoms: C_8  and  C_9
REMARK    4  A    between atoms: C_12  and  C_13
REMARK    5  A    between atoms: C_13  and  C_14
REMARK                            x       y       z     vdW  Elec       q    Type
REMARK                         _______ _______ _______ _____ _____    ______ ____
ROOT
ATOM      1  N   UNL     1       4.462   4.513  17.556  0.00  0.00    +0.000 N 
ATOM      2  C   UNL     1       3.019   4.578  17.455  0.00  0.00    +0.000 C 
ATOM      3  C   UNL     1       2.520   4.685  18.888  0.00  0.00    +0.000 C 
ATOM      4  C   UNL     1       3.616   4.024  19.705  0.00  0.00    +0.000 C 
ATOM      5  C   UNL     1       4.858   4.210  18.867  0.00  0.00    +0.000 C 
ATOM      6  O   UNL     1       5.980   4.053  19.327  0.00  0.00    +0.000 OA
ENDROOT
BRANCH   1  11
ATOM      7  C   UNL     1       7.849   5.014  12.913  0.00  0.00    +0.000 C 
ATOM      8  C   UNL     1       6.979   4.862  14.125  0.00  0.00    +0.000 A 
ATOM      9  C   UNL     1       5.845   4.050  14.097  0.00  0.00    +0.000 A 
ATOM     10  C   UNL     1       5.030   3.922  15.229  0.00  0.00    +0.000 A 
ATOM     11  C   UNL     1       5.314   4.604  16.417  0.00  0.00    +0.000 A 
ATOM     12  C   UNL     1       6.467   5.405  16.438  0.00  0.00    +0.000 A 
ATOM     13  C   UNL     1       7.292   5.527  15.311  0.00  0.00    +0.000 A 
ENDBRANCH   1  11
BRANCH   3  14
ATOM     14  C   UNL     1       2.277   6.104  19.254  0.00  0.00    +0.000 A 
ATOM     15  N   UNL     1       2.006   6.606  20.439  0.00  0.00    +0.000 NA
ATOM     16  N   UNL     1       1.766   7.949  20.247  0.00  0.00    +0.000 NA
ATOM     17  C   UNL     1       1.900   8.170  18.956  0.00  0.00    +0.000 A 
ATOM     18  O   UNL     1       2.242   7.041  18.257  0.00  0.00    +0.000 OA
BRANCH  17  19
ATOM     19  C   UNL     1       1.737   9.427  18.191  0.00  0.00    +0.000 C 
BRANCH  19  20
ATOM     20  C   UNL     1       0.379  10.063  18.388  0.00  0.00    +0.000 A 
ATOM     21  C   UNL     1       0.202  11.078  19.341  0.00  0.00    +0.000 A 
ATOM     22  C   UNL     1      -1.050  11.673  19.517  0.00  0.00    +0.000 A 
ATOM     23  C   UNL     1      -2.132  11.250  18.749  0.00  0.00    +0.000 A 
ATOM     24 CL   UNL     1      -3.668  11.997  18.952  0.00  0.00    +0.000 Cl
ATOM     25  C   UNL     1      -1.977  10.226  17.816  0.00  0.00    +0.000 A 
ATOM     26  C   UNL     1      -0.726   9.631  17.639  0.00  0.00    +0.000 A 
ENDBRANCH  19  20
ENDBRANCH  17  19
ENDBRANCH   3  14
TORSDOF 4
ENDMDL
MODEL 6
REMARK VINA RESULT:      -7.9      5.502      7.756
REMARK  Name = 
REMARK  5 active torsions:
REMARK  status: ('A' for Active; 'I' for Inactive)
REMARK    1  A    between atoms: C_1  and  C_2
REMARK    2  A    between atoms: C_5  and  N_6
REMARK    3  A    between atoms: C_8  and  C_9
REMARK    4  A    between atoms: C_12  and  C_13
REMARK    5  A    between atoms: C_13  and  C_14
REMARK                            x       y       z     vdW  Elec       q    Type
REMARK                         _______ _______ _______ _____ _____    ______ ____
ROOT
ATOM      1  N   UNL     1       4.992   4.379  17.163  0.00  0.00    +0.000 N 
ATOM      2  C   UNL     1       3.567   4.191  17.339  0.00  0.00    +0.000 C 
ATOM      3  C   UNL     1       3.311   4.417  18.821  0.00  0.00    +0.000 C 
ATOM      4  C   UNL     1       4.636   4.070  19.476  0.00  0.00    +0.000 C 
ATOM      5  C   UNL     1       5.657   4.336  18.397  0.00  0.00    +0.000 C 
ATOM      6  O   UNL     1       6.851   4.433  18.643  0.00  0.00    +0.000 OA
ENDROOT
BRANCH   1  11
ATOM      7  C   UNL     1       7.512   4.510  11.976  0.00  0.00    +0.000 C 
ATOM      8  C   UNL     1       6.848   4.499  13.320  0.00  0.00    +0.000 A 
ATOM      9  C   UNL     1       7.418   5.161  14.408  0.00  0.00    +0.000 A 
ATOM     10  C   UNL     1       6.799   5.136  15.663  0.00  0.00    +0.000 A 
ATOM     11  C   UNL     1       5.601   4.446  15.876  0.00  0.00    +0.000 A 
ATOM     12  C   UNL     1       5.028   3.798  14.770  0.00  0.00    +0.000 A 
ATOM     13  C   UNL     1       5.639   3.829  13.508  0.00  0.00    +0.000 A 
ENDBRANCH   1  11
BRANCH   3  14
ATOM     14  C   UNL     1       2.871   5.814  19.070  0.00  0.00    +0.000 A 
ATOM     15  N   UNL     1       2.419   6.340  20.187  0.00  0.00    +0.000 NA
ATOM     16  N   UNL     1       2.051   7.633  19.887  0.00  0.00    +0.000 NA
ATOM     17  C   UNL     1       2.299   7.802  18.605  0.00  0.00    +0.000 A 
ATOM     18  O   UNL     1       2.840   6.688  18.018  0.00  0.00    +0.000 OA
BRANCH  17  19
ATOM     19  C   UNL     1       2.079   8.991  17.749  0.00  0.00    +0.000 C 
BRANCH  19  20
ATOM     20  C   UNL     1       0.951   9.870  18.242  0.00  0.00    +0.000 A 
ATOM     21  C   UNL     1       1.219  10.975  19.065  0.00  0.00    +0.000 A 
ATOM     22  C   UNL     1       0.179  11.793  19.512  0.00  0.00    +0.000 A 
ATOM     23  C   UNL     1      -1.134  11.505  19.148  0.00  0.00    +0.000 A 
ATOM     24 CL   UNL     1      -2.413  12.524  19.683  0.00  0.00    +0.000 Cl
ATOM     25  C   UNL     1      -1.418  10.397  18.352  0.00  0.00    +0.000 A 
ATOM     26  C   UNL     1      -0.380   9.578  17.904  0.00  0.00    +0.000 A 
ENDBRANCH  19  20
ENDBRANCH  17  19
ENDBRANCH   3  14
TORSDOF 4
ENDMDL
MODEL 7
REMARK VINA RESULT:      -7.9      5.746      8.317
REMARK  Name = 
REMARK  5 active torsions:
REMARK  status: ('A' for Active; 'I' for Inactive)
REMARK    1  A    between atoms: C_1  and  C_2
REMARK    2  A    between atoms: C_5  and  N_6
REMARK    3  A    between atoms: C_8  and  C_9
REMARK    4  A    between atoms: C_12  and  C_13
REMARK    5  A    between atoms: C_13  and  C_14
REMARK                            x       y       z     vdW  Elec       q    Type
REMARK                         _______ _______ _______ _____ _____    ______ ____
ROOT
ATOM      1  N   UNL     1       3.928   5.032  18.140  0.00  0.00    +0.000 N 
ATOM      2  C   UNL     1       2.482   5.090  18.140  0.00  0.00    +0.000 C 
ATOM      3  C   UNL     1       2.089   5.353  19.585  0.00  0.00    +0.000 C 
ATOM      4  C   UNL     1       3.245   4.782  20.387  0.00  0.00    +0.000 C 
ATOM      5  C   UNL     1       4.421   4.872  19.444  0.00  0.00    +0.000 C 
ATOM      6  O   UNL     1       5.574   4.764  19.834  0.00  0.00    +0.000 OA
ENDROOT
BRANCH   1  11
ATOM      7  C   UNL     1       7.148   4.872  13.357  0.00  0.00    +0.000 C 
ATOM      8  C   UNL     1       6.290   4.916  14.587  0.00  0.00    +0.000 A 
ATOM      9  C   UNL     1       5.796   6.125  15.073  0.00  0.00    +0.000 A 
ATOM     10  C   UNL     1       5.006   6.160  16.229  0.00  0.00    +0.000 A 
ATOM     11  C   UNL     1       4.693   4.996  16.938  0.00  0.00    +0.000 A 
ATOM     12  C   UNL     1       5.183   3.783  16.429  0.00  0.00    +0.000 A 
ATOM     13  C   UNL     1       5.965   3.741  15.266  0.00  0.00    +0.000 A 
ENDBRANCH   1  11
BRANCH   3  14
ATOM     14  C   UNL     1       1.865   6.804  19.812  0.00  0.00    +0.000 A 
ATOM     15  N   UNL     1       1.630   7.426  20.947  0.00  0.00    +0.000 NA
ATOM     16  N   UNL     1       1.394   8.745  20.626  0.00  0.00    +0.000 NA
ATOM     17  C   UNL     1       1.496   8.833  19.316  0.00  0.00    +0.000 A 
ATOM     18  O   UNL     1       1.811   7.636  18.727  0.00  0.00    +0.000 OA
BRANCH  17  19
ATOM     19  C   UNL     1       1.321  10.008  18.432  0.00  0.00    +0.000 C 
BRANCH  19  20
ATOM     20  C   UNL     1      -0.119  10.459  18.332  0.00  0.00    +0.000 A 
ATOM     21  C   UNL     1      -1.034   9.746  17.540  0.00  0.00    +0.000 A 
ATOM     22  C   UNL     1      -2.366  10.157  17.454  0.00  0.00    +0.000 A 
ATOM     23  C   UNL     1      -2.789  11.286  18.152  0.00  0.00    +0.000 A 
ATOM     24 CL   UNL     1      -4.435  11.779  18.062  0.00  0.00    +0.000 Cl
ATOM     25  C   UNL     1      -1.887  12.017  18.922  0.00  0.00    +0.000 A 
ATOM     26  C   UNL     1      -0.555  11.609  19.009  0.00  0.00    +0.000 A 
ENDBRANCH  19  20
ENDBRANCH  17  19
ENDBRANCH   3  14
TORSDOF 4
ENDMDL
MODEL 8
REMARK VINA RESULT:      -7.9      5.242      7.104
REMARK  Name = 
REMARK  5 active torsions:
REMARK  status: ('A' for Active; 'I' for Inactive)
REMARK    1  A    between atoms: C_1  and  C_2
REMARK    2  A    between atoms: C_5  and  N_6
REMARK    3  A    between atoms: C_8  and  C_9
REMARK    4  A    between atoms: C_12  and  C_13
REMARK    5  A    between atoms: C_13  and  C_14
REMARK                            x       y       z     vdW  Elec       q    Type
REMARK                         _______ _______ _______ _____ _____    ______ ____
ROOT
ATOM      1  N   UNL     1       2.961   5.900  18.961  0.00  0.00    +0.000 N 
ATOM      2  C   UNL     1       4.070   5.553  19.824  0.00  0.00    +0.000 C 
ATOM      3  C   UNL     1       4.635   4.262  19.254  0.00  0.00    +0.000 C 
ATOM      4  C   UNL     1       3.453   3.629  18.543  0.00  0.00    +0.000 C 
ATOM      5  C   UNL     1       2.578   4.803  18.174  0.00  0.00    +0.000 C 
ATOM      6  O   UNL     1       1.679   4.709  17.352  0.00  0.00    +0.000 OA
ENDROOT
BRANCH   1  11
ATOM      7  C   UNL     1       0.373  11.044  19.305  0.00  0.00    +0.000 C 
ATOM      8  C   UNL     1       1.023   9.696  19.214  0.00  0.00    +0.000 A 
ATOM      9  C   UNL     1       1.104   8.862  20.329  0.00  0.00    +0.000 A 
ATOM     10  C   UNL     1       1.724   7.609  20.240  0.00  0.00    +0.000 A 
ATOM     11  C   UNL     1       2.289   7.154  19.044  0.00  0.00    +0.000 A 
ATOM     12  C   UNL     1       2.186   7.996  17.925  0.00  0.00    +0.000 A 
ATOM     13  C   UNL     1       1.556   9.246  18.006  0.00  0.00    +0.000 A 
ENDBRANCH   1  11
BRANCH   3  14
ATOM     14  C   UNL     1       5.787   4.544  18.360  0.00  0.00    +0.000 A 
ATOM     15  N   UNL     1       7.072   4.426  18.621  0.00  0.00    +0.000 NA
ATOM     16  N   UNL     1       7.739   4.900  17.512  0.00  0.00    +0.000 NA
ATOM     17  C   UNL     1       6.814   5.279  16.656  0.00  0.00    +0.000 A 
ATOM     18  O   UNL     1       5.541   5.068  17.120  0.00  0.00    +0.000 OA
BRANCH  17  19
ATOM     19  C   UNL     1       6.962   5.880  15.310  0.00  0.00    +0.000 C 
BRANCH  19  20
ATOM     20  C   UNL     1       6.636   4.912  14.195  0.00  0.00    +0.000 A 
ATOM     21  C   UNL     1       7.511   4.761  13.107  0.00  0.00    +0.000 A 
ATOM     22  C   UNL     1       7.216   3.860  12.081  0.00  0.00    +0.000 A 
ATOM     23  C   UNL     1       6.041   3.113  12.132  0.00  0.00    +0.000 A 
ATOM     24 CL   UNL     1       5.689   1.989  10.879  0.00  0.00    +0.000 Cl
ATOM     25  C   UNL     1       5.152   3.270  13.193  0.00  0.00    +0.000 A 
ATOM     26  C   UNL     1       5.445   4.170  14.220  0.00  0.00    +0.000 A 
ENDBRANCH  19  20
ENDBRANCH  17  19
ENDBRANCH   3  14
TORSDOF 4
ENDMDL
MODEL 9
REMARK VINA RESULT:      -7.7      5.507      7.241
REMARK  Name = 
REMARK  5 active torsions:
REMARK  status: ('A' for Active; 'I' for Inactive)
REMARK    1  A    between atoms: C_1  and  C_2
REMARK    2  A    between atoms: C_5  and  N_6
REMARK    3  A    between atoms: C_8  and  C_9
REMARK    4  A    between atoms: C_12  and  C_13
REMARK    5  A    between atoms: C_13  and  C_14
REMARK                            x       y       z     vdW  Elec       q    Type
REMARK                         _______ _______ _______ _____ _____    ______ ____
ROOT
ATOM      1  N   UNL     1       3.018   5.766  19.044  0.00  0.00    +0.000 N 
ATOM      2  C   UNL     1       4.237   5.400  19.734  0.00  0.00    +0.000 C 
ATOM      3  C   UNL     1       4.720   4.129  19.052  0.00  0.00    +0.000 C 
ATOM      4  C   UNL     1       3.451   3.511  18.493  0.00  0.00    +0.000 C 
ATOM      5  C   UNL     1       2.532   4.691  18.284  0.00  0.00    +0.000 C 
ATOM      6  O   UNL     1       1.527   4.616  17.593  0.00  0.00    +0.000 OA
ENDROOT
BRANCH   1  11
ATOM      7  C   UNL     1       0.231  10.744  19.900  0.00  0.00    +0.000 C 
ATOM      8  C   UNL     1       0.978   9.461  19.680  0.00  0.00    +0.000 A 
ATOM      9  C   UNL     1       1.558   9.172  18.445  0.00  0.00    +0.000 A 
ATOM     10  C   UNL     1       2.243   7.967  18.243  0.00  0.00    +0.000 A 
ATOM     11  C   UNL     1       2.362   7.013  19.258  0.00  0.00    +0.000 A 
ATOM     12  C   UNL     1       1.788   7.323  20.502  0.00  0.00    +0.000 A 
ATOM     13  C   UNL     1       1.111   8.533  20.713  0.00  0.00    +0.000 A 
ENDBRANCH   1  11
BRANCH   3  14
ATOM     14  C   UNL     1       5.736   4.445  18.016  0.00  0.00    +0.000 A 
ATOM     15  N   UNL     1       7.047   4.425  18.125  0.00  0.00    +0.000 NA
ATOM     16  N   UNL     1       7.544   4.890  16.927  0.00  0.00    +0.000 NA
ATOM     17  C   UNL     1       6.501   5.166  16.173  0.00  0.00    +0.000 A 
ATOM     18  O   UNL     1       5.310   4.892  16.795  0.00  0.00    +0.000 OA
BRANCH  17  19
ATOM     19  C   UNL     1       6.447   5.712  14.798  0.00  0.00    +0.000 C 
BRANCH  19  20
ATOM     20  C   UNL     1       6.401   4.632  13.738  0.00  0.00    +0.000 A 
ATOM     21  C   UNL     1       5.245   3.852  13.570  0.00  0.00    +0.000 A 
ATOM     22  C   UNL     1       5.198   2.862  12.586  0.00  0.00    +0.000 A 
ATOM     23  C   UNL     1       6.307   2.640  11.772  0.00  0.00    +0.000 A 
ATOM     24 CL   UNL     1       6.240   1.434  10.548  0.00  0.00    +0.000 Cl
ATOM     25  C   UNL     1       7.469   3.390  11.945  0.00  0.00    +0.000 A 
ATOM     26  C   UNL     1       7.518   4.380  12.928  0.00  0.00    +0.000 A 
ENDBRANCH  19  20
ENDBRANCH  17  19
ENDBRANCH   3  14
TORSDOF 4
ENDMDL
