MODEL 1
REMARK VINA RESULT:      -7.3      0.000      0.000
REMARK  Name = 
REMARK  7 active torsions:
REMARK  status: ('A' for Active; 'I' for Inactive)
REMARK    1  A    between atoms: C_1  and  C_2
REMARK    2  A    between atoms: C_2  and  O_3
REMARK    3  A    between atoms: O_3  and  C_4
REMARK    4  A    between atoms: C_7  and  C_8
REMARK    5  A    between atoms: N_10  and  C_11
REMARK    6  A    between atoms: C_18  and  C_19
REMARK    7  A    between atoms: N_24  and  C_25
REMARK                            x       y       z     vdW  Elec       q    Type
REMARK                         _______ _______ _______ _____ _____    ______ ____
ROOT
ATOM      1  C   UNL     1       0.371  12.286  19.198  0.00  0.00    +0.000 A 
ATOM      2  N   UNL     1       1.374  11.396  19.098  0.00  0.00    +0.000 NA
ATOM      3  N   UNL     1       0.791  10.176  19.213  0.00  0.00    +0.000 N 
ATOM      4  C   UNL     1      -0.546  10.287  19.497  0.00  0.00    +0.000 A 
ATOM      5  C   UNL     1      -0.863  11.622  19.468  0.00  0.00    +0.000 A 
ENDROOT
BRANCH   5   6
ATOM      6  C   UNL     1      -2.178  12.146  19.681  0.00  0.00    +0.000 C 
ATOM      7  C   UNL     1      -2.753  12.437  20.859  0.00  0.00    +0.000 C 
ATOM      8  S   UNL     1      -2.092  12.211  22.435  0.00  0.00    +0.000 S 
ATOM      9  C   UNL     1      -3.618  12.545  23.217  0.00  0.00    +0.000 C 
ATOM     10  O   UNL     1      -3.789  12.383  24.414  0.00  0.00    +0.000 OA
ATOM     11  N   UNL     1      -4.534  12.965  22.295  0.00  0.00    +0.000 N 
ATOM     12  C   UNL     1      -5.873  13.338  22.685  0.00  0.00    +0.000 C 
ATOM     13  C   UNL     1      -4.158  12.915  20.973  0.00  0.00    +0.000 C 
ATOM     14  O   UNL     1      -4.863  13.191  20.011  0.00  0.00    +0.000 OA
ENDBRANCH   5   6
BRANCH   1  18
ATOM     15  C   UNL     1       1.031  16.498  18.628  0.00  0.00    +0.000 A 
ATOM     16  C   UNL     1      -0.242  15.988  18.890  0.00  0.00    +0.000 A 
ATOM     17  C   UNL     1      -0.447  14.621  19.060  0.00  0.00    +0.000 A 
ATOM     18  C   UNL     1       0.616  13.718  18.990  0.00  0.00    +0.000 A 
ATOM     19  C   UNL     1       1.893  14.211  18.694  0.00  0.00    +0.000 A 
ATOM     20  C   UNL     1       2.097  15.591  18.514  0.00  0.00    +0.000 A 
ATOM     21 BR   UNL     1       3.858  16.182  18.113  0.00  0.00    +0.000 Br
BRANCH  15  22
ATOM     22  O   UNL     1       1.288  17.840  18.471  0.00  0.00    +0.000 OA
BRANCH  22  24
ATOM     23  C   UNL     1       0.685  18.549  16.239  0.00  0.00    +0.000 C 
ATOM     24  C   UNL     1       0.324  18.572  17.709  0.00  0.00    +0.000 C 
ENDBRANCH  22  24
ENDBRANCH  15  22
ENDBRANCH   1  18
BRANCH   3  25
ATOM     25  C   UNL     1       1.529   8.969  19.054  0.00  0.00    +0.000 A 
ATOM     26  C   UNL     1       2.207   8.716  17.856  0.00  0.00    +0.000 A 
ATOM     27  C   UNL     1       2.950   7.541  17.710  0.00  0.00    +0.000 A 
ATOM     28  C   UNL     1       3.010   6.613  18.749  0.00  0.00    +0.000 A 
ATOM     29  C   UNL     1       2.323   6.848  19.935  0.00  0.00    +0.000 A 
ATOM     30  C   UNL     1       1.581   8.021  20.089  0.00  0.00    +0.000 A 
ENDBRANCH   3  25
TORSDOF 5
ENDMDL
MODEL 2
REMARK VINA RESULT:      -7.2      3.533      5.111
REMARK  Name = 
REMARK  7 active torsions:
REMARK  status: ('A' for Active; 'I' for Inactive)
REMARK    1  A    between atoms: C_1  and  C_2
REMARK    2  A    between atoms: C_2  and  O_3
REMARK    3  A    between atoms: O_3  and  C_4
REMARK    4  A    between atoms: C_7  and  C_8
REMARK    5  A    between atoms: N_10  and  C_11
REMARK    6  A    between atoms: C_18  and  C_19
REMARK    7  A    between atoms: N_24  and  C_25
REMARK                            x       y       z     vdW  Elec       q    Type
REMARK                         _______ _______ _______ _____ _____    ______ ____
ROOT
ATOM      1  C   UNL     1      -0.304   9.886  18.929  0.00  0.00    +0.000 A 
ATOM      2  N   UNL     1       0.519   9.064  18.253  0.00  0.00    +0.000 NA
ATOM      3  N   UNL     1       1.447   8.656  19.155  0.00  0.00    +0.000 N 
ATOM      4  C   UNL     1       1.289   9.296  20.358  0.00  0.00    +0.000 A 
ATOM      5  C   UNL     1       0.162  10.072  20.265  0.00  0.00    +0.000 A 
ENDROOT
BRANCH   5   6
ATOM      6  C   UNL     1      -0.361  10.871  21.332  0.00  0.00    +0.000 C 
ATOM      7  C   UNL     1      -0.267  12.204  21.468  0.00  0.00    +0.000 C 
ATOM      8  S   UNL     1       0.552  13.310  20.429  0.00  0.00    +0.000 S 
ATOM      9  C   UNL     1       0.389  14.629  21.562  0.00  0.00    +0.000 C 
ATOM     10  O   UNL     1       0.946  15.703  21.401  0.00  0.00    +0.000 OA
ATOM     11  N   UNL     1      -0.402  14.251  22.610  0.00  0.00    +0.000 N 
ATOM     12  C   UNL     1      -0.722  15.169  23.676  0.00  0.00    +0.000 C 
ATOM     13  C   UNL     1      -0.788  12.932  22.656  0.00  0.00    +0.000 C 
ATOM     14  O   UNL     1      -1.440  12.402  23.546  0.00  0.00    +0.000 OA
ENDBRANCH   5   6
BRANCH   1  18
ATOM     15  C   UNL     1      -3.847  11.516  17.116  0.00  0.00    +0.000 A 
ATOM     16  C   UNL     1      -3.498  11.817  18.434  0.00  0.00    +0.000 A 
ATOM     17  C   UNL     1      -2.355  11.273  19.016  0.00  0.00    +0.000 A 
ATOM     18  C   UNL     1      -1.513  10.423  18.295  0.00  0.00    +0.000 A 
ATOM     19  C   UNL     1      -1.869  10.085  16.983  0.00  0.00    +0.000 A 
ATOM     20  C   UNL     1      -3.028  10.628  16.400  0.00  0.00    +0.000 A 
ATOM     21 BR   UNL     1      -3.445  10.119  14.617  0.00  0.00    +0.000 Br
BRANCH  15  22
ATOM     22  O   UNL     1      -4.955  12.040  16.491  0.00  0.00    +0.000 OA
BRANCH  22  24
ATOM     23  C   UNL     1      -6.694  13.620  17.059  0.00  0.00    +0.000 C 
ATOM     24  C   UNL     1      -6.096  12.256  17.326  0.00  0.00    +0.000 C 
ENDBRANCH  22  24
ENDBRANCH  15  22
ENDBRANCH   1  18
BRANCH   3  25
ATOM     25  C   UNL     1       2.438   7.686  18.833  0.00  0.00    +0.000 A 
ATOM     26  C   UNL     1       2.628   6.576  19.664  0.00  0.00    +0.000 A 
ATOM     27  C   UNL     1       3.585   5.612  19.333  0.00  0.00    +0.000 A 
ATOM     28  C   UNL     1       4.361   5.757  18.182  0.00  0.00    +0.000 A 
ATOM     29  C   UNL     1       4.191   6.867  17.363  0.00  0.00    +0.000 A 
ATOM     30  C   UNL     1       3.234   7.832  17.685  0.00  0.00    +0.000 A 
ENDBRANCH   3  25
TORSDOF 5
ENDMDL
MODEL 3
REMARK VINA RESULT:      -7.1      3.941      8.088
REMARK  Name = 
REMARK  7 active torsions:
REMARK  status: ('A' for Active; 'I' for Inactive)
REMARK    1  A    between atoms: C_1  and  C_2
REMARK    2  A    between atoms: C_2  and  O_3
REMARK    3  A    between atoms: O_3  and  C_4
REMARK    4  A    between atoms: C_7  and  C_8
REMARK    5  A    between atoms: N_10  and  C_11
REMARK    6  A    between atoms: C_18  and  C_19
REMARK    7  A    between atoms: N_24  and  C_25
REMARK                            x       y       z     vdW  Elec       q    Type
REMARK                         _______ _______ _______ _____ _____    ______ ____
ROOT
ATOM      1  C   UNL     1      -0.081  10.532  19.251  0.00  0.00    +0.000 A 
ATOM      2  N   UNL     1      -1.350  10.381  18.834  0.00  0.00    +0.000 NA
ATOM      3  N   UNL     1      -1.969  11.556  19.117  0.00  0.00    +0.000 N 
ATOM      4  C   UNL     1      -1.140  12.402  19.808  0.00  0.00    +0.000 A 
ATOM      5  C   UNL     1       0.089  11.796  19.891  0.00  0.00    +0.000 A 
ENDROOT
BRANCH   5   6
ATOM      6  C   UNL     1       1.240  12.381  20.511  0.00  0.00    +0.000 C 
ATOM      7  C   UNL     1       2.066  13.299  19.982  0.00  0.00    +0.000 C 
ATOM      8  S   UNL     1       2.002  13.983  18.401  0.00  0.00    +0.000 S 
ATOM      9  C   UNL     1       3.569  14.736  18.570  0.00  0.00    +0.000 C 
ATOM     10  O   UNL     1       4.138  15.280  17.637  0.00  0.00    +0.000 OA
ATOM     11  N   UNL     1       4.025  14.587  19.849  0.00  0.00    +0.000 N 
ATOM     12  C   UNL     1       5.289  15.146  20.264  0.00  0.00    +0.000 C 
ATOM     13  C   UNL     1       3.279  13.792  20.689  0.00  0.00    +0.000 C 
ATOM     14  O   UNL     1       3.562  13.496  21.842  0.00  0.00    +0.000 OA
ENDBRANCH   5   6
BRANCH   1  18
ATOM     15  C   UNL     1       2.901   7.539  18.446  0.00  0.00    +0.000 A 
ATOM     16  C   UNL     1       2.748   8.655  17.622  0.00  0.00    +0.000 A 
ATOM     17  C   UNL     1       1.770   9.612  17.884  0.00  0.00    +0.000 A 
ATOM     18  C   UNL     1       0.923   9.495  18.989  0.00  0.00    +0.000 A 
ATOM     19  C   UNL     1       1.042   8.362  19.805  0.00  0.00    +0.000 A 
ATOM     20  C   UNL     1       2.024   7.392  19.534  0.00  0.00    +0.000 A 
ATOM     21 BR   UNL     1       2.122   5.883  20.685  0.00  0.00    +0.000 Br
BRANCH  15  22
ATOM     22  O   UNL     1       3.862   6.576  18.240  0.00  0.00    +0.000 OA
BRANCH  22  24
ATOM     23  C   UNL     1       4.964   5.409  16.432  0.00  0.00    +0.000 C 
ATOM     24  C   UNL     1       4.674   6.748  17.076  0.00  0.00    +0.000 C 
ENDBRANCH  22  24
ENDBRANCH  15  22
ENDBRANCH   1  18
BRANCH   3  25
ATOM     25  C   UNL     1      -3.312  11.816  18.725  0.00  0.00    +0.000 A 
ATOM     26  C   UNL     1      -3.739  11.487  17.433  0.00  0.00    +0.000 A 
ATOM     27  C   UNL     1      -5.065  11.722  17.056  0.00  0.00    +0.000 A 
ATOM     28  C   UNL     1      -5.963  12.292  17.959  0.00  0.00    +0.000 A 
ATOM     29  C   UNL     1      -5.540  12.638  19.238  0.00  0.00    +0.000 A 
ATOM     30  C   UNL     1      -4.218  12.404  19.622  0.00  0.00    +0.000 A 
ENDBRANCH   3  25
TORSDOF 5
ENDMDL
MODEL 4
REMARK VINA RESULT:      -7.1      3.776      8.196
REMARK  Name = 
REMARK  7 active torsions:
REMARK  status: ('A' for Active; 'I' for Inactive)
REMARK    1  A    between atoms: C_1  and  C_2
REMARK    2  A    between atoms: C_2  and  O_3
REMARK    3  A    between atoms: O_3  and  C_4
REMARK    4  A    between atoms: C_7  and  C_8
REMARK    5  A    between atoms: N_10  and  C_11
REMARK    6  A    between atoms: C_18  and  C_19
REMARK    7  A    between atoms: N_24  and  C_25
REMARK                            x       y       z     vdW  Elec       q    Type
REMARK                         _______ _______ _______ _____ _____    ______ ____
ROOT
ATOM      1  C   UNL     1      -0.250  10.449  19.704  0.00  0.00    +0.000 A 
ATOM      2  N   UNL     1      -1.499  10.301  19.230  0.00  0.00    +0.000 NA
ATOM      3  N   UNL     1      -2.032  11.550  19.212  0.00  0.00    +0.000 N 
ATOM      4  C   UNL     1      -1.177  12.464  19.772  0.00  0.00    +0.000 A 
ATOM      5  C   UNL     1      -0.012  11.806  20.076  0.00  0.00    +0.000 A 
ENDROOT
BRANCH   5   6
ATOM      6  C   UNL     1       1.144  12.428  20.647  0.00  0.00    +0.000 C 
ATOM      7  C   UNL     1       1.971  13.302  20.052  0.00  0.00    +0.000 C 
ATOM      8  S   UNL     1       1.902  13.873  18.426  0.00  0.00    +0.000 S 
ATOM      9  C   UNL     1       3.472  14.630  18.534  0.00  0.00    +0.000 C 
ATOM     10  O   UNL     1       4.038  15.105  17.563  0.00  0.00    +0.000 OA
ATOM     11  N   UNL     1       3.934  14.570  19.818  0.00  0.00    +0.000 N 
ATOM     12  C   UNL     1       5.202  15.151  20.187  0.00  0.00    +0.000 C 
ATOM     13  C   UNL     1       3.189  13.839  20.715  0.00  0.00    +0.000 C 
ATOM     14  O   UNL     1       3.478  13.623  21.885  0.00  0.00    +0.000 OA
ENDBRANCH   5   6
BRANCH   1  18
ATOM     15  C   UNL     1       2.422   7.082  19.868  0.00  0.00    +0.000 A 
ATOM     16  C   UNL     1       1.596   7.410  20.944  0.00  0.00    +0.000 A 
ATOM     17  C   UNL     1       0.744   8.511  20.886  0.00  0.00    +0.000 A 
ATOM     18  C   UNL     1       0.676   9.311  19.743  0.00  0.00    +0.000 A 
ATOM     19  C   UNL     1       1.524   9.014  18.668  0.00  0.00    +0.000 A 
ATOM     20  C   UNL     1       2.391   7.908  18.732  0.00  0.00    +0.000 A 
ATOM     21 BR   UNL     1       3.511   7.572  17.235  0.00  0.00    +0.000 Br
BRANCH  15  22
ATOM     22  O   UNL     1       3.267   5.996  19.869  0.00  0.00    +0.000 OA
BRANCH  22  24
ATOM     23  C   UNL     1       2.671   4.037  18.583  0.00  0.00    +0.000 C 
ATOM     24  C   UNL     1       2.633   4.716  19.936  0.00  0.00    +0.000 C 
ENDBRANCH  22  24
ENDBRANCH  15  22
ENDBRANCH   1  18
BRANCH   3  25
ATOM     25  C   UNL     1      -3.322  11.812  18.670  0.00  0.00    +0.000 A 
ATOM     26  C   UNL     1      -3.591  11.514  17.329  0.00  0.00    +0.000 A 
ATOM     27  C   UNL     1      -4.865  11.751  16.805  0.00  0.00    +0.000 A 
ATOM     28  C   UNL     1      -5.867  12.295  17.609  0.00  0.00    +0.000 A 
ATOM     29  C   UNL     1      -5.601  12.612  18.936  0.00  0.00    +0.000 A 
ATOM     30  C   UNL     1      -4.331  12.374  19.467  0.00  0.00    +0.000 A 
ENDBRANCH   3  25
TORSDOF 5
ENDMDL
MODEL 5
REMARK VINA RESULT:      -7.1      1.126      1.425
REMARK  Name = 
REMARK  7 active torsions:
REMARK  status: ('A' for Active; 'I' for Inactive)
REMARK    1  A    between atoms: C_1  and  C_2
REMARK    2  A    between atoms: C_2  and  O_3
REMARK    3  A    between atoms: O_3  and  C_4
REMARK    4  A    between atoms: C_7  and  C_8
REMARK    5  A    between atoms: N_10  and  C_11
REMARK    6  A    between atoms: C_18  and  C_19
REMARK    7  A    between atoms: N_24  and  C_25
REMARK                            x       y       z     vdW  Elec       q    Type
REMARK                         _______ _______ _______ _____ _____    ______ ____
ROOT
ATOM      1  C   UNL     1       0.221  12.408  19.338  0.00  0.00    +0.000 A 
ATOM      2  N   UNL     1       1.235  11.532  19.226  0.00  0.00    +0.000 NA
ATOM      3  N   UNL     1       0.665  10.302  19.312  0.00  0.00    +0.000 N 
ATOM      4  C   UNL     1      -0.674  10.393  19.590  0.00  0.00    +0.000 A 
ATOM      5  C   UNL     1      -1.006  11.724  19.588  0.00  0.00    +0.000 A 
ENDROOT
BRANCH   5   6
ATOM      6  C   UNL     1      -2.328  12.229  19.803  0.00  0.00    +0.000 C 
ATOM      7  C   UNL     1      -2.926  12.458  20.984  0.00  0.00    +0.000 C 
ATOM      8  S   UNL     1      -2.289  12.157  22.558  0.00  0.00    +0.000 S 
ATOM      9  C   UNL     1      -3.830  12.443  23.330  0.00  0.00    +0.000 C 
ATOM     10  O   UNL     1      -4.021  12.220  24.514  0.00  0.00    +0.000 OA
ATOM     11  N   UNL     1      -4.734  12.903  22.415  0.00  0.00    +0.000 N 
ATOM     12  C   UNL     1      -6.082  13.247  22.799  0.00  0.00    +0.000 C 
ATOM     13  C   UNL     1      -4.335  12.921  21.098  0.00  0.00    +0.000 C 
ATOM     14  O   UNL     1      -5.025  13.240  20.139  0.00  0.00    +0.000 OA
ENDBRANCH   5   6
BRANCH   1  18
ATOM     15  C   UNL     1       0.948  16.610  18.776  0.00  0.00    +0.000 A 
ATOM     16  C   UNL     1       1.950  15.662  18.563  0.00  0.00    +0.000 A 
ATOM     17  C   UNL     1       1.708  14.304  18.761  0.00  0.00    +0.000 A 
ATOM     18  C   UNL     1       0.451  13.846  19.162  0.00  0.00    +0.000 A 
ATOM     19  C   UNL     1      -0.555  14.789  19.413  0.00  0.00    +0.000 A 
ATOM     20  C   UNL     1      -0.306  16.160  19.221  0.00  0.00    +0.000 A 
ATOM     21 BR   UNL     1      -1.721  17.376  19.584  0.00  0.00    +0.000 Br
BRANCH  15  22
ATOM     22  O   UNL     1       1.131  17.959  18.578  0.00  0.00    +0.000 OA
BRANCH  22  24
ATOM     23  C   UNL     1       0.112  18.445  16.440  0.00  0.00    +0.000 C 
ATOM     24  C   UNL     1       1.400  18.357  17.231  0.00  0.00    +0.000 C 
ENDBRANCH  22  24
ENDBRANCH  15  22
ENDBRANCH   1  18
BRANCH   3  25
ATOM     25  C   UNL     1       1.417   9.107  19.131  0.00  0.00    +0.000 A 
ATOM     26  C   UNL     1       2.072   8.869  17.918  0.00  0.00    +0.000 A 
ATOM     27  C   UNL     1       2.829   7.706  17.750  0.00  0.00    +0.000 A 
ATOM     28  C   UNL     1       2.927   6.775  18.785  0.00  0.00    +0.000 A 
ATOM     29  C   UNL     1       2.263   6.996  19.986  0.00  0.00    +0.000 A 
ATOM     30  C   UNL     1       1.508   8.158  20.162  0.00  0.00    +0.000 A 
ENDBRANCH   3  25
TORSDOF 5
ENDMDL
MODEL 6
REMARK VINA RESULT:      -7.1      1.490      2.305
REMARK  Name = 
REMARK  7 active torsions:
REMARK  status: ('A' for Active; 'I' for Inactive)
REMARK    1  A    between atoms: C_1  and  C_2
REMARK    2  A    between atoms: C_2  and  O_3
REMARK    3  A    between atoms: O_3  and  C_4
REMARK    4  A    between atoms: C_7  and  C_8
REMARK    5  A    between atoms: N_10  and  C_11
REMARK    6  A    between atoms: C_18  and  C_19
REMARK    7  A    between atoms: N_24  and  C_25
REMARK                            x       y       z     vdW  Elec       q    Type
REMARK                         _______ _______ _______ _____ _____    ______ ____
ROOT
ATOM      1  C   UNL     1       0.434  12.403  19.398  0.00  0.00    +0.000 A 
ATOM      2  N   UNL     1       1.409  11.512  19.147  0.00  0.00    +0.000 NA
ATOM      3  N   UNL     1       0.858  10.293  19.380  0.00  0.00    +0.000 N 
ATOM      4  C   UNL     1      -0.413  10.410  19.882  0.00  0.00    +0.000 A 
ATOM      5  C   UNL     1      -0.734  11.744  19.884  0.00  0.00    +0.000 A 
ENDROOT
BRANCH   5   6
ATOM      6  C   UNL     1      -1.997  12.272  20.305  0.00  0.00    +0.000 C 
ATOM      7  C   UNL     1      -3.170  12.179  19.659  0.00  0.00    +0.000 C 
ATOM      8  S   UNL     1      -3.470  11.450  18.125  0.00  0.00    +0.000 S 
ATOM      9  C   UNL     1      -5.087  12.103  18.034  0.00  0.00    +0.000 C 
ATOM     10  O   UNL     1      -5.771  12.019  17.027  0.00  0.00    +0.000 OA
ATOM     11  N   UNL     1      -5.412  12.714  19.212  0.00  0.00    +0.000 N 
ATOM     12  C   UNL     1      -6.710  13.313  19.412  0.00  0.00    +0.000 C 
ATOM     13  C   UNL     1      -4.415  12.826  20.153  0.00  0.00    +0.000 C 
ATOM     14  O   UNL     1      -4.504  13.394  21.234  0.00  0.00    +0.000 OA
ENDBRANCH   5   6
BRANCH   1  18
ATOM     15  C   UNL     1       0.966  16.603  18.640  0.00  0.00    +0.000 A 
ATOM     16  C   UNL     1      -0.295  16.063  18.893  0.00  0.00    +0.000 A 
ATOM     17  C   UNL     1      -0.459  14.698  19.124  0.00  0.00    +0.000 A 
ATOM     18  C   UNL     1       0.636  13.831  19.127  0.00  0.00    +0.000 A 
ATOM     19  C   UNL     1       1.904  14.354  18.841  0.00  0.00    +0.000 A 
ATOM     20  C   UNL     1       2.066  15.730  18.599  0.00  0.00    +0.000 A 
ATOM     21 BR   UNL     1       3.817  16.363  18.216  0.00  0.00    +0.000 Br
BRANCH  15  22
ATOM     22  O   UNL     1       1.182  17.945  18.424  0.00  0.00    +0.000 OA
BRANCH  22  24
ATOM     23  C   UNL     1       0.706  18.460  16.111  0.00  0.00    +0.000 C 
ATOM     24  C   UNL     1       0.253  18.590  17.549  0.00  0.00    +0.000 C 
ENDBRANCH  22  24
ENDBRANCH  15  22
ENDBRANCH   1  18
BRANCH   3  25
ATOM     25  C   UNL     1       1.562   9.084  19.120  0.00  0.00    +0.000 A 
ATOM     26  C   UNL     1       1.629   8.089  20.102  0.00  0.00    +0.000 A 
ATOM     27  C   UNL     1       2.301   6.892  19.837  0.00  0.00    +0.000 A 
ATOM     28  C   UNL     1       2.915   6.689  18.600  0.00  0.00    +0.000 A 
ATOM     29  C   UNL     1       2.869   7.681  17.628  0.00  0.00    +0.000 A 
ATOM     30  C   UNL     1       2.196   8.878  17.884  0.00  0.00    +0.000 A 
ENDBRANCH   3  25
TORSDOF 5
ENDMDL
MODEL 7
REMARK VINA RESULT:      -7.0      2.876      5.641
REMARK  Name = 
REMARK  7 active torsions:
REMARK  status: ('A' for Active; 'I' for Inactive)
REMARK    1  A    between atoms: C_1  and  C_2
REMARK    2  A    between atoms: C_2  and  O_3
REMARK    3  A    between atoms: O_3  and  C_4
REMARK    4  A    between atoms: C_7  and  C_8
REMARK    5  A    between atoms: N_10  and  C_11
REMARK    6  A    between atoms: C_18  and  C_19
REMARK    7  A    between atoms: N_24  and  C_25
REMARK                            x       y       z     vdW  Elec       q    Type
REMARK                         _______ _______ _______ _____ _____    ______ ____
ROOT
ATOM      1  C   UNL     1      -0.875  11.408  18.775  0.00  0.00    +0.000 A 
ATOM      2  N   UNL     1      -0.494  10.120  18.713  0.00  0.00    +0.000 NA
ATOM      3  N   UNL     1       0.863  10.141  18.719  0.00  0.00    +0.000 N 
ATOM      4  C   UNL     1       1.342  11.425  18.668  0.00  0.00    +0.000 A 
ATOM      5  C   UNL     1       0.262  12.269  18.731  0.00  0.00    +0.000 A 
ENDROOT
BRANCH   5   6
ATOM      6  C   UNL     1       0.351  13.699  18.740  0.00  0.00    +0.000 C 
ATOM      7  C   UNL     1       0.589  14.488  19.800  0.00  0.00    +0.000 C 
ATOM      8  S   UNL     1       0.799  14.008  21.442  0.00  0.00    +0.000 S 
ATOM      9  C   UNL     1       0.715  15.652  22.025  0.00  0.00    +0.000 C 
ATOM     10  O   UNL     1       0.663  15.924  23.213  0.00  0.00    +0.000 OA
ATOM     11  N   UNL     1       0.689  16.521  20.971  0.00  0.00    +0.000 N 
ATOM     12  C   UNL     1       0.651  17.949  21.178  0.00  0.00    +0.000 C 
ATOM     13  C   UNL     1       0.593  15.974  19.712  0.00  0.00    +0.000 C 
ATOM     14  O   UNL     1       0.495  16.593  18.662  0.00  0.00    +0.000 OA
ENDBRANCH   5   6
BRANCH   1  18
ATOM     15  C   UNL     1      -5.043  12.402  19.142  0.00  0.00    +0.000 A 
ATOM     16  C   UNL     1      -4.542  11.769  18.003  0.00  0.00    +0.000 A 
ATOM     17  C   UNL     1      -3.188  11.464  17.888  0.00  0.00    +0.000 A 
ATOM     18  C   UNL     1      -2.291  11.765  18.915  0.00  0.00    +0.000 A 
ATOM     19  C   UNL     1      -2.774  12.431  20.050  0.00  0.00    +0.000 A 
ATOM     20  C   UNL     1      -4.140  12.746  20.160  0.00  0.00    +0.000 A 
ATOM     21 BR   UNL     1      -4.717  13.651  21.729  0.00  0.00    +0.000 Br
BRANCH  15  22
ATOM     22  O   UNL     1      -6.374  12.708  19.310  0.00  0.00    +0.000 OA
BRANCH  22  24
ATOM     23  C   UNL     1      -7.557  11.096  20.669  0.00  0.00    +0.000 C 
ATOM     24  C   UNL     1      -7.277  11.599  19.270  0.00  0.00    +0.000 C 
ENDBRANCH  22  24
ENDBRANCH  15  22
ENDBRANCH   1  18
BRANCH   3  25
ATOM     25  C   UNL     1       1.637   8.947  18.767  0.00  0.00    +0.000 A 
ATOM     26  C   UNL     1       1.612   8.143  19.912  0.00  0.00    +0.000 A 
ATOM     27  C   UNL     1       2.353   6.959  19.949  0.00  0.00    +0.000 A 
ATOM     28  C   UNL     1       3.128   6.579  18.852  0.00  0.00    +0.000 A 
ATOM     29  C   UNL     1       3.173   7.383  17.719  0.00  0.00    +0.000 A 
ATOM     30  C   UNL     1       2.431   8.566  17.674  0.00  0.00    +0.000 A 
ENDBRANCH   3  25
TORSDOF 5
ENDMDL
MODEL 8
REMARK VINA RESULT:      -6.9      3.785      7.994
REMARK  Name = 
REMARK  7 active torsions:
REMARK  status: ('A' for Active; 'I' for Inactive)
REMARK    1  A    between atoms: C_1  and  C_2
REMARK    2  A    between atoms: C_2  and  O_3
REMARK    3  A    between atoms: O_3  and  C_4
REMARK    4  A    between atoms: C_7  and  C_8
REMARK    5  A    between atoms: N_10  and  C_11
REMARK    6  A    between atoms: C_18  and  C_19
REMARK    7  A    between atoms: N_24  and  C_25
REMARK                            x       y       z     vdW  Elec       q    Type
REMARK                         _______ _______ _______ _____ _____    ______ ____
ROOT
ATOM      1  C   UNL     1      -0.256  10.638  19.046  0.00  0.00    +0.000 A 
ATOM      2  N   UNL     1      -1.591  10.472  19.052  0.00  0.00    +0.000 NA
ATOM      3  N   UNL     1      -2.108  11.668  18.669  0.00  0.00    +0.000 N 
ATOM      4  C   UNL     1      -1.126  12.615  18.534  0.00  0.00    +0.000 A 
ATOM      5  C   UNL     1       0.079  11.990  18.738  0.00  0.00    +0.000 A 
ENDROOT
BRANCH   5   6
ATOM      6  C   UNL     1       1.352  12.639  18.647  0.00  0.00    +0.000 C 
ATOM      7  C   UNL     1       1.994  13.305  19.620  0.00  0.00    +0.000 C 
ATOM      8  S   UNL     1       1.442  13.608  21.225  0.00  0.00    +0.000 S 
ATOM      9  C   UNL     1       2.734  14.739  21.548  0.00  0.00    +0.000 C 
ATOM     10  O   UNL     1       2.769  15.421  22.559  0.00  0.00    +0.000 OA
ATOM     11  N   UNL     1       3.624  14.741  20.512  0.00  0.00    +0.000 N 
ATOM     12  C   UNL     1       4.806  15.569  20.541  0.00  0.00    +0.000 C 
ATOM     13  C   UNL     1       3.289  14.004  19.400  0.00  0.00    +0.000 C 
ATOM     14  O   UNL     1       3.928  13.938  18.358  0.00  0.00    +0.000 OA
ENDBRANCH   5   6
BRANCH   1  18
ATOM     15  C   UNL     1       2.330   7.287  19.809  0.00  0.00    +0.000 A 
ATOM     16  C   UNL     1       1.482   7.793  20.796  0.00  0.00    +0.000 A 
ATOM     17  C   UNL     1       0.658   8.888  20.542  0.00  0.00    +0.000 A 
ATOM     18  C   UNL     1       0.641   9.503  19.289  0.00  0.00    +0.000 A 
ATOM     19  C   UNL     1       1.511   9.027  18.299  0.00  0.00    +0.000 A 
ATOM     20  C   UNL     1       2.349   7.928  18.560  0.00  0.00    +0.000 A 
ATOM     21 BR   UNL     1       3.503   7.343  17.167  0.00  0.00    +0.000 Br
BRANCH  15  22
ATOM     22  O   UNL     1       3.149   6.199  20.004  0.00  0.00    +0.000 OA
BRANCH  22  24
ATOM     23  C   UNL     1       2.022   4.262  19.096  0.00  0.00    +0.000 C 
ATOM     24  C   UNL     1       2.488   4.978  20.346  0.00  0.00    +0.000 C 
ENDBRANCH  22  24
ENDBRANCH  15  22
ENDBRANCH   1  18
BRANCH   3  25
ATOM     25  C   UNL     1      -3.503  11.853  18.457  0.00  0.00    +0.000 A 
ATOM     26  C   UNL     1      -4.314  12.314  19.501  0.00  0.00    +0.000 A 
ATOM     27  C   UNL     1      -5.680  12.518  19.284  0.00  0.00    +0.000 A 
ATOM     28  C   UNL     1      -6.242  12.254  18.035  0.00  0.00    +0.000 A 
ATOM     29  C   UNL     1      -5.446  11.778  16.999  0.00  0.00    +0.000 A 
ATOM     30  C   UNL     1      -4.080  11.575  17.208  0.00  0.00    +0.000 A 
ENDBRANCH   3  25
TORSDOF 5
ENDMDL
MODEL 9
REMARK VINA RESULT:      -6.9      3.081      5.137
REMARK  Name = 
REMARK  7 active torsions:
REMARK  status: ('A' for Active; 'I' for Inactive)
REMARK    1  A    between atoms: C_1  and  C_2
REMARK    2  A    between atoms: C_2  and  O_3
REMARK    3  A    between atoms: O_3  and  C_4
REMARK    4  A    between atoms: C_7  and  C_8
REMARK    5  A    between atoms: N_10  and  C_11
REMARK    6  A    between atoms: C_18  and  C_19
REMARK    7  A    between atoms: N_24  and  C_25
REMARK                            x       y       z     vdW  Elec       q    Type
REMARK                         _______ _______ _______ _____ _____    ______ ____
ROOT
ATOM      1  C   UNL     1      -0.738  11.037  18.355  0.00  0.00    +0.000 A 
ATOM      2  N   UNL     1      -0.293   9.774  18.228  0.00  0.00    +0.000 NA
ATOM      3  N   UNL     1       1.025   9.818  18.552  0.00  0.00    +0.000 N 
ATOM      4  C   UNL     1       1.442  11.106  18.769  0.00  0.00    +0.000 A 
ATOM      5  C   UNL     1       0.338  11.916  18.681  0.00  0.00    +0.000 A 
ENDROOT
BRANCH   5   6
ATOM      6  C   UNL     1       0.355  13.334  18.884  0.00  0.00    +0.000 C 
ATOM      7  C   UNL     1       0.325  13.984  20.058  0.00  0.00    +0.000 C 
ATOM      8  S   UNL     1       0.204  13.299  21.636  0.00  0.00    +0.000 S 
ATOM      9  C   UNL     1      -0.078  14.852  22.383  0.00  0.00    +0.000 C 
ATOM     10  O   UNL     1      -0.394  14.967  23.556  0.00  0.00    +0.000 OA
ATOM     11  N   UNL     1       0.078  15.850  21.463  0.00  0.00    +0.000 N 
ATOM     12  C   UNL     1      -0.070  17.238  21.829  0.00  0.00    +0.000 C 
ATOM     13  C   UNL     1       0.277  15.468  20.156  0.00  0.00    +0.000 C 
ATOM     14  O   UNL     1       0.375  16.216  19.193  0.00  0.00    +0.000 OA
ENDBRANCH   5   6
BRANCH   1  18
ATOM     15  C   UNL     1      -4.922  11.901  17.859  0.00  0.00    +0.000 A 
ATOM     16  C   UNL     1      -4.141  11.444  16.796  0.00  0.00    +0.000 A 
ATOM     17  C   UNL     1      -2.783  11.180  16.964  0.00  0.00    +0.000 A 
ATOM     18  C   UNL     1      -2.163  11.347  18.205  0.00  0.00    +0.000 A 
ATOM     19  C   UNL     1      -2.927  11.837  19.272  0.00  0.00    +0.000 A 
ATOM     20  C   UNL     1      -4.296  12.112  19.099  0.00  0.00    +0.000 A 
ATOM     21 BR   UNL     1      -5.263  12.776  20.594  0.00  0.00    +0.000 Br
BRANCH  15  22
ATOM     22  O   UNL     1      -6.269  12.159  17.749  0.00  0.00    +0.000 OA
BRANCH  22  24
ATOM     23  C   UNL     1      -7.068  14.441  17.757  0.00  0.00    +0.000 C 
ATOM     24  C   UNL     1      -6.623  13.264  16.914  0.00  0.00    +0.000 C 
ENDBRANCH  22  24
ENDBRANCH  15  22
ENDBRANCH   1  18
BRANCH   3  25
ATOM     25  C   UNL     1       1.823   8.642  18.633  0.00  0.00    +0.000 A 
ATOM     26  C   UNL     1       2.692   8.312  17.587  0.00  0.00    +0.000 A 
ATOM     27  C   UNL     1       3.492   7.169  17.679  0.00  0.00    +0.000 A 
ATOM     28  C   UNL     1       3.419   6.348  18.805  0.00  0.00    +0.000 A 
ATOM     29  C   UNL     1       2.543   6.659  19.838  0.00  0.00    +0.000 A 
ATOM     30  C   UNL     1       1.744   7.801  19.755  0.00  0.00    +0.000 A 
ENDBRANCH   3  25
TORSDOF 5
ENDMDL
