MODEL 1
REMARK VINA RESULT:      -8.7      0.000      0.000
REMARK  Name = 
REMARK  8 active torsions:
REMARK  status: ('A' for Active; 'I' for Inactive)
REMARK    1  A    between atoms: C_1  and  O_2
REMARK    2  A    between atoms: O_2  and  C_3
REMARK    3  A    between atoms: C_6  and  C_7
REMARK    4  A    between atoms: C_7  and  C_9
REMARK    5  A    between atoms: C_10  and  C_11
REMARK    6  A    between atoms: C_15  and  N_16
REMARK    7  A    between atoms: C_24  and  C_25
REMARK    8  A    between atoms: C_24  and  C_26
REMARK                            x       y       z     vdW  Elec       q    Type
REMARK                         _______ _______ _______ _____ _____    ______ ____
ROOT
ATOM      1  C   UNL     1       2.367   7.561  18.926  0.00  0.00    +0.000 A 
ATOM      2  C   UNL     1       3.329   7.890  17.964  0.00  0.00    +0.000 A 
ATOM      3  C   UNL     1       4.325   6.978  17.614  0.00  0.00    +0.000 A 
ATOM      4  C   UNL     1       4.376   5.718  18.217  0.00  0.00    +0.000 A 
ATOM      5  C   UNL     1       3.434   5.396  19.208  0.00  0.00    +0.000 A 
ATOM      6  C   UNL     1       2.444   6.322  19.589  0.00  0.00    +0.000 A 
ATOM      7  C   UNL     1       1.532   5.956  20.680  0.00  0.00    +0.000 C 
ATOM      8  C   UNL     1       1.479   4.673  21.058  0.00  0.00    +0.000 C 
ATOM      9  C   UNL     1       2.323   3.622  20.382  0.00  0.00    +0.000 C 
ATOM     10  C   UNL     1       1.523   2.945  19.259  0.00  0.00    +0.000 C 
ATOM     11  C   UNL     1       2.792   2.556  21.379  0.00  0.00    +0.000 C 
ATOM     12  O   UNL     1       3.537   4.175  19.830  0.00  0.00    +0.000 OA
ENDROOT
BRANCH   1  14
ATOM     13  C   UNL     1       1.278   9.617  18.512  0.00  0.00    +0.000 C 
ATOM     14  O   UNL     1       1.342   8.409  19.270  0.00  0.00    +0.000 OA
ENDBRANCH   1  14
BRANCH   4  15
ATOM     15  C   UNL     1       5.454   4.791  17.762  0.00  0.00    +0.000 C 
ATOM     16  O   UNL     1       6.273   4.354  18.566  0.00  0.00    +0.000 OA
BRANCH  15  17
ATOM     17  C   UNL     1       5.567   4.508  16.308  0.00  0.00    +0.000 C 
ATOM     18  C   UNL     1       6.678   4.804  15.616  0.00  0.00    +0.000 C 
BRANCH  18  19
ATOM     19  C   UNL     1       6.815   4.535  14.176  0.00  0.00    +0.000 A 
ATOM     20  C   UNL     1       7.733   5.277  13.417  0.00  0.00    +0.000 A 
ATOM     21  C   UNL     1       7.868   5.060  12.040  0.00  0.00    +0.000 A 
ATOM     22  C   UNL     1       7.084   4.101  11.400  0.00  0.00    +0.000 A 
ATOM     23  C   UNL     1       6.161   3.364  12.148  0.00  0.00    +0.000 A 
ATOM     24  C   UNL     1       6.018   3.583  13.526  0.00  0.00    +0.000 A 
BRANCH  23  25
ATOM     25  N   UNL     1       5.332   2.347  11.492  0.00  0.00    +0.000 N 
ATOM     26  O   UNL     1       4.193   2.677  11.132  0.00  0.00    +0.000 OA
ATOM     27  O   UNL     1       5.821   1.221  11.328  0.00  0.00    +0.000 OA
ENDBRANCH  23  25
ENDBRANCH  18  19
ENDBRANCH  15  17
ENDBRANCH   4  15
TORSDOF 5
ENDMDL
MODEL 2
REMARK VINA RESULT:      -8.1      3.605      8.125
REMARK  Name = 
REMARK  8 active torsions:
REMARK  status: ('A' for Active; 'I' for Inactive)
REMARK    1  A    between atoms: C_1  and  O_2
REMARK    2  A    between atoms: O_2  and  C_3
REMARK    3  A    between atoms: C_6  and  C_7
REMARK    4  A    between atoms: C_7  and  C_9
REMARK    5  A    between atoms: C_10  and  C_11
REMARK    6  A    between atoms: C_15  and  N_16
REMARK    7  A    between atoms: C_24  and  C_25
REMARK    8  A    between atoms: C_24  and  C_26
REMARK                            x       y       z     vdW  Elec       q    Type
REMARK                         _______ _______ _______ _____ _____    ______ ____
ROOT
ATOM      1  C   UNL     1       4.867   5.109  16.427  0.00  0.00    +0.000 A 
ATOM      2  C   UNL     1       5.010   6.490  16.602  0.00  0.00    +0.000 A 
ATOM      3  C   UNL     1       4.190   7.181  17.494  0.00  0.00    +0.000 A 
ATOM      4  C   UNL     1       3.214   6.504  18.233  0.00  0.00    +0.000 A 
ATOM      5  C   UNL     1       3.044   5.124  18.035  0.00  0.00    +0.000 A 
ATOM      6  C   UNL     1       3.847   4.423  17.114  0.00  0.00    +0.000 A 
ATOM      7  C   UNL     1       3.575   2.997  16.898  0.00  0.00    +0.000 C 
ATOM      8  C   UNL     1       2.797   2.360  17.782  0.00  0.00    +0.000 C 
ATOM      9  C   UNL     1       2.217   3.077  18.975  0.00  0.00    +0.000 C 
ATOM     10  C   UNL     1       3.131   2.892  20.196  0.00  0.00    +0.000 C 
ATOM     11  C   UNL     1       0.815   2.557  19.312  0.00  0.00    +0.000 C 
ATOM     12  O   UNL     1       2.042   4.488  18.726  0.00  0.00    +0.000 OA
ENDROOT
BRANCH   1  14
ATOM     13  C   UNL     1       7.049   4.316  15.990  0.00  0.00    +0.000 C 
ATOM     14  O   UNL     1       5.679   4.379  15.593  0.00  0.00    +0.000 OA
ENDBRANCH   1  14
BRANCH   4  15
ATOM     15  C   UNL     1       2.403   7.313  19.188  0.00  0.00    +0.000 C 
ATOM     16  O   UNL     1       2.270   6.945  20.353  0.00  0.00    +0.000 OA
BRANCH  15  17
ATOM     17  C   UNL     1       1.681   8.501  18.663  0.00  0.00    +0.000 C 
ATOM     18  C   UNL     1       1.047   9.358  19.477  0.00  0.00    +0.000 C 
BRANCH  18  19
ATOM     19  C   UNL     1       0.325  10.542  18.983  0.00  0.00    +0.000 A 
ATOM     20  C   UNL     1       0.813  11.824  19.278  0.00  0.00    +0.000 A 
ATOM     21  C   UNL     1       0.134  12.968  18.843  0.00  0.00    +0.000 A 
ATOM     22  C   UNL     1      -1.047  12.849  18.111  0.00  0.00    +0.000 A 
ATOM     23  C   UNL     1      -1.544  11.575  17.821  0.00  0.00    +0.000 A 
ATOM     24  C   UNL     1      -0.871  10.427  18.261  0.00  0.00    +0.000 A 
BRANCH  23  25
ATOM     25  N   UNL     1      -2.782  11.431  17.047  0.00  0.00    +0.000 N 
ATOM     26  O   UNL     1      -3.854  11.663  17.624  0.00  0.00    +0.000 OA
ATOM     27  O   UNL     1      -2.684  11.094  15.859  0.00  0.00    +0.000 OA
ENDBRANCH  23  25
ENDBRANCH  18  19
ENDBRANCH  15  17
ENDBRANCH   4  15
TORSDOF 5
ENDMDL
MODEL 3
REMARK VINA RESULT:      -7.9      4.348      9.135
REMARK  Name = 
REMARK  8 active torsions:
REMARK  status: ('A' for Active; 'I' for Inactive)
REMARK    1  A    between atoms: C_1  and  O_2
REMARK    2  A    between atoms: O_2  and  C_3
REMARK    3  A    between atoms: C_6  and  C_7
REMARK    4  A    between atoms: C_7  and  C_9
REMARK    5  A    between atoms: C_10  and  C_11
REMARK    6  A    between atoms: C_15  and  N_16
REMARK    7  A    between atoms: C_24  and  C_25
REMARK    8  A    between atoms: C_24  and  C_26
REMARK                            x       y       z     vdW  Elec       q    Type
REMARK                         _______ _______ _______ _____ _____    ______ ____
ROOT
ATOM      1  C   UNL     1       3.645   3.758  19.135  0.00  0.00    +0.000 A 
ATOM      2  C   UNL     1       2.319   4.205  19.135  0.00  0.00    +0.000 A 
ATOM      3  C   UNL     1       2.004   5.496  18.712  0.00  0.00    +0.000 A 
ATOM      4  C   UNL     1       3.010   6.365  18.277  0.00  0.00    +0.000 A 
ATOM      5  C   UNL     1       4.346   5.932  18.307  0.00  0.00    +0.000 A 
ATOM      6  C   UNL     1       4.676   4.641  18.761  0.00  0.00    +0.000 A 
ATOM      7  C   UNL     1       6.094   4.271  18.837  0.00  0.00    +0.000 C 
ATOM      8  C   UNL     1       6.985   5.043  18.203  0.00  0.00    +0.000 C 
ATOM      9  C   UNL     1       6.553   6.257  17.421  0.00  0.00    +0.000 C 
ATOM     10  C   UNL     1       6.361   5.891  15.941  0.00  0.00    +0.000 C 
ATOM     11  C   UNL     1       7.581   7.388  17.531  0.00  0.00    +0.000 C 
ATOM     12  O   UNL     1       5.324   6.820  17.930  0.00  0.00    +0.000 OA
ENDROOT
BRANCH   1  14
ATOM     13  C   UNL     1       3.662   1.468  18.552  0.00  0.00    +0.000 C 
ATOM     14  O   UNL     1       3.997   2.481  19.501  0.00  0.00    +0.000 OA
ENDBRANCH   1  14
BRANCH   4  15
ATOM     15  C   UNL     1       2.584   7.717  17.811  0.00  0.00    +0.000 C 
ATOM     16  O   UNL     1       2.970   8.147  16.726  0.00  0.00    +0.000 OA
BRANCH  15  17
ATOM     17  C   UNL     1       1.782   8.556  18.737  0.00  0.00    +0.000 C 
ATOM     18  C   UNL     1       1.030   9.576  18.294  0.00  0.00    +0.000 C 
BRANCH  18  19
ATOM     19  C   UNL     1       0.226  10.422  19.190  0.00  0.00    +0.000 A 
ATOM     20  C   UNL     1      -0.421  11.556  18.676  0.00  0.00    +0.000 A 
ATOM     21  C   UNL     1      -1.172  12.394  19.509  0.00  0.00    +0.000 A 
ATOM     22  C   UNL     1      -1.284  12.114  20.870  0.00  0.00    +0.000 A 
ATOM     23  C   UNL     1      -0.634  10.991  21.391  0.00  0.00    +0.000 A 
ATOM     24  C   UNL     1       0.125  10.154  20.562  0.00  0.00    +0.000 A 
BRANCH  23  25
ATOM     25  N   UNL     1      -0.746  10.678  22.820  0.00  0.00    +0.000 N 
ATOM     26  O   UNL     1       0.195  10.071  23.353  0.00  0.00    +0.000 OA
ATOM     27  O   UNL     1      -1.768  11.046  23.414  0.00  0.00    +0.000 OA
ENDBRANCH  23  25
ENDBRANCH  18  19
ENDBRANCH  15  17
ENDBRANCH   4  15
TORSDOF 5
ENDMDL
MODEL 4
REMARK VINA RESULT:      -7.9      4.709      9.182
REMARK  Name = 
REMARK  8 active torsions:
REMARK  status: ('A' for Active; 'I' for Inactive)
REMARK    1  A    between atoms: C_1  and  O_2
REMARK    2  A    between atoms: O_2  and  C_3
REMARK    3  A    between atoms: C_6  and  C_7
REMARK    4  A    between atoms: C_7  and  C_9
REMARK    5  A    between atoms: C_10  and  C_11
REMARK    6  A    between atoms: C_15  and  N_16
REMARK    7  A    between atoms: C_24  and  C_25
REMARK    8  A    between atoms: C_24  and  C_26
REMARK                            x       y       z     vdW  Elec       q    Type
REMARK                         _______ _______ _______ _____ _____    ______ ____
ROOT
ATOM      1  C   UNL     1       5.693   5.021  18.067  0.00  0.00    +0.000 A 
ATOM      2  C   UNL     1       5.873   6.325  17.593  0.00  0.00    +0.000 A 
ATOM      3  C   UNL     1       4.812   7.231  17.586  0.00  0.00    +0.000 A 
ATOM      4  C   UNL     1       3.551   6.851  18.057  0.00  0.00    +0.000 A 
ATOM      5  C   UNL     1       3.357   5.532  18.502  0.00  0.00    +0.000 A 
ATOM      6  C   UNL     1       4.415   4.603  18.484  0.00  0.00    +0.000 A 
ATOM      7  C   UNL     1       4.134   3.222  18.894  0.00  0.00    +0.000 C 
ATOM      8  C   UNL     1       2.989   2.974  19.541  0.00  0.00    +0.000 C 
ATOM      9  C   UNL     1       2.011   4.078  19.854  0.00  0.00    +0.000 C 
ATOM     10  C   UNL     1       2.267   4.625  21.267  0.00  0.00    +0.000 C 
ATOM     11  C   UNL     1       0.562   3.585  19.760  0.00  0.00    +0.000 C 
ATOM     12  O   UNL     1       2.097   5.163  18.906  0.00  0.00    +0.000 OA
ENDROOT
BRANCH   1  14
ATOM     13  C   UNL     1       8.029   4.668  18.068  0.00  0.00    +0.000 C 
ATOM     14  O   UNL     1       6.718   4.108  18.135  0.00  0.00    +0.000 OA
ENDBRANCH   1  14
BRANCH   4  15
ATOM     15  C   UNL     1       2.480   7.890  18.044  0.00  0.00    +0.000 C 
ATOM     16  O   UNL     1       2.216   8.493  17.007  0.00  0.00    +0.000 OA
BRANCH  15  17
ATOM     17  C   UNL     1       1.832   8.243  19.333  0.00  0.00    +0.000 C 
ATOM     18  C   UNL     1       1.111   9.366  19.476  0.00  0.00    +0.000 C 
BRANCH  18  19
ATOM     19  C   UNL     1       0.459   9.739  20.742  0.00  0.00    +0.000 A 
ATOM     20  C   UNL     1       0.042   8.735  21.629  0.00  0.00    +0.000 A 
ATOM     21  C   UNL     1      -0.603   9.058  22.828  0.00  0.00    +0.000 A 
ATOM     22  C   UNL     1      -0.847  10.391  23.157  0.00  0.00    +0.000 A 
ATOM     23  C   UNL     1      -0.443  11.396  22.274  0.00  0.00    +0.000 A 
ATOM     24  C   UNL     1       0.197  11.076  21.069  0.00  0.00    +0.000 A 
BRANCH  23  25
ATOM     25  N   UNL     1      -0.687  12.805  22.607  0.00  0.00    +0.000 N 
ATOM     26  O   UNL     1      -1.797  13.104  23.071  0.00  0.00    +0.000 OA
ATOM     27  O   UNL     1       0.233  13.611  22.414  0.00  0.00    +0.000 OA
ENDBRANCH  23  25
ENDBRANCH  18  19
ENDBRANCH  15  17
ENDBRANCH   4  15
TORSDOF 5
ENDMDL
MODEL 5
REMARK VINA RESULT:      -7.9      3.805      8.426
REMARK  Name = 
REMARK  8 active torsions:
REMARK  status: ('A' for Active; 'I' for Inactive)
REMARK    1  A    between atoms: C_1  and  O_2
REMARK    2  A    between atoms: O_2  and  C_3
REMARK    3  A    between atoms: C_6  and  C_7
REMARK    4  A    between atoms: C_7  and  C_9
REMARK    5  A    between atoms: C_10  and  C_11
REMARK    6  A    between atoms: C_15  and  N_16
REMARK    7  A    between atoms: C_24  and  C_25
REMARK    8  A    between atoms: C_24  and  C_26
REMARK                            x       y       z     vdW  Elec       q    Type
REMARK                         _______ _______ _______ _____ _____    ______ ____
ROOT
ATOM      1  C   UNL     1       4.727   5.078  16.520  0.00  0.00    +0.000 A 
ATOM      2  C   UNL     1       4.878   6.461  16.676  0.00  0.00    +0.000 A 
ATOM      3  C   UNL     1       4.065   7.169  17.561  0.00  0.00    +0.000 A 
ATOM      4  C   UNL     1       3.087   6.508  18.311  0.00  0.00    +0.000 A 
ATOM      5  C   UNL     1       2.908   5.126  18.133  0.00  0.00    +0.000 A 
ATOM      6  C   UNL     1       3.705   4.408  17.219  0.00  0.00    +0.000 A 
ATOM      7  C   UNL     1       3.424   2.981  17.023  0.00  0.00    +0.000 C 
ATOM      8  C   UNL     1       2.644   2.361  17.918  0.00  0.00    +0.000 C 
ATOM      9  C   UNL     1       2.072   3.097  19.102  0.00  0.00    +0.000 C 
ATOM     10  C   UNL     1       2.987   2.923  20.324  0.00  0.00    +0.000 C 
ATOM     11  C   UNL     1       0.668   2.590  19.450  0.00  0.00    +0.000 C 
ATOM     12  O   UNL     1       1.904   4.505  18.834  0.00  0.00    +0.000 OA
ENDROOT
BRANCH   1  14
ATOM     13  C   UNL     1       6.918   4.676  15.734  0.00  0.00    +0.000 C 
ATOM     14  O   UNL     1       5.533   4.332  15.695  0.00  0.00    +0.000 OA
ENDBRANCH   1  14
BRANCH   4  15
ATOM     15  C   UNL     1       2.282   7.335  19.257  0.00  0.00    +0.000 C 
ATOM     16  O   UNL     1       1.944   6.876  20.345  0.00  0.00    +0.000 OA
BRANCH  15  17
ATOM     17  C   UNL     1       1.818   8.670  18.799  0.00  0.00    +0.000 C 
ATOM     18  C   UNL     1       0.989   9.421  19.541  0.00  0.00    +0.000 C 
BRANCH  18  19
ATOM     19  C   UNL     1       0.514  10.746  19.112  0.00  0.00    +0.000 A 
ATOM     20  C   UNL     1      -0.778  10.880  18.580  0.00  0.00    +0.000 A 
ATOM     21  C   UNL     1      -1.247  12.123  18.140  0.00  0.00    +0.000 A 
ATOM     22  C   UNL     1      -0.432  13.251  18.219  0.00  0.00    +0.000 A 
ATOM     23  C   UNL     1       0.860  13.123  18.740  0.00  0.00    +0.000 A 
ATOM     24  C   UNL     1       1.337  11.879  19.175  0.00  0.00    +0.000 A 
BRANCH  23  25
ATOM     25  N   UNL     1       1.730  14.300  18.836  0.00  0.00    +0.000 N 
ATOM     26  O   UNL     1       1.539  15.082  19.779  0.00  0.00    +0.000 OA
ATOM     27  O   UNL     1       2.610  14.441  17.976  0.00  0.00    +0.000 OA
ENDBRANCH  23  25
ENDBRANCH  18  19
ENDBRANCH  15  17
ENDBRANCH   4  15
TORSDOF 5
ENDMDL
MODEL 6
REMARK VINA RESULT:      -7.8      4.367      9.567
REMARK  Name = 
REMARK  8 active torsions:
REMARK  status: ('A' for Active; 'I' for Inactive)
REMARK    1  A    between atoms: C_1  and  O_2
REMARK    2  A    between atoms: O_2  and  C_3
REMARK    3  A    between atoms: C_6  and  C_7
REMARK    4  A    between atoms: C_7  and  C_9
REMARK    5  A    between atoms: C_10  and  C_11
REMARK    6  A    between atoms: C_15  and  N_16
REMARK    7  A    between atoms: C_24  and  C_25
REMARK    8  A    between atoms: C_24  and  C_26
REMARK                            x       y       z     vdW  Elec       q    Type
REMARK                         _______ _______ _______ _____ _____    ______ ____
ROOT
ATOM      1  C   UNL     1       3.089   3.518  17.688  0.00  0.00    +0.000 A 
ATOM      2  C   UNL     1       1.815   4.013  17.985  0.00  0.00    +0.000 A 
ATOM      3  C   UNL     1       1.604   5.382  18.147  0.00  0.00    +0.000 A 
ATOM      4  C   UNL     1       2.664   6.285  18.012  0.00  0.00    +0.000 A 
ATOM      5  C   UNL     1       3.953   5.790  17.747  0.00  0.00    +0.000 A 
ATOM      6  C   UNL     1       4.179   4.406  17.612  0.00  0.00    +0.000 A 
ATOM      7  C   UNL     1       5.557   3.944  17.407  0.00  0.00    +0.000 C 
ATOM      8  C   UNL     1       6.483   4.847  17.062  0.00  0.00    +0.000 C 
ATOM      9  C   UNL     1       6.129   6.300  16.877  0.00  0.00    +0.000 C 
ATOM     10  C   UNL     1       5.825   6.586  15.398  0.00  0.00    +0.000 C 
ATOM     11  C   UNL     1       7.267   7.217  17.342  0.00  0.00    +0.000 C 
ATOM     12  O   UNL     1       4.990   6.686  17.676  0.00  0.00    +0.000 OA
ENDROOT
BRANCH   1  14
ATOM     13  C   UNL     1       3.468   1.399  18.661  0.00  0.00    +0.000 C 
ATOM     14  O   UNL     1       3.336   2.183  17.476  0.00  0.00    +0.000 OA
ENDBRANCH   1  14
BRANCH   4  15
ATOM     15  C   UNL     1       2.347   7.734  18.169  0.00  0.00    +0.000 C 
ATOM     16  O   UNL     1       2.671   8.536  17.297  0.00  0.00    +0.000 OA
BRANCH  15  17
ATOM     17  C   UNL     1       1.735   8.182  19.447  0.00  0.00    +0.000 C 
ATOM     18  C   UNL     1       0.986   9.293  19.518  0.00  0.00    +0.000 C 
BRANCH  18  19
ATOM     19  C   UNL     1       0.369   9.759  20.771  0.00  0.00    +0.000 A 
ATOM     20  C   UNL     1       0.585   9.042  21.958  0.00  0.00    +0.000 A 
ATOM     21  C   UNL     1      -0.009   9.447  23.159  0.00  0.00    +0.000 A 
ATOM     22  C   UNL     1      -0.833  10.571  23.192  0.00  0.00    +0.000 A 
ATOM     23  C   UNL     1      -1.060  11.284  22.011  0.00  0.00    +0.000 A 
ATOM     24  C   UNL     1      -0.473  10.878  20.805  0.00  0.00    +0.000 A 
BRANCH  23  25
ATOM     25  N   UNL     1      -1.920  12.473  22.028  0.00  0.00    +0.000 N 
ATOM     26  O   UNL     1      -2.797  12.563  21.156  0.00  0.00    +0.000 OA
ATOM     27  O   UNL     1      -1.727  13.313  22.917  0.00  0.00    +0.000 OA
ENDBRANCH  23  25
ENDBRANCH  18  19
ENDBRANCH  15  17
ENDBRANCH   4  15
TORSDOF 5
ENDMDL
MODEL 7
REMARK VINA RESULT:      -7.8      3.793      7.262
REMARK  Name = 
REMARK  8 active torsions:
REMARK  status: ('A' for Active; 'I' for Inactive)
REMARK    1  A    between atoms: C_1  and  O_2
REMARK    2  A    between atoms: O_2  and  C_3
REMARK    3  A    between atoms: C_6  and  C_7
REMARK    4  A    between atoms: C_7  and  C_9
REMARK    5  A    between atoms: C_10  and  C_11
REMARK    6  A    between atoms: C_15  and  N_16
REMARK    7  A    between atoms: C_24  and  C_25
REMARK    8  A    between atoms: C_24  and  C_26
REMARK                            x       y       z     vdW  Elec       q    Type
REMARK                         _______ _______ _______ _____ _____    ______ ____
ROOT
ATOM      1  C   UNL     1      -3.210  10.814  18.145  0.00  0.00    +0.000 A 
ATOM      2  C   UNL     1      -2.548   9.961  17.254  0.00  0.00    +0.000 A 
ATOM      3  C   UNL     1      -1.166   9.788  17.331  0.00  0.00    +0.000 A 
ATOM      4  C   UNL     1      -0.419  10.460  18.303  0.00  0.00    +0.000 A 
ATOM      5  C   UNL     1      -1.075  11.343  19.178  0.00  0.00    +0.000 A 
ATOM      6  C   UNL     1      -2.465  11.547  19.088  0.00  0.00    +0.000 A 
ATOM      7  C   UNL     1      -3.083  12.535  19.980  0.00  0.00    +0.000 C 
ATOM      8  C   UNL     1      -2.373  12.973  21.027  0.00  0.00    +0.000 C 
ATOM      9  C   UNL     1      -0.979  12.466  21.297  0.00  0.00    +0.000 C 
ATOM     10  C   UNL     1      -1.027  11.290  22.285  0.00  0.00    +0.000 C 
ATOM     11  C   UNL     1      -0.083  13.569  21.870  0.00  0.00    +0.000 C 
ATOM     12  O   UNL     1      -0.316  12.039  20.087  0.00  0.00    +0.000 OA
ENDROOT
BRANCH   1  14
ATOM     13  C   UNL     1      -5.079  11.753  17.046  0.00  0.00    +0.000 C 
ATOM     14  O   UNL     1      -4.574  10.982  18.136  0.00  0.00    +0.000 OA
ENDBRANCH   1  14
BRANCH   4  15
ATOM     15  C   UNL     1       1.048  10.194  18.337  0.00  0.00    +0.000 C 
ATOM     16  O   UNL     1       1.833  11.092  18.631  0.00  0.00    +0.000 OA
BRANCH  15  17
ATOM     17  C   UNL     1       1.527   8.857  17.902  0.00  0.00    +0.000 C 
ATOM     18  C   UNL     1       2.759   8.417  18.203  0.00  0.00    +0.000 C 
BRANCH  18  19
ATOM     19  C   UNL     1       3.258   7.096  17.784  0.00  0.00    +0.000 A 
ATOM     20  C   UNL     1       2.520   5.945  18.100  0.00  0.00    +0.000 A 
ATOM     21  C   UNL     1       2.983   4.674  17.738  0.00  0.00    +0.000 A 
ATOM     22  C   UNL     1       4.192   4.534  17.058  0.00  0.00    +0.000 A 
ATOM     23  C   UNL     1       4.936   5.676  16.748  0.00  0.00    +0.000 A 
ATOM     24  C   UNL     1       4.481   6.949  17.116  0.00  0.00    +0.000 A 
BRANCH  23  25
ATOM     25  N   UNL     1       6.208   5.547  16.028  0.00  0.00    +0.000 N 
ATOM     26  O   UNL     1       7.238   5.391  16.701  0.00  0.00    +0.000 OA
ATOM     27  O   UNL     1       6.179   5.592  14.791  0.00  0.00    +0.000 OA
ENDBRANCH  23  25
ENDBRANCH  18  19
ENDBRANCH  15  17
ENDBRANCH   4  15
TORSDOF 5
ENDMDL
MODEL 8
REMARK VINA RESULT:      -7.7      1.130      1.569
REMARK  Name = 
REMARK  8 active torsions:
REMARK  status: ('A' for Active; 'I' for Inactive)
REMARK    1  A    between atoms: C_1  and  O_2
REMARK    2  A    between atoms: O_2  and  C_3
REMARK    3  A    between atoms: C_6  and  C_7
REMARK    4  A    between atoms: C_7  and  C_9
REMARK    5  A    between atoms: C_10  and  C_11
REMARK    6  A    between atoms: C_15  and  N_16
REMARK    7  A    between atoms: C_24  and  C_25
REMARK    8  A    between atoms: C_24  and  C_26
REMARK                            x       y       z     vdW  Elec       q    Type
REMARK                         _______ _______ _______ _____ _____    ______ ____
ROOT
ATOM      1  C   UNL     1       2.289   6.259  19.832  0.00  0.00    +0.000 A 
ATOM      2  C   UNL     1       2.922   7.210  19.023  0.00  0.00    +0.000 A 
ATOM      3  C   UNL     1       4.156   6.933  18.435  0.00  0.00    +0.000 A 
ATOM      4  C   UNL     1       4.779   5.698  18.639  0.00  0.00    +0.000 A 
ATOM      5  C   UNL     1       4.163   4.753  19.477  0.00  0.00    +0.000 A 
ATOM      6  C   UNL     1       2.932   5.036  20.100  0.00  0.00    +0.000 A 
ATOM      7  C   UNL     1       2.372   4.040  21.021  0.00  0.00    +0.000 C 
ATOM      8  C   UNL     1       2.885   2.803  21.003  0.00  0.00    +0.000 C 
ATOM      9  C   UNL     1       4.000   2.431  20.060  0.00  0.00    +0.000 C 
ATOM     10  C   UNL     1       3.423   1.817  18.774  0.00  0.00    +0.000 C 
ATOM     11  C   UNL     1       4.967   1.431  20.704  0.00  0.00    +0.000 C 
ATOM     12  O   UNL     1       4.818   3.569  19.713  0.00  0.00    +0.000 OA
ENDROOT
BRANCH   1  14
ATOM     13  C   UNL     1       0.936   7.672  21.158  0.00  0.00    +0.000 C 
ATOM     14  O   UNL     1       1.053   6.470  20.396  0.00  0.00    +0.000 OA
ENDBRANCH   1  14
BRANCH   4  15
ATOM     15  C   UNL     1       6.081   5.471  17.947  0.00  0.00    +0.000 C 
ATOM     16  O   UNL     1       7.127   5.447  18.591  0.00  0.00    +0.000 OA
BRANCH  15  17
ATOM     17  C   UNL     1       6.080   5.386  16.464  0.00  0.00    +0.000 C 
ATOM     18  C   UNL     1       6.890   4.543  15.805  0.00  0.00    +0.000 C 
BRANCH  18  19
ATOM     19  C   UNL     1       6.910   4.440  14.337  0.00  0.00    +0.000 A 
ATOM     20  C   UNL     1       7.749   5.284  13.594  0.00  0.00    +0.000 A 
ATOM     21  C   UNL     1       7.770   5.226  12.196  0.00  0.00    +0.000 A 
ATOM     22  C   UNL     1       6.949   4.327  11.517  0.00  0.00    +0.000 A 
ATOM     23  C   UNL     1       6.103   3.490  12.251  0.00  0.00    +0.000 A 
ATOM     24  C   UNL     1       6.073   3.550  13.651  0.00  0.00    +0.000 A 
BRANCH  23  25
ATOM     25  N   UNL     1       5.236   2.533  11.554  0.00  0.00    +0.000 N 
ATOM     26  O   UNL     1       5.683   1.396  11.343  0.00  0.00    +0.000 OA
ATOM     27  O   UNL     1       4.104   2.913  11.224  0.00  0.00    +0.000 OA
ENDBRANCH  23  25
ENDBRANCH  18  19
ENDBRANCH  15  17
ENDBRANCH   4  15
TORSDOF 5
ENDMDL
MODEL 9
REMARK VINA RESULT:      -7.7      4.558      8.007
REMARK  Name = 
REMARK  8 active torsions:
REMARK  status: ('A' for Active; 'I' for Inactive)
REMARK    1  A    between atoms: C_1  and  O_2
REMARK    2  A    between atoms: O_2  and  C_3
REMARK    3  A    between atoms: C_6  and  C_7
REMARK    4  A    between atoms: C_7  and  C_9
REMARK    5  A    between atoms: C_10  and  C_11
REMARK    6  A    between atoms: C_15  and  N_16
REMARK    7  A    between atoms: C_24  and  C_25
REMARK    8  A    between atoms: C_24  and  C_26
REMARK                            x       y       z     vdW  Elec       q    Type
REMARK                         _______ _______ _______ _____ _____    ______ ____
ROOT
ATOM      1  C   UNL     1      -3.116  11.180  18.341  0.00  0.00    +0.000 A 
ATOM      2  C   UNL     1      -2.472  10.308  17.456  0.00  0.00    +0.000 A 
ATOM      3  C   UNL     1      -1.098  10.087  17.549  0.00  0.00    +0.000 A 
ATOM      4  C   UNL     1      -0.341  10.732  18.533  0.00  0.00    +0.000 A 
ATOM      5  C   UNL     1      -0.977  11.634  19.402  0.00  0.00    +0.000 A 
ATOM      6  C   UNL     1      -2.358  11.885  19.296  0.00  0.00    +0.000 A 
ATOM      7  C   UNL     1      -2.953  12.891  20.184  0.00  0.00    +0.000 C 
ATOM      8  C   UNL     1      -2.241  13.302  21.241  0.00  0.00    +0.000 C 
ATOM      9  C   UNL     1      -0.869  12.747  21.525  0.00  0.00    +0.000 C 
ATOM     10  C   UNL     1      -0.968  11.571  22.509  0.00  0.00    +0.000 C 
ATOM     11  C   UNL     1       0.056  13.818  22.113  0.00  0.00    +0.000 C 
ATOM     12  O   UNL     1      -0.206  12.301  20.323  0.00  0.00    +0.000 OA
ENDROOT
BRANCH   1  14
ATOM     13  C   UNL     1      -5.014  11.682  17.027  0.00  0.00    +0.000 C 
ATOM     14  O   UNL     1      -4.473  11.394  18.316  0.00  0.00    +0.000 OA
ENDBRANCH   1  14
BRANCH   4  15
ATOM     15  C   UNL     1       1.116  10.416  18.583  0.00  0.00    +0.000 C 
ATOM     16  O   UNL     1       1.947  11.290  18.349  0.00  0.00    +0.000 OA
BRANCH  15  17
ATOM     17  C   UNL     1       1.519   9.005  18.813  0.00  0.00    +0.000 C 
ATOM     18  C   UNL     1       2.449   8.404  18.055  0.00  0.00    +0.000 C 
BRANCH  18  19
ATOM     19  C   UNL     1       2.866   7.007  18.262  0.00  0.00    +0.000 A 
ATOM     20  C   UNL     1       3.899   6.469  17.478  0.00  0.00    +0.000 A 
ATOM     21  C   UNL     1       4.300   5.137  17.635  0.00  0.00    +0.000 A 
ATOM     22  C   UNL     1       3.672   4.320  18.574  0.00  0.00    +0.000 A 
ATOM     23  C   UNL     1       2.636   4.847  19.352  0.00  0.00    +0.000 A 
ATOM     24  C   UNL     1       2.226   6.178  19.193  0.00  0.00    +0.000 A 
BRANCH  23  25
ATOM     25  N   UNL     1       1.967   4.003  20.349  0.00  0.00    +0.000 N 
ATOM     26  O   UNL     1       1.174   3.144  19.939  0.00  0.00    +0.000 OA
ATOM     27  O   UNL     1       2.242   4.192  21.542  0.00  0.00    +0.000 OA
ENDBRANCH  23  25
ENDBRANCH  18  19
ENDBRANCH  15  17
ENDBRANCH   4  15
TORSDOF 5
ENDMDL
