MODEL 1
REMARK VINA RESULT:      -7.8      0.000      0.000
REMARK  Name = 
REMARK  4 active torsions:
REMARK  status: ('A' for Active; 'I' for Inactive)
REMARK    1  A    between atoms: C_1  and  O_2
REMARK    2  A    between atoms: O_2  and  C_3
REMARK    3  A    between atoms: C_8  and  C_9
REMARK    4  A    between atoms: C_9  and  O_11
REMARK                            x       y       z     vdW  Elec       q    Type
REMARK                         _______ _______ _______ _____ _____    ______ ____
ROOT
ATOM      1  C   UNL     1       5.450   4.359  15.798  0.00  0.00    +0.000 A 
ATOM      2  C   UNL     1       5.603   5.728  15.696  0.00  0.00    +0.000 A 
ATOM      3  N   UNL     1       4.929   6.627  16.450  0.00  0.00    +0.000 NA
ATOM      4  C   UNL     1       4.068   6.159  17.362  0.00  0.00    +0.000 A 
ATOM      5  C   UNL     1       3.407   7.096  18.128  0.00  0.00    +0.000 A 
ATOM      6  C   UNL     1       2.535   6.724  19.160  0.00  0.00    +0.000 A 
ATOM      7  C   UNL     1       2.253   5.354  19.412  0.00  0.00    +0.000 A 
ATOM      8  C   UNL     1       1.375   4.901  20.432  0.00  0.00    +0.000 A 
ATOM      9  C   UNL     1       1.099   3.548  20.637  0.00  0.00    +0.000 A 
ATOM     10  C   UNL     1       1.695   2.598  19.830  0.00  0.00    +0.000 A 
ATOM     11  C   UNL     1       2.578   3.011  18.833  0.00  0.00    +0.000 A 
ATOM     12  C   UNL     1       2.890   4.376  18.599  0.00  0.00    +0.000 A 
ATOM     13  C   UNL     1       3.818   4.791  17.580  0.00  0.00    +0.000 A 
ATOM     14  C   UNL     1       4.542   3.900  16.746  0.00  0.00    +0.000 A 
ENDROOT
BRANCH   1  16
ATOM     15  C   UNL     1       6.078   3.826  13.572  0.00  0.00    +0.000 C 
ATOM     16  O   UNL     1       6.214   3.592  14.970  0.00  0.00    +0.000 OA
ENDBRANCH   1  16
BRANCH   6  17
ATOM     17  C   UNL     1       1.882   7.826  19.926  0.00  0.00    +0.000 C 
ATOM     18  O   UNL     1       1.320   8.777  19.411  0.00  0.00    +0.000 OA
BRANCH  17  19
ATOM     19  O   UNL     1       1.965   7.680  21.269  0.00  0.00    +0.000 OA
ATOM     20  H   UNL     1       2.624   8.236  21.726  0.00  0.00    +0.000 HD
ENDBRANCH  17  19
ENDBRANCH   6  17
TORSDOF 3
ENDMDL
MODEL 2
REMARK VINA RESULT:      -7.7      2.182      3.410
REMARK  Name = 
REMARK  4 active torsions:
REMARK  status: ('A' for Active; 'I' for Inactive)
REMARK    1  A    between atoms: C_1  and  O_2
REMARK    2  A    between atoms: O_2  and  C_3
REMARK    3  A    between atoms: C_8  and  C_9
REMARK    4  A    between atoms: C_9  and  O_11
REMARK                            x       y       z     vdW  Elec       q    Type
REMARK                         _______ _______ _______ _____ _____    ______ ____
ROOT
ATOM      1  C   UNL     1       5.223   5.330  16.066  0.00  0.00    +0.000 A 
ATOM      2  C   UNL     1       5.334   3.984  16.354  0.00  0.00    +0.000 A 
ATOM      3  N   UNL     1       4.733   3.378  17.403  0.00  0.00    +0.000 NA
ATOM      4  C   UNL     1       3.970   4.129  18.208  0.00  0.00    +0.000 A 
ATOM      5  C   UNL     1       3.356   3.483  19.260  0.00  0.00    +0.000 A 
ATOM      6  C   UNL     1       2.481   4.151  20.127  0.00  0.00    +0.000 A 
ATOM      7  C   UNL     1       2.244   5.545  19.985  0.00  0.00    +0.000 A 
ATOM      8  C   UNL     1       1.379   6.292  20.829  0.00  0.00    +0.000 A 
ATOM      9  C   UNL     1       1.188   7.666  20.679  0.00  0.00    +0.000 A 
ATOM     10  C   UNL     1       1.854   8.344  19.676  0.00  0.00    +0.000 A 
ATOM     11  C   UNL     1       2.694   7.635  18.819  0.00  0.00    +0.000 A 
ATOM     12  C   UNL     1       2.908   6.237  18.934  0.00  0.00    +0.000 A 
ATOM     13  C   UNL     1       3.762   5.510  18.031  0.00  0.00    +0.000 A 
ATOM     14  C   UNL     1       4.434   6.089  16.924  0.00  0.00    +0.000 A 
ENDROOT
BRANCH   1  16
ATOM     15  C   UNL     1       6.726   4.845  14.295  0.00  0.00    +0.000 C 
ATOM     16  O   UNL     1       5.885   5.780  14.963  0.00  0.00    +0.000 OA
ENDBRANCH   1  16
BRANCH   6  17
ATOM     17  C   UNL     1       1.869   3.347  21.225  0.00  0.00    +0.000 C 
ATOM     18  O   UNL     1       2.414   3.123  22.292  0.00  0.00    +0.000 OA
BRANCH  17  19
ATOM     19  O   UNL     1       0.634   2.878  20.935  0.00  0.00    +0.000 OA
ATOM     20  H   UNL     1       0.503   1.915  21.022  0.00  0.00    +0.000 HD
ENDBRANCH  17  19
ENDBRANCH   6  17
TORSDOF 3
ENDMDL
MODEL 3
REMARK VINA RESULT:      -7.7      3.229      4.054
REMARK  Name = 
REMARK  4 active torsions:
REMARK  status: ('A' for Active; 'I' for Inactive)
REMARK    1  A    between atoms: C_1  and  O_2
REMARK    2  A    between atoms: O_2  and  C_3
REMARK    3  A    between atoms: C_8  and  C_9
REMARK    4  A    between atoms: C_9  and  O_11
REMARK                            x       y       z     vdW  Elec       q    Type
REMARK                         _______ _______ _______ _____ _____    ______ ____
ROOT
ATOM      1  C   UNL     1       6.108   3.973  13.189  0.00  0.00    +0.000 A 
ATOM      2  C   UNL     1       7.298   4.665  13.303  0.00  0.00    +0.000 A 
ATOM      3  N   UNL     1       7.778   5.166  14.464  0.00  0.00    +0.000 NA
ATOM      4  C   UNL     1       7.060   4.968  15.577  0.00  0.00    +0.000 A 
ATOM      5  C   UNL     1       7.580   5.474  16.749  0.00  0.00    +0.000 A 
ATOM      6  C   UNL     1       6.953   5.270  17.985  0.00  0.00    +0.000 A 
ATOM      7  C   UNL     1       5.713   4.578  18.063  0.00  0.00    +0.000 A 
ATOM      8  C   UNL     1       5.014   4.340  19.276  0.00  0.00    +0.000 A 
ATOM      9  C   UNL     1       3.785   3.680  19.315  0.00  0.00    +0.000 A 
ATOM     10  C   UNL     1       3.212   3.231  18.141  0.00  0.00    +0.000 A 
ATOM     11  C   UNL     1       3.884   3.431  16.937  0.00  0.00    +0.000 A 
ATOM     12  C   UNL     1       5.138   4.091  16.856  0.00  0.00    +0.000 A 
ATOM     13  C   UNL     1       5.834   4.276  15.610  0.00  0.00    +0.000 A 
ATOM     14  C   UNL     1       5.376   3.791  14.358  0.00  0.00    +0.000 A 
ENDROOT
BRANCH   1  16
ATOM     15  C   UNL     1       4.395   3.253  11.712  0.00  0.00    +0.000 C 
ATOM     16  O   UNL     1       5.773   3.525  11.946  0.00  0.00    +0.000 OA
ENDBRANCH   1  16
BRANCH   6  17
ATOM     17  C   UNL     1       7.612   5.859  19.187  0.00  0.00    +0.000 C 
ATOM     18  O   UNL     1       7.580   5.359  20.298  0.00  0.00    +0.000 OA
BRANCH  17  19
ATOM     19  O   UNL     1       8.262   7.020  18.939  0.00  0.00    +0.000 OA
ATOM     20  H   UNL     1       7.962   7.528  18.162  0.00  0.00    +0.000 HD
ENDBRANCH  17  19
ENDBRANCH   6  17
TORSDOF 3
ENDMDL
MODEL 4
REMARK VINA RESULT:      -7.6      2.996      5.563
REMARK  Name = 
REMARK  4 active torsions:
REMARK  status: ('A' for Active; 'I' for Inactive)
REMARK    1  A    between atoms: C_1  and  O_2
REMARK    2  A    between atoms: O_2  and  C_3
REMARK    3  A    between atoms: C_8  and  C_9
REMARK    4  A    between atoms: C_9  and  O_11
REMARK                            x       y       z     vdW  Elec       q    Type
REMARK                         _______ _______ _______ _____ _____    ______ ____
ROOT
ATOM      1  C   UNL     1       2.002   3.480  18.267  0.00  0.00    +0.000 A 
ATOM      2  C   UNL     1       2.307   3.930  19.536  0.00  0.00    +0.000 A 
ATOM      3  N   UNL     1       3.485   4.502  19.877  0.00  0.00    +0.000 NA
ATOM      4  C   UNL     1       4.410   4.652  18.920  0.00  0.00    +0.000 A 
ATOM      5  C   UNL     1       5.594   5.252  19.291  0.00  0.00    +0.000 A 
ATOM      6  C   UNL     1       6.606   5.525  18.362  0.00  0.00    +0.000 A 
ATOM      7  C   UNL     1       6.468   5.130  17.003  0.00  0.00    +0.000 A 
ATOM      8  C   UNL     1       7.453   5.363  16.007  0.00  0.00    +0.000 A 
ATOM      9  C   UNL     1       7.298   4.940  14.686  0.00  0.00    +0.000 A 
ATOM     10  C   UNL     1       6.149   4.270  14.313  0.00  0.00    +0.000 A 
ATOM     11  C   UNL     1       5.155   4.044  15.263  0.00  0.00    +0.000 A 
ATOM     12  C   UNL     1       5.272   4.466  16.614  0.00  0.00    +0.000 A 
ATOM     13  C   UNL     1       4.231   4.246  17.584  0.00  0.00    +0.000 A 
ATOM     14  C   UNL     1       2.983   3.638  17.294  0.00  0.00    +0.000 A 
ENDROOT
BRANCH   1  16
ATOM     15  C   UNL     1       0.324   2.007  19.073  0.00  0.00    +0.000 C 
ATOM     16  O   UNL     1       0.764   2.937  18.088  0.00  0.00    +0.000 OA
ENDBRANCH   1  16
BRANCH   6  17
ATOM     17  C   UNL     1       7.841   6.184  18.877  0.00  0.00    +0.000 C 
ATOM     18  O   UNL     1       8.239   7.275  18.507  0.00  0.00    +0.000 OA
BRANCH  17  19
ATOM     19  O   UNL     1       8.499   5.458  19.810  0.00  0.00    +0.000 OA
ATOM     20  H   UNL     1       8.168   4.554  19.970  0.00  0.00    +0.000 HD
ENDBRANCH  17  19
ENDBRANCH   6  17
TORSDOF 3
ENDMDL
MODEL 5
REMARK VINA RESULT:      -7.5      2.329      5.846
REMARK  Name = 
REMARK  4 active torsions:
REMARK  status: ('A' for Active; 'I' for Inactive)
REMARK    1  A    between atoms: C_1  and  O_2
REMARK    2  A    between atoms: O_2  and  C_3
REMARK    3  A    between atoms: C_8  and  C_9
REMARK    4  A    between atoms: C_9  and  O_11
REMARK                            x       y       z     vdW  Elec       q    Type
REMARK                         _______ _______ _______ _____ _____    ______ ____
ROOT
ATOM      1  C   UNL     1       1.677   8.220  19.830  0.00  0.00    +0.000 A 
ATOM      2  C   UNL     1       1.266   7.300  20.773  0.00  0.00    +0.000 A 
ATOM      3  N   UNL     1       1.629   5.997  20.773  0.00  0.00    +0.000 NA
ATOM      4  C   UNL     1       2.451   5.575  19.804  0.00  0.00    +0.000 A 
ATOM      5  C   UNL     1       2.819   4.247  19.837  0.00  0.00    +0.000 A 
ATOM      6  C   UNL     1       3.728   3.709  18.917  0.00  0.00    +0.000 A 
ATOM      7  C   UNL     1       4.258   4.510  17.869  0.00  0.00    +0.000 A 
ATOM      8  C   UNL     1       5.175   4.034  16.895  0.00  0.00    +0.000 A 
ATOM      9  C   UNL     1       5.658   4.841  15.863  0.00  0.00    +0.000 A 
ATOM     10  C   UNL     1       5.241   6.155  15.770  0.00  0.00    +0.000 A 
ATOM     11  C   UNL     1       4.357   6.657  16.723  0.00  0.00    +0.000 A 
ATOM     12  C   UNL     1       3.851   5.871  17.791  0.00  0.00    +0.000 A 
ATOM     13  C   UNL     1       2.954   6.404  18.783  0.00  0.00    +0.000 A 
ATOM     14  C   UNL     1       2.521   7.754  18.828  0.00  0.00    +0.000 A 
ENDROOT
BRANCH   1  16
ATOM     15  C   UNL     1       0.726  10.143  18.814  0.00  0.00    +0.000 C 
ATOM     16  O   UNL     1       1.227   9.499  19.981  0.00  0.00    +0.000 OA
ENDBRANCH   1  16
BRANCH   6  17
ATOM     17  C   UNL     1       4.057   2.260  19.055  0.00  0.00    +0.000 C 
ATOM     18  O   UNL     1       3.464   1.367  18.475  0.00  0.00    +0.000 OA
BRANCH  17  19
ATOM     19  O   UNL     1       5.089   2.012  19.895  0.00  0.00    +0.000 OA
ATOM     20  H   UNL     1       5.962   2.350  19.621  0.00  0.00    +0.000 HD
ENDBRANCH  17  19
ENDBRANCH   6  17
TORSDOF 3
ENDMDL
MODEL 6
REMARK VINA RESULT:      -7.4      2.551      5.979
REMARK  Name = 
REMARK  4 active torsions:
REMARK  status: ('A' for Active; 'I' for Inactive)
REMARK    1  A    between atoms: C_1  and  O_2
REMARK    2  A    between atoms: O_2  and  C_3
REMARK    3  A    between atoms: C_8  and  C_9
REMARK    4  A    between atoms: C_9  and  O_11
REMARK                            x       y       z     vdW  Elec       q    Type
REMARK                         _______ _______ _______ _____ _____    ______ ____
ROOT
ATOM      1  C   UNL     1       1.902   3.559  19.464  0.00  0.00    +0.000 A 
ATOM      2  C   UNL     1       1.466   3.179  18.211  0.00  0.00    +0.000 A 
ATOM      3  N   UNL     1       2.202   3.296  17.082  0.00  0.00    +0.000 NA
ATOM      4  C   UNL     1       3.438   3.801  17.188  0.00  0.00    +0.000 A 
ATOM      5  C   UNL     1       4.172   3.893  16.025  0.00  0.00    +0.000 A 
ATOM      6  C   UNL     1       5.499   4.340  16.023  0.00  0.00    +0.000 A 
ATOM      7  C   UNL     1       6.119   4.776  17.226  0.00  0.00    +0.000 A 
ATOM      8  C   UNL     1       7.456   5.251  17.302  0.00  0.00    +0.000 A 
ATOM      9  C   UNL     1       8.026   5.696  18.495  0.00  0.00    +0.000 A 
ATOM     10  C   UNL     1       7.280   5.681  19.658  0.00  0.00    +0.000 A 
ATOM     11  C   UNL     1       5.972   5.202  19.619  0.00  0.00    +0.000 A 
ATOM     12  C   UNL     1       5.359   4.733  18.428  0.00  0.00    +0.000 A 
ATOM     13  C   UNL     1       4.014   4.221  18.402  0.00  0.00    +0.000 A 
ATOM     14  C   UNL     1       3.185   4.090  19.546  0.00  0.00    +0.000 A 
ENDROOT
BRANCH   1  16
ATOM     15  C   UNL     1       1.550   2.677  21.640  0.00  0.00    +0.000 C 
ATOM     16  O   UNL     1       1.039   3.364  20.502  0.00  0.00    +0.000 OA
ENDBRANCH   1  16
BRANCH   6  17
ATOM     17  C   UNL     1       6.197   4.391  14.705  0.00  0.00    +0.000 C 
ATOM     18  O   UNL     1       6.677   5.404  14.225  0.00  0.00    +0.000 OA
BRANCH  17  19
ATOM     19  O   UNL     1       6.254   3.197  14.070  0.00  0.00    +0.000 OA
ATOM     20  H   UNL     1       6.088   3.208  13.109  0.00  0.00    +0.000 HD
ENDBRANCH  17  19
ENDBRANCH   6  17
TORSDOF 3
ENDMDL
MODEL 7
REMARK VINA RESULT:      -7.3      2.279      5.741
REMARK  Name = 
REMARK  4 active torsions:
REMARK  status: ('A' for Active; 'I' for Inactive)
REMARK    1  A    between atoms: C_1  and  O_2
REMARK    2  A    between atoms: O_2  and  C_3
REMARK    3  A    between atoms: C_8  and  C_9
REMARK    4  A    between atoms: C_9  and  O_11
REMARK                            x       y       z     vdW  Elec       q    Type
REMARK                         _______ _______ _______ _____ _____    ______ ____
ROOT
ATOM      1  C   UNL     1       2.160   8.583  18.628  0.00  0.00    +0.000 A 
ATOM      2  C   UNL     1       1.700   7.902  19.737  0.00  0.00    +0.000 A 
ATOM      3  N   UNL     1       2.024   6.622  20.032  0.00  0.00    +0.000 NA
ATOM      4  C   UNL     1       2.855   5.978  19.202  0.00  0.00    +0.000 A 
ATOM      5  C   UNL     1       3.182   4.681  19.535  0.00  0.00    +0.000 A 
ATOM      6  C   UNL     1       4.094   3.933  18.781  0.00  0.00    +0.000 A 
ATOM      7  C   UNL     1       4.672   4.472  17.599  0.00  0.00    +0.000 A 
ATOM      8  C   UNL     1       5.596   3.771  16.778  0.00  0.00    +0.000 A 
ATOM      9  C   UNL     1       6.125   4.320  15.609  0.00  0.00    +0.000 A 
ATOM     10  C   UNL     1       5.750   5.591  15.219  0.00  0.00    +0.000 A 
ATOM     11  C   UNL     1       4.861   6.311  16.014  0.00  0.00    +0.000 A 
ATOM     12  C   UNL     1       4.307   5.792  17.214  0.00  0.00    +0.000 A 
ATOM     13  C   UNL     1       3.405   6.550  18.040  0.00  0.00    +0.000 A 
ATOM     14  C   UNL     1       3.012   7.888  17.776  0.00  0.00    +0.000 A 
ENDROOT
BRANCH   1  16
ATOM     15  C   UNL     1       0.673  10.300  19.317  0.00  0.00    +0.000 C 
ATOM     16  O   UNL     1       1.746   9.874  18.483  0.00  0.00    +0.000 OA
ENDBRANCH   1  16
BRANCH   6  17
ATOM     17  C   UNL     1       4.376   2.541  19.241  0.00  0.00    +0.000 C 
ATOM     18  O   UNL     1       5.019   2.270  20.240  0.00  0.00    +0.000 OA
BRANCH  17  19
ATOM     19  O   UNL     1       3.850   1.585  18.442  0.00  0.00    +0.000 OA
ATOM     20  H   UNL     1       4.483   0.971  18.024  0.00  0.00    +0.000 HD
ENDBRANCH  17  19
ENDBRANCH   6  17
TORSDOF 3
ENDMDL
MODEL 8
REMARK VINA RESULT:      -7.3      2.786      5.143
REMARK  Name = 
REMARK  4 active torsions:
REMARK  status: ('A' for Active; 'I' for Inactive)
REMARK    1  A    between atoms: C_1  and  O_2
REMARK    2  A    between atoms: O_2  and  C_3
REMARK    3  A    between atoms: C_8  and  C_9
REMARK    4  A    between atoms: C_9  and  O_11
REMARK                            x       y       z     vdW  Elec       q    Type
REMARK                         _______ _______ _______ _____ _____    ______ ____
ROOT
ATOM      1  C   UNL     1       2.133   8.981  18.550  0.00  0.00    +0.000 A 
ATOM      2  C   UNL     1       1.473   8.924  19.762  0.00  0.00    +0.000 A 
ATOM      3  N   UNL     1       1.322   7.796  20.493  0.00  0.00    +0.000 NA
ATOM      4  C   UNL     1       1.857   6.664  20.018  0.00  0.00    +0.000 A 
ATOM      5  C   UNL     1       1.703   5.533  20.790  0.00  0.00    +0.000 A 
ATOM      6  C   UNL     1       2.279   4.308  20.430  0.00  0.00    +0.000 A 
ATOM      7  C   UNL     1       2.997   4.176  19.210  0.00  0.00    +0.000 A 
ATOM      8  C   UNL     1       3.600   2.967  18.773  0.00  0.00    +0.000 A 
ATOM      9  C   UNL     1       4.277   2.864  17.557  0.00  0.00    +0.000 A 
ATOM     10  C   UNL     1       4.377   3.969  16.734  0.00  0.00    +0.000 A 
ATOM     11  C   UNL     1       3.813   5.175  17.145  0.00  0.00    +0.000 A 
ATOM     12  C   UNL     1       3.124   5.322  18.377  0.00  0.00    +0.000 A 
ATOM     13  C   UNL     1       2.562   6.577  18.802  0.00  0.00    +0.000 A 
ATOM     14  C   UNL     1       2.670   7.790  18.074  0.00  0.00    +0.000 A 
ENDROOT
BRANCH   1  16
ATOM     15  C   UNL     1       1.564  11.285  18.612  0.00  0.00    +0.000 C 
ATOM     16  O   UNL     1       2.206  10.202  17.946  0.00  0.00    +0.000 OA
ENDBRANCH   1  16
BRANCH   6  17
ATOM     17  C   UNL     1       2.050   3.154  21.348  0.00  0.00    +0.000 C 
ATOM     18  O   UNL     1       2.925   2.628  22.014  0.00  0.00    +0.000 OA
BRANCH  17  19
ATOM     19  O   UNL     1       0.766   2.730  21.382  0.00  0.00    +0.000 OA
ATOM     20  H   UNL     1       0.620   1.809  21.669  0.00  0.00    +0.000 HD
ENDBRANCH  17  19
ENDBRANCH   6  17
TORSDOF 3
ENDMDL
MODEL 9
REMARK VINA RESULT:      -7.1      2.764      5.527
REMARK  Name = 
REMARK  4 active torsions:
REMARK  status: ('A' for Active; 'I' for Inactive)
REMARK    1  A    between atoms: C_1  and  O_2
REMARK    2  A    between atoms: O_2  and  C_3
REMARK    3  A    between atoms: C_8  and  C_9
REMARK    4  A    between atoms: C_9  and  O_11
REMARK                            x       y       z     vdW  Elec       q    Type
REMARK                         _______ _______ _______ _____ _____    ______ ____
ROOT
ATOM      1  C   UNL     1       2.012   3.725  18.158  0.00  0.00    +0.000 A 
ATOM      2  C   UNL     1       2.288   4.476  19.284  0.00  0.00    +0.000 A 
ATOM      3  N   UNL     1       3.413   5.208  19.453  0.00  0.00    +0.000 NA
ATOM      4  C   UNL     1       4.311   5.217  18.459  0.00  0.00    +0.000 A 
ATOM      5  C   UNL     1       5.439   5.985  18.650  0.00  0.00    +0.000 A 
ATOM      6  C   UNL     1       6.414   6.126  17.654  0.00  0.00    +0.000 A 
ATOM      7  C   UNL     1       6.299   5.424  16.423  0.00  0.00    +0.000 A 
ATOM      8  C   UNL     1       7.249   5.509  15.371  0.00  0.00    +0.000 A 
ATOM      9  C   UNL     1       7.120   4.786  14.184  0.00  0.00    +0.000 A 
ATOM     10  C   UNL     1       6.033   3.953  14.006  0.00  0.00    +0.000 A 
ATOM     11  C   UNL     1       5.072   3.864  15.012  0.00  0.00    +0.000 A 
ATOM     12  C   UNL     1       5.164   4.588  16.229  0.00  0.00    +0.000 A 
ATOM     13  C   UNL     1       4.157   4.506  17.254  0.00  0.00    +0.000 A 
ATOM     14  C   UNL     1       2.966   3.742  17.146  0.00  0.00    +0.000 A 
ENDROOT
BRANCH   1  16
ATOM     15  C   UNL     1       0.692   1.971  19.059  0.00  0.00    +0.000 C 
ATOM     16  O   UNL     1       0.826   3.052  18.143  0.00  0.00    +0.000 OA
ENDBRANCH   1  16
BRANCH   6  17
ATOM     17  C   UNL     1       7.590   6.988  17.972  0.00  0.00    +0.000 C 
ATOM     18  O   UNL     1       8.380   6.762  18.872  0.00  0.00    +0.000 OA
BRANCH  17  19
ATOM     19  O   UNL     1       7.710   8.066  17.162  0.00  0.00    +0.000 OA
ATOM     20  H   UNL     1       7.882   7.884  16.220  0.00  0.00    +0.000 HD
ENDBRANCH  17  19
ENDBRANCH   6  17
TORSDOF 3
ENDMDL
