MODEL 1
REMARK VINA RESULT:      -7.1      0.000      0.000
REMARK  Name = 
REMARK  16 active torsions:
REMARK  status: ('A' for Active; 'I' for Inactive)
REMARK    1  A    between atoms: C_1  and  C_2
REMARK    2  A    between atoms: C_2  and  C_9
REMARK    3  A    between atoms: C_3  and  C_4
REMARK    4  A    between atoms: C_4  and  C_5
REMARK    5  A    between atoms: C_5  and  C_6
REMARK    6  A    between atoms: C_6  and  C_7
REMARK    7  A    between atoms: C_6  and  C_8
REMARK    8  A    between atoms: C_9  and  C_10
REMARK    9  A    between atoms: C_10  and  C_11
REMARK   10  A    between atoms: C_10  and  C_12
REMARK   11  A    between atoms: C_12  and  C_13
REMARK   12  A    between atoms: C_13  and  C_14
REMARK   13  A    between atoms: C_15  and  C_16
REMARK   14  A    between atoms: C_16  and  O_17
REMARK   15  A    between atoms: C_16  and  C_18
REMARK   16  A    between atoms: C_18  and  C_19
REMARK                            x       y       z     vdW  Elec       q    Type
REMARK                         _______ _______ _______ _____ _____    ______ ____
ROOT
ATOM      1  C   UNL     1       8.402   8.112  18.292  0.00  0.00    +0.000 C 
ENDROOT
BRANCH   1   2
ATOM      2  C   UNL     1       8.718   9.474  18.818  0.00  0.00    +0.000 C 
ATOM      3  C   UNL     1       8.984  10.510  18.006  0.00  0.00    +0.000 C 
BRANCH   3   4
ATOM      4  C   UNL     1       9.083  11.974  18.373  0.00  0.00    +0.000 C 
BRANCH   4   5
ATOM      5  C   UNL     1      10.489  12.360  18.959  0.00  0.00    +0.000 C 
ATOM      6  C   UNL     1      11.634  11.758  18.134  0.00  0.00    +0.000 C 
ATOM      7  C   UNL     1      10.672  11.992  20.432  0.00  0.00    +0.000 C 
ATOM      8  C   UNL     1      10.117  13.176  21.181  0.00  0.00    +0.000 C 
ATOM      9  C   UNL     1      10.353  14.294  20.209  0.00  0.00    +0.000 C 
ATOM     10  O   UNL     1      10.281  15.481  20.467  0.00  0.00    +0.000 OA
ATOM     11  O   UNL     1      10.632  13.796  18.968  0.00  0.00    +0.000 OA
ENDBRANCH   4   5
BRANCH   4  12
ATOM     12  O   UNL     1       8.793  12.767  17.221  0.00  0.00    +0.000 OA
ATOM     13  H   UNL     1       8.382  13.589  17.547  0.00  0.00    +0.000 HD
ENDBRANCH   4  12
ENDBRANCH   3   4
ENDBRANCH   1   2
BRANCH   1  14
ATOM     14  C   UNL     1       7.103   8.050  17.496  0.00  0.00    +0.000 C 
BRANCH  14  15
ATOM     15  C   UNL     1       6.466   6.643  17.542  0.00  0.00    +0.000 C 
ATOM     16  C   UNL     1       7.170   5.719  16.543  0.00  0.00    +0.000 C 
BRANCH  15  17
ATOM     17  C   UNL     1       4.949   6.706  17.275  0.00  0.00    +0.000 C 
BRANCH  17  19
ATOM     18  C   UNL     1       3.812   4.424  17.147  0.00  0.00    +0.000 C 
ATOM     19  C   UNL     1       4.124   5.645  17.973  0.00  0.00    +0.000 C 
ATOM     20  C   UNL     1       3.811   5.793  19.274  0.00  0.00    +0.000 C 
BRANCH  20  21
ATOM     21  C   UNL     1       3.169   4.761  20.150  0.00  0.00    +0.000 C 
BRANCH  21  22
ATOM     22  C   UNL     1       1.649   4.901  20.204  0.00  0.00    +0.000 C 
BRANCH  22  23
ATOM     23  C   UNL     1       0.948   3.542  20.380  0.00  0.00    +0.000 C 
ATOM     24  C   UNL     1       0.927   2.723  19.088  0.00  0.00    +0.000 C 
ATOM     25  C   UNL     1       1.638   2.745  21.488  0.00  0.00    +0.000 C 
ENDBRANCH  22  23
ENDBRANCH  21  22
ENDBRANCH  20  21
ENDBRANCH  17  19
ENDBRANCH  15  17
ENDBRANCH  14  15
ENDBRANCH   1  14
TORSDOF 11
ENDMDL
MODEL 2
REMARK VINA RESULT:      -7.0      0.935      1.393
REMARK  Name = 
REMARK  16 active torsions:
REMARK  status: ('A' for Active; 'I' for Inactive)
REMARK    1  A    between atoms: C_1  and  C_2
REMARK    2  A    between atoms: C_2  and  C_9
REMARK    3  A    between atoms: C_3  and  C_4
REMARK    4  A    between atoms: C_4  and  C_5
REMARK    5  A    between atoms: C_5  and  C_6
REMARK    6  A    between atoms: C_6  and  C_7
REMARK    7  A    between atoms: C_6  and  C_8
REMARK    8  A    between atoms: C_9  and  C_10
REMARK    9  A    between atoms: C_10  and  C_11
REMARK   10  A    between atoms: C_10  and  C_12
REMARK   11  A    between atoms: C_12  and  C_13
REMARK   12  A    between atoms: C_13  and  C_14
REMARK   13  A    between atoms: C_15  and  C_16
REMARK   14  A    between atoms: C_16  and  O_17
REMARK   15  A    between atoms: C_16  and  C_18
REMARK   16  A    between atoms: C_18  and  C_19
REMARK                            x       y       z     vdW  Elec       q    Type
REMARK                         _______ _______ _______ _____ _____    ______ ____
ROOT
ATOM      1  C   UNL     1       8.052   7.782  17.375  0.00  0.00    +0.000 C 
ENDROOT
BRANCH   1   2
ATOM      2  C   UNL     1       7.878   9.153  17.942  0.00  0.00    +0.000 C 
ATOM      3  C   UNL     1       8.922   9.960  18.194  0.00  0.00    +0.000 C 
BRANCH   3   4
ATOM      4  C   UNL     1       8.893  11.434  18.535  0.00  0.00    +0.000 C 
BRANCH   4   5
ATOM      5  C   UNL     1      10.307  11.995  18.928  0.00  0.00    +0.000 C 
ATOM      6  C   UNL     1      11.399  11.511  17.965  0.00  0.00    +0.000 C 
ATOM      7  C   UNL     1      10.722  11.687  20.367  0.00  0.00    +0.000 C 
ATOM      8  C   UNL     1      10.132  12.816  21.172  0.00  0.00    +0.000 C 
ATOM      9  C   UNL     1      10.106  13.929  20.168  0.00  0.00    +0.000 C 
ATOM     10  O   UNL     1       9.927  15.105  20.423  0.00  0.00    +0.000 OA
ATOM     11  O   UNL     1      10.279  13.438  18.905  0.00  0.00    +0.000 OA
ENDBRANCH   4   5
BRANCH   4  12
ATOM     12  O   UNL     1       8.363  12.161  17.427  0.00  0.00    +0.000 OA
ATOM     13  H   UNL     1       9.120  12.597  16.994  0.00  0.00    +0.000 HD
ENDBRANCH   4  12
ENDBRANCH   3   4
ENDBRANCH   1   2
BRANCH   1  14
ATOM     14  C   UNL     1       7.533   6.673  18.284  0.00  0.00    +0.000 C 
BRANCH  14  15
ATOM     15  C   UNL     1       6.441   5.826  17.593  0.00  0.00    +0.000 C 
ATOM     16  C   UNL     1       7.078   4.909  16.545  0.00  0.00    +0.000 C 
BRANCH  15  17
ATOM     17  C   UNL     1       5.351   6.720  16.968  0.00  0.00    +0.000 C 
BRANCH  17  19
ATOM     18  C   UNL     1       3.150   7.747  17.754  0.00  0.00    +0.000 C 
ATOM     19  C   UNL     1       3.949   6.496  17.495  0.00  0.00    +0.000 C 
ATOM     20  C   UNL     1       3.470   5.243  17.603  0.00  0.00    +0.000 C 
BRANCH  20  21
ATOM     21  C   UNL     1       2.058   4.862  17.926  0.00  0.00    +0.000 C 
BRANCH  21  22
ATOM     22  C   UNL     1       1.848   4.598  19.415  0.00  0.00    +0.000 C 
BRANCH  22  23
ATOM     23  C   UNL     1       1.928   3.098  19.755  0.00  0.00    +0.000 C 
ATOM     24  C   UNL     1       1.674   2.820  21.238  0.00  0.00    +0.000 C 
ATOM     25  C   UNL     1       0.923   2.322  18.902  0.00  0.00    +0.000 C 
ENDBRANCH  22  23
ENDBRANCH  21  22
ENDBRANCH  20  21
ENDBRANCH  17  19
ENDBRANCH  15  17
ENDBRANCH  14  15
ENDBRANCH   1  14
TORSDOF 11
ENDMDL
MODEL 3
REMARK VINA RESULT:      -7.0      5.325      6.978
REMARK  Name = 
REMARK  16 active torsions:
REMARK  status: ('A' for Active; 'I' for Inactive)
REMARK    1  A    between atoms: C_1  and  C_2
REMARK    2  A    between atoms: C_2  and  C_9
REMARK    3  A    between atoms: C_3  and  C_4
REMARK    4  A    between atoms: C_4  and  C_5
REMARK    5  A    between atoms: C_5  and  C_6
REMARK    6  A    between atoms: C_6  and  C_7
REMARK    7  A    between atoms: C_6  and  C_8
REMARK    8  A    between atoms: C_9  and  C_10
REMARK    9  A    between atoms: C_10  and  C_11
REMARK   10  A    between atoms: C_10  and  C_12
REMARK   11  A    between atoms: C_12  and  C_13
REMARK   12  A    between atoms: C_13  and  C_14
REMARK   13  A    between atoms: C_15  and  C_16
REMARK   14  A    between atoms: C_16  and  O_17
REMARK   15  A    between atoms: C_16  and  C_18
REMARK   16  A    between atoms: C_18  and  C_19
REMARK                            x       y       z     vdW  Elec       q    Type
REMARK                         _______ _______ _______ _____ _____    ______ ____
ROOT
ATOM      1  C   UNL     1       2.785   6.711  17.956  0.00  0.00    +0.000 C 
ENDROOT
BRANCH   1   2
ATOM      2  C   UNL     1       1.843   7.871  17.948  0.00  0.00    +0.000 C 
ATOM      3  C   UNL     1       2.263   9.134  18.133  0.00  0.00    +0.000 C 
BRANCH   3   4
ATOM      4  C   UNL     1       1.482  10.411  17.917  0.00  0.00    +0.000 C 
BRANCH   4   5
ATOM      5  C   UNL     1       0.479  10.716  19.087  0.00  0.00    +0.000 C 
ATOM      6  C   UNL     1       0.819   9.914  20.350  0.00  0.00    +0.000 C 
ATOM      7  C   UNL     1      -0.989  10.497  18.723  0.00  0.00    +0.000 C 
ATOM      8  C   UNL     1      -1.418  11.807  18.113  0.00  0.00    +0.000 C 
ATOM      9  C   UNL     1      -0.510  12.780  18.803  0.00  0.00    +0.000 C 
ATOM     10  O   UNL     1      -0.644  13.989  18.807  0.00  0.00    +0.000 OA
ATOM     11  O   UNL     1       0.523  12.122  19.409  0.00  0.00    +0.000 OA
ENDBRANCH   4   5
BRANCH   4  12
ATOM     12  O   UNL     1       2.395  11.496  17.752  0.00  0.00    +0.000 OA
ATOM     13  H   UNL     1       2.920  11.298  16.954  0.00  0.00    +0.000 HD
ENDBRANCH   4  12
ENDBRANCH   3   4
ENDBRANCH   1   2
BRANCH   1  14
ATOM     14  C   UNL     1       4.163   7.036  17.390  0.00  0.00    +0.000 C 
BRANCH  14  15
ATOM     15  C   UNL     1       5.122   5.829  17.481  0.00  0.00    +0.000 C 
ATOM     16  C   UNL     1       6.439   6.155  16.771  0.00  0.00    +0.000 C 
BRANCH  15  17
ATOM     17  C   UNL     1       4.474   4.554  16.904  0.00  0.00    +0.000 C 
BRANCH  17  19
ATOM     18  C   UNL     1       4.831   3.411  19.158  0.00  0.00    +0.000 C 
ATOM     19  C   UNL     1       3.970   3.563  17.932  0.00  0.00    +0.000 C 
ATOM     20  C   UNL     1       2.775   2.968  17.754  0.00  0.00    +0.000 C 
BRANCH  20  21
ATOM     21  C   UNL     1       2.056   2.115  18.754  0.00  0.00    +0.000 C 
BRANCH  21  22
ATOM     22  C   UNL     1       0.804   2.791  19.308  0.00  0.00    +0.000 C 
BRANCH  22  23
ATOM     23  C   UNL     1       1.047   3.414  20.695  0.00  0.00    +0.000 C 
ATOM     24  C   UNL     1       2.114   2.663  21.494  0.00  0.00    +0.000 C 
ATOM     25  C   UNL     1       1.452   4.880  20.538  0.00  0.00    +0.000 C 
ENDBRANCH  22  23
ENDBRANCH  21  22
ENDBRANCH  20  21
ENDBRANCH  17  19
ENDBRANCH  15  17
ENDBRANCH  14  15
ENDBRANCH   1  14
TORSDOF 11
ENDMDL
MODEL 4
REMARK VINA RESULT:      -7.0      1.591      2.234
REMARK  Name = 
REMARK  16 active torsions:
REMARK  status: ('A' for Active; 'I' for Inactive)
REMARK    1  A    between atoms: C_1  and  C_2
REMARK    2  A    between atoms: C_2  and  C_9
REMARK    3  A    between atoms: C_3  and  C_4
REMARK    4  A    between atoms: C_4  and  C_5
REMARK    5  A    between atoms: C_5  and  C_6
REMARK    6  A    between atoms: C_6  and  C_7
REMARK    7  A    between atoms: C_6  and  C_8
REMARK    8  A    between atoms: C_9  and  C_10
REMARK    9  A    between atoms: C_10  and  C_11
REMARK   10  A    between atoms: C_10  and  C_12
REMARK   11  A    between atoms: C_12  and  C_13
REMARK   12  A    between atoms: C_13  and  C_14
REMARK   13  A    between atoms: C_15  and  C_16
REMARK   14  A    between atoms: C_16  and  O_17
REMARK   15  A    between atoms: C_16  and  C_18
REMARK   16  A    between atoms: C_18  and  C_19
REMARK                            x       y       z     vdW  Elec       q    Type
REMARK                         _______ _______ _______ _____ _____    ______ ____
ROOT
ATOM      1  C   UNL     1       7.379   8.255  17.644  0.00  0.00    +0.000 C 
ENDROOT
BRANCH   1   2
ATOM      2  C   UNL     1       8.596   8.850  18.272  0.00  0.00    +0.000 C 
ATOM      3  C   UNL     1       8.776  10.178  18.366  0.00  0.00    +0.000 C 
BRANCH   3   4
ATOM      4  C   UNL     1       9.820  10.918  19.173  0.00  0.00    +0.000 C 
BRANCH   4   5
ATOM      5  C   UNL     1      10.213  12.301  18.538  0.00  0.00    +0.000 C 
ATOM      6  C   UNL     1      11.583  12.242  17.851  0.00  0.00    +0.000 C 
ATOM      7  C   UNL     1      10.183  13.469  19.522  0.00  0.00    +0.000 C 
ATOM      8  C   UNL     1       8.754  13.944  19.491  0.00  0.00    +0.000 C 
ATOM      9  C   UNL     1       8.334  13.566  18.102  0.00  0.00    +0.000 C 
ATOM     10  O   UNL     1       7.330  13.957  17.537  0.00  0.00    +0.000 OA
ATOM     11  O   UNL     1       9.223  12.682  17.559  0.00  0.00    +0.000 OA
ENDBRANCH   4   5
BRANCH   4  12
ATOM     12  O   UNL     1       9.339  11.104  20.504  0.00  0.00    +0.000 OA
ATOM     13  H   UNL     1       9.340  10.224  20.925  0.00  0.00    +0.000 HD
ENDBRANCH   4  12
ENDBRANCH   3   4
ENDBRANCH   1   2
BRANCH   1  14
ATOM     14  C   UNL     1       7.563   6.807  17.203  0.00  0.00    +0.000 C 
BRANCH  14  15
ATOM     15  C   UNL     1       6.942   5.814  18.211  0.00  0.00    +0.000 C 
ATOM     16  C   UNL     1       7.843   5.690  19.442  0.00  0.00    +0.000 C 
BRANCH  15  17
ATOM     17  C   UNL     1       6.689   4.440  17.559  0.00  0.00    +0.000 C 
BRANCH  17  19
ATOM     18  C   UNL     1       5.299   4.349  15.420  0.00  0.00    +0.000 C 
ATOM     19  C   UNL     1       5.325   4.265  16.924  0.00  0.00    +0.000 C 
ATOM     20  C   UNL     1       4.267   3.954  17.694  0.00  0.00    +0.000 C 
BRANCH  20  21
ATOM     21  C   UNL     1       2.903   3.569  17.207  0.00  0.00    +0.000 C 
BRANCH  21  22
ATOM     22  C   UNL     1       1.797   4.422  17.826  0.00  0.00    +0.000 C 
BRANCH  22  23
ATOM     23  C   UNL     1       1.037   3.670  18.934  0.00  0.00    +0.000 C 
ATOM     24  C   UNL     1       1.211   2.153  18.837  0.00  0.00    +0.000 C 
ATOM     25  C   UNL     1       1.506   4.159  20.304  0.00  0.00    +0.000 C 
ENDBRANCH  22  23
ENDBRANCH  21  22
ENDBRANCH  20  21
ENDBRANCH  17  19
ENDBRANCH  15  17
ENDBRANCH  14  15
ENDBRANCH   1  14
TORSDOF 11
ENDMDL
MODEL 5
REMARK VINA RESULT:      -6.9      5.949      6.889
REMARK  Name = 
REMARK  16 active torsions:
REMARK  status: ('A' for Active; 'I' for Inactive)
REMARK    1  A    between atoms: C_1  and  C_2
REMARK    2  A    between atoms: C_2  and  C_9
REMARK    3  A    between atoms: C_3  and  C_4
REMARK    4  A    between atoms: C_4  and  C_5
REMARK    5  A    between atoms: C_5  and  C_6
REMARK    6  A    between atoms: C_6  and  C_7
REMARK    7  A    between atoms: C_6  and  C_8
REMARK    8  A    between atoms: C_9  and  C_10
REMARK    9  A    between atoms: C_10  and  C_11
REMARK   10  A    between atoms: C_10  and  C_12
REMARK   11  A    between atoms: C_12  and  C_13
REMARK   12  A    between atoms: C_13  and  C_14
REMARK   13  A    between atoms: C_15  and  C_16
REMARK   14  A    between atoms: C_16  and  O_17
REMARK   15  A    between atoms: C_16  and  C_18
REMARK   16  A    between atoms: C_18  and  C_19
REMARK                            x       y       z     vdW  Elec       q    Type
REMARK                         _______ _______ _______ _____ _____    ______ ____
ROOT
ATOM      1  C   UNL     1       3.011   7.434  17.344  0.00  0.00    +0.000 C 
ENDROOT
BRANCH   1   2
ATOM      2  C   UNL     1       2.643   8.579  18.230  0.00  0.00    +0.000 C 
ATOM      3  C   UNL     1       1.472   8.628  18.887  0.00  0.00    +0.000 C 
BRANCH   3   4
ATOM      4  C   UNL     1       1.064   9.584  19.986  0.00  0.00    +0.000 C 
BRANCH   4   5
ATOM      5  C   UNL     1       0.348  10.871  19.438  0.00  0.00    +0.000 C 
ATOM      6  C   UNL     1      -0.752  10.523  18.426  0.00  0.00    +0.000 C 
ATOM      7  C   UNL     1       1.299  11.900  18.826  0.00  0.00    +0.000 C 
ATOM      8  C   UNL     1       1.743  12.736  19.997  0.00  0.00    +0.000 C 
ATOM      9  C   UNL     1       0.566  12.625  20.920  0.00  0.00    +0.000 C 
ATOM     10  O   UNL     1       0.366  13.323  21.896  0.00  0.00    +0.000 OA
ATOM     11  O   UNL     1      -0.247  11.598  20.534  0.00  0.00    +0.000 OA
ENDBRANCH   4   5
BRANCH   4  12
ATOM     12  O   UNL     1       0.216   8.901  20.910  0.00  0.00    +0.000 OA
ATOM     13  H   UNL     1       0.738   8.161  21.270  0.00  0.00    +0.000 HD
ENDBRANCH   4  12
ENDBRANCH   3   4
ENDBRANCH   1   2
BRANCH   1  14
ATOM     14  C   UNL     1       3.779   6.328  18.060  0.00  0.00    +0.000 C 
BRANCH  14  15
ATOM     15  C   UNL     1       4.839   5.678  17.144  0.00  0.00    +0.000 C 
ATOM     16  C   UNL     1       5.081   6.562  15.917  0.00  0.00    +0.000 C 
BRANCH  15  17
ATOM     17  C   UNL     1       4.425   4.250  16.734  0.00  0.00    +0.000 C 
BRANCH  17  19
ATOM     18  C   UNL     1       4.744   3.323  19.091  0.00  0.00    +0.000 C 
ATOM     19  C   UNL     1       3.886   3.385  17.854  0.00  0.00    +0.000 C 
ATOM     20  C   UNL     1       2.669   2.822  17.735  0.00  0.00    +0.000 C 
BRANCH  20  21
ATOM     21  C   UNL     1       1.921   2.100  18.813  0.00  0.00    +0.000 C 
BRANCH  21  22
ATOM     22  C   UNL     1       0.758   2.919  19.369  0.00  0.00    +0.000 C 
BRANCH  22  23
ATOM     23  C   UNL     1       1.082   3.525  20.747  0.00  0.00    +0.000 C 
ATOM     24  C   UNL     1       2.120   2.706  21.516  0.00  0.00    +0.000 C 
ATOM     25  C   UNL     1       1.577   4.961  20.575  0.00  0.00    +0.000 C 
ENDBRANCH  22  23
ENDBRANCH  21  22
ENDBRANCH  20  21
ENDBRANCH  17  19
ENDBRANCH  15  17
ENDBRANCH  14  15
ENDBRANCH   1  14
TORSDOF 11
ENDMDL
MODEL 6
REMARK VINA RESULT:      -6.8      5.331      7.953
REMARK  Name = 
REMARK  16 active torsions:
REMARK  status: ('A' for Active; 'I' for Inactive)
REMARK    1  A    between atoms: C_1  and  C_2
REMARK    2  A    between atoms: C_2  and  C_9
REMARK    3  A    between atoms: C_3  and  C_4
REMARK    4  A    between atoms: C_4  and  C_5
REMARK    5  A    between atoms: C_5  and  C_6
REMARK    6  A    between atoms: C_6  and  C_7
REMARK    7  A    between atoms: C_6  and  C_8
REMARK    8  A    between atoms: C_9  and  C_10
REMARK    9  A    between atoms: C_10  and  C_11
REMARK   10  A    between atoms: C_10  and  C_12
REMARK   11  A    between atoms: C_12  and  C_13
REMARK   12  A    between atoms: C_13  and  C_14
REMARK   13  A    between atoms: C_15  and  C_16
REMARK   14  A    between atoms: C_16  and  O_17
REMARK   15  A    between atoms: C_16  and  C_18
REMARK   16  A    between atoms: C_18  and  C_19
REMARK                            x       y       z     vdW  Elec       q    Type
REMARK                         _______ _______ _______ _____ _____    ______ ____
ROOT
ATOM      1  C   UNL     1       2.040   3.392  17.880  0.00  0.00    +0.000 C 
ENDROOT
BRANCH   1   2
ATOM      2  C   UNL     1       3.397   3.440  17.257  0.00  0.00    +0.000 C 
ATOM      3  C   UNL     1       4.385   4.205  17.752  0.00  0.00    +0.000 C 
BRANCH   3   4
ATOM      4  C   UNL     1       5.852   4.178  17.383  0.00  0.00    +0.000 C 
BRANCH   4   5
ATOM      5  C   UNL     1       6.322   5.492  16.663  0.00  0.00    +0.000 C 
ATOM      6  C   UNL     1       6.835   6.536  17.664  0.00  0.00    +0.000 C 
ATOM      7  C   UNL     1       5.260   6.124  15.764  0.00  0.00    +0.000 C 
ATOM      8  C   UNL     1       5.432   5.425  14.440  0.00  0.00    +0.000 C 
ATOM      9  C   UNL     1       6.888   5.067  14.468  0.00  0.00    +0.000 C 
ATOM     10  O   UNL     1       7.541   4.694  13.511  0.00  0.00    +0.000 OA
ATOM     11  O   UNL     1       7.384   5.182  15.735  0.00  0.00    +0.000 OA
ENDBRANCH   4   5
BRANCH   4  12
ATOM     12  O   UNL     1       6.627   3.954  18.562  0.00  0.00    +0.000 OA
ATOM     13  H   UNL     1       6.840   3.003  18.577  0.00  0.00    +0.000 HD
ENDBRANCH   4  12
ENDBRANCH   3   4
ENDBRANCH   1   2
BRANCH   1  14
ATOM     14  C   UNL     1       2.017   2.708  19.243  0.00  0.00    +0.000 C 
BRANCH  14  15
ATOM     15  C   UNL     1       2.255   3.710  20.393  0.00  0.00    +0.000 C 
ATOM     16  C   UNL     1       2.298   2.967  21.732  0.00  0.00    +0.000 C 
BRANCH  15  17
ATOM     17  C   UNL     1       1.183   4.819  20.401  0.00  0.00    +0.000 C 
BRANCH  17  19
ATOM     18  C   UNL     1       2.963   6.475  19.623  0.00  0.00    +0.000 C 
ATOM     19  C   UNL     1       1.717   6.236  20.435  0.00  0.00    +0.000 C 
ATOM     20  C   UNL     1       1.024   7.194  21.077  0.00  0.00    +0.000 C 
BRANCH  20  21
ATOM     21  C   UNL     1       1.314   8.663  21.049  0.00  0.00    +0.000 C 
BRANCH  21  22
ATOM     22  C   UNL     1       0.049   9.513  21.152  0.00  0.00    +0.000 C 
BRANCH  22  23
ATOM     23  C   UNL     1      -0.472   9.947  19.769  0.00  0.00    +0.000 C 
ATOM     24  C   UNL     1      -1.076  11.353  19.787  0.00  0.00    +0.000 C 
ATOM     25  C   UNL     1       0.662   9.882  18.746  0.00  0.00    +0.000 C 
ENDBRANCH  22  23
ENDBRANCH  21  22
ENDBRANCH  20  21
ENDBRANCH  17  19
ENDBRANCH  15  17
ENDBRANCH  14  15
ENDBRANCH   1  14
TORSDOF 11
ENDMDL
MODEL 7
REMARK VINA RESULT:      -6.8      1.574      2.008
REMARK  Name = 
REMARK  16 active torsions:
REMARK  status: ('A' for Active; 'I' for Inactive)
REMARK    1  A    between atoms: C_1  and  C_2
REMARK    2  A    between atoms: C_2  and  C_9
REMARK    3  A    between atoms: C_3  and  C_4
REMARK    4  A    between atoms: C_4  and  C_5
REMARK    5  A    between atoms: C_5  and  C_6
REMARK    6  A    between atoms: C_6  and  C_7
REMARK    7  A    between atoms: C_6  and  C_8
REMARK    8  A    between atoms: C_9  and  C_10
REMARK    9  A    between atoms: C_10  and  C_11
REMARK   10  A    between atoms: C_10  and  C_12
REMARK   11  A    between atoms: C_12  and  C_13
REMARK   12  A    between atoms: C_13  and  C_14
REMARK   13  A    between atoms: C_15  and  C_16
REMARK   14  A    between atoms: C_16  and  O_17
REMARK   15  A    between atoms: C_16  and  C_18
REMARK   16  A    between atoms: C_18  and  C_19
REMARK                            x       y       z     vdW  Elec       q    Type
REMARK                         _______ _______ _______ _____ _____    ______ ____
ROOT
ATOM      1  C   UNL     1       7.491   8.221  17.526  0.00  0.00    +0.000 C 
ENDROOT
BRANCH   1   2
ATOM      2  C   UNL     1       8.474   8.879  18.439  0.00  0.00    +0.000 C 
ATOM      3  C   UNL     1       8.917  10.130  18.230  0.00  0.00    +0.000 C 
BRANCH   3   4
ATOM      4  C   UNL     1       9.712  11.003  19.177  0.00  0.00    +0.000 C 
BRANCH   4   5
ATOM      5  C   UNL     1       9.639  12.528  18.805  0.00  0.00    +0.000 C 
ATOM      6  C   UNL     1       8.599  12.797  17.710  0.00  0.00    +0.000 C 
ATOM      7  C   UNL     1      10.981  13.134  18.396  0.00  0.00    +0.000 C 
ATOM      8  C   UNL     1      11.608  13.557  19.699  0.00  0.00    +0.000 C 
ATOM      9  C   UNL     1      10.402  13.833  20.547  0.00  0.00    +0.000 C 
ATOM     10  O   UNL     1      10.407  14.425  21.610  0.00  0.00    +0.000 OA
ATOM     11  O   UNL     1       9.284  13.294  19.976  0.00  0.00    +0.000 OA
ENDBRANCH   4   5
BRANCH   4  12
ATOM     12  O   UNL     1       9.243  10.795  20.510  0.00  0.00    +0.000 OA
ATOM     13  H   UNL     1      10.021  10.873  21.092  0.00  0.00    +0.000 HD
ENDBRANCH   4  12
ENDBRANCH   3   4
ENDBRANCH   1   2
BRANCH   1  14
ATOM     14  C   UNL     1       7.654   6.707  17.440  0.00  0.00    +0.000 C 
BRANCH  14  15
ATOM     15  C   UNL     1       6.993   5.988  18.636  0.00  0.00    +0.000 C 
ATOM     16  C   UNL     1       8.053   5.634  19.682  0.00  0.00    +0.000 C 
BRANCH  15  17
ATOM     17  C   UNL     1       6.217   4.737  18.178  0.00  0.00    +0.000 C 
BRANCH  17  19
ATOM     18  C   UNL     1       4.873   4.973  16.020  0.00  0.00    +0.000 C 
ATOM     19  C   UNL     1       4.877   5.009  17.526  0.00  0.00    +0.000 C 
ATOM     20  C   UNL     1       3.781   5.160  18.294  0.00  0.00    +0.000 C 
BRANCH  20  21
ATOM     21  C   UNL     1       2.367   5.248  17.807  0.00  0.00    +0.000 C 
BRANCH  21  22
ATOM     22  C   UNL     1       1.488   4.125  18.351  0.00  0.00    +0.000 C 
BRANCH  22  23
ATOM     23  C   UNL     1       2.210   3.295  19.430  0.00  0.00    +0.000 C 
ATOM     24  C   UNL     1       1.392   3.173  20.717  0.00  0.00    +0.000 C 
ATOM     25  C   UNL     1       2.527   1.903  18.882  0.00  0.00    +0.000 C 
ENDBRANCH  22  23
ENDBRANCH  21  22
ENDBRANCH  20  21
ENDBRANCH  17  19
ENDBRANCH  15  17
ENDBRANCH  14  15
ENDBRANCH   1  14
TORSDOF 11
ENDMDL
MODEL 8
REMARK VINA RESULT:      -6.7      1.451      1.828
REMARK  Name = 
REMARK  16 active torsions:
REMARK  status: ('A' for Active; 'I' for Inactive)
REMARK    1  A    between atoms: C_1  and  C_2
REMARK    2  A    between atoms: C_2  and  C_9
REMARK    3  A    between atoms: C_3  and  C_4
REMARK    4  A    between atoms: C_4  and  C_5
REMARK    5  A    between atoms: C_5  and  C_6
REMARK    6  A    between atoms: C_6  and  C_7
REMARK    7  A    between atoms: C_6  and  C_8
REMARK    8  A    between atoms: C_9  and  C_10
REMARK    9  A    between atoms: C_10  and  C_11
REMARK   10  A    between atoms: C_10  and  C_12
REMARK   11  A    between atoms: C_12  and  C_13
REMARK   12  A    between atoms: C_13  and  C_14
REMARK   13  A    between atoms: C_15  and  C_16
REMARK   14  A    between atoms: C_16  and  O_17
REMARK   15  A    between atoms: C_16  and  C_18
REMARK   16  A    between atoms: C_18  and  C_19
REMARK                            x       y       z     vdW  Elec       q    Type
REMARK                         _______ _______ _______ _____ _____    ______ ____
ROOT
ATOM      1  C   UNL     1       8.292   8.296  18.383  0.00  0.00    +0.000 C 
ENDROOT
BRANCH   1   2
ATOM      2  C   UNL     1       8.609   9.651  17.837  0.00  0.00    +0.000 C 
ATOM      3  C   UNL     1       9.469  10.484  18.446  0.00  0.00    +0.000 C 
BRANCH   3   4
ATOM      4  C   UNL     1      10.063  11.764  17.901  0.00  0.00    +0.000 C 
BRANCH   4   5
ATOM      5  C   UNL     1      10.034  12.940  18.942  0.00  0.00    +0.000 C 
ATOM      6  C   UNL     1      10.685  12.538  20.272  0.00  0.00    +0.000 C 
ATOM      7  C   UNL     1       8.638  13.504  19.206  0.00  0.00    +0.000 C 
ATOM      8  C   UNL     1       8.451  14.546  18.134  0.00  0.00    +0.000 C 
ATOM      9  C   UNL     1       9.864  14.977  17.873  0.00  0.00    +0.000 C 
ATOM     10  O   UNL     1      10.196  15.967  17.250  0.00  0.00    +0.000 OA
ATOM     11  O   UNL     1      10.743  14.077  18.407  0.00  0.00    +0.000 OA
ENDBRANCH   4   5
BRANCH   4  12
ATOM     12  O   UNL     1      11.403  11.513  17.474  0.00  0.00    +0.000 OA
ATOM     13  H   UNL     1      11.927  12.293  17.735  0.00  0.00    +0.000 HD
ENDBRANCH   4  12
ENDBRANCH   3   4
ENDBRANCH   1   2
BRANCH   1  14
ATOM     14  C   UNL     1       7.584   7.385  17.386  0.00  0.00    +0.000 C 
BRANCH  14  15
ATOM     15  C   UNL     1       7.520   5.925  17.886  0.00  0.00    +0.000 C 
ATOM     16  C   UNL     1       7.146   4.993  16.730  0.00  0.00    +0.000 C 
BRANCH  15  17
ATOM     17  C   UNL     1       6.538   5.780  19.066  0.00  0.00    +0.000 C 
BRANCH  17  19
ATOM     18  C   UNL     1       4.502   6.651  17.795  0.00  0.00    +0.000 C 
ATOM     19  C   UNL     1       5.087   5.581  18.680  0.00  0.00    +0.000 C 
ATOM     20  C   UNL     1       4.449   4.453  19.045  0.00  0.00    +0.000 C 
BRANCH  20  21
ATOM     21  C   UNL     1       3.087   4.023  18.592  0.00  0.00    +0.000 C 
BRANCH  21  22
ATOM     22  C   UNL     1       1.971   4.587  19.469  0.00  0.00    +0.000 C 
BRANCH  22  23
ATOM     23  C   UNL     1       0.971   3.501  19.904  0.00  0.00    +0.000 C 
ATOM     24  C   UNL     1       0.845   2.376  18.875  0.00  0.00    +0.000 C 
ATOM     25  C   UNL     1       1.393   2.923  21.255  0.00  0.00    +0.000 C 
ENDBRANCH  22  23
ENDBRANCH  21  22
ENDBRANCH  20  21
ENDBRANCH  17  19
ENDBRANCH  15  17
ENDBRANCH  14  15
ENDBRANCH   1  14
TORSDOF 11
ENDMDL
MODEL 9
REMARK VINA RESULT:      -6.7      1.429      2.041
REMARK  Name = 
REMARK  16 active torsions:
REMARK  status: ('A' for Active; 'I' for Inactive)
REMARK    1  A    between atoms: C_1  and  C_2
REMARK    2  A    between atoms: C_2  and  C_9
REMARK    3  A    between atoms: C_3  and  C_4
REMARK    4  A    between atoms: C_4  and  C_5
REMARK    5  A    between atoms: C_5  and  C_6
REMARK    6  A    between atoms: C_6  and  C_7
REMARK    7  A    between atoms: C_6  and  C_8
REMARK    8  A    between atoms: C_9  and  C_10
REMARK    9  A    between atoms: C_10  and  C_11
REMARK   10  A    between atoms: C_10  and  C_12
REMARK   11  A    between atoms: C_12  and  C_13
REMARK   12  A    between atoms: C_13  and  C_14
REMARK   13  A    between atoms: C_15  and  C_16
REMARK   14  A    between atoms: C_16  and  O_17
REMARK   15  A    between atoms: C_16  and  C_18
REMARK   16  A    between atoms: C_18  and  C_19
REMARK                            x       y       z     vdW  Elec       q    Type
REMARK                         _______ _______ _______ _____ _____    ______ ____
ROOT
ATOM      1  C   UNL     1       7.357   8.107  17.584  0.00  0.00    +0.000 C 
ENDROOT
BRANCH   1   2
ATOM      2  C   UNL     1       8.600   8.828  17.993  0.00  0.00    +0.000 C 
ATOM      3  C   UNL     1       8.564   9.998  18.654  0.00  0.00    +0.000 C 
BRANCH   3   4
ATOM      4  C   UNL     1       9.710  10.714  19.334  0.00  0.00    +0.000 C 
BRANCH   4   5
ATOM      5  C   UNL     1      10.168  12.002  18.559  0.00  0.00    +0.000 C 
ATOM      6  C   UNL     1      11.494  11.779  17.820  0.00  0.00    +0.000 C 
ATOM      7  C   UNL     1      10.273  13.251  19.433  0.00  0.00    +0.000 C 
ATOM      8  C   UNL     1       8.881  13.829  19.421  0.00  0.00    +0.000 C 
ATOM      9  C   UNL     1       8.365  13.363  18.092  0.00  0.00    +0.000 C 
ATOM     10  O   UNL     1       7.365  13.779  17.538  0.00  0.00    +0.000 OA
ATOM     11  O   UNL     1       9.160  12.370  17.593  0.00  0.00    +0.000 OA
ENDBRANCH   4   5
BRANCH   4  12
ATOM     12  O   UNL     1       9.326  11.050  20.668  0.00  0.00    +0.000 OA
ATOM     13  H   UNL     1       8.574  10.471  20.894  0.00  0.00    +0.000 HD
ENDBRANCH   4  12
ENDBRANCH   3   4
ENDBRANCH   1   2
BRANCH   1  14
ATOM     14  C   UNL     1       7.524   6.594  17.508  0.00  0.00    +0.000 C 
BRANCH  14  15
ATOM     15  C   UNL     1       6.252   5.901  16.969  0.00  0.00    +0.000 C 
ATOM     16  C   UNL     1       6.579   5.137  15.684  0.00  0.00    +0.000 C 
BRANCH  15  17
ATOM     17  C   UNL     1       5.114   6.917  16.745  0.00  0.00    +0.000 C 
BRANCH  17  19
ATOM     18  C   UNL     1       2.972   7.899  17.726  0.00  0.00    +0.000 C 
ATOM     19  C   UNL     1       3.878   6.703  17.594  0.00  0.00    +0.000 C 
ATOM     20  C   UNL     1       3.609   5.477  18.081  0.00  0.00    +0.000 C 
BRANCH  20  21
ATOM     21  C   UNL     1       2.347   5.060  18.774  0.00  0.00    +0.000 C 
BRANCH  21  22
ATOM     22  C   UNL     1       2.475   5.096  20.295  0.00  0.00    +0.000 C 
BRANCH  22  23
ATOM     23  C   UNL     1       2.400   3.689  20.916  0.00  0.00    +0.000 C 
ATOM     24  C   UNL     1       0.994   3.090  20.838  0.00  0.00    +0.000 C 
ATOM     25  C   UNL     1       3.398   2.764  20.219  0.00  0.00    +0.000 C 
ENDBRANCH  22  23
ENDBRANCH  21  22
ENDBRANCH  20  21
ENDBRANCH  17  19
ENDBRANCH  15  17
ENDBRANCH  14  15
ENDBRANCH   1  14
TORSDOF 11
ENDMDL
