MODEL 1
REMARK VINA RESULT:      -7.4      0.000      0.000
REMARK  Name = 
REMARK  9 active torsions:
REMARK  status: ('A' for Active; 'I' for Inactive)
REMARK    1  A    between atoms: C_1  and  C_2
REMARK    2  A    between atoms: C_2  and  C_3
REMARK    3  A    between atoms: C_3  and  N_4
REMARK    4  A    between atoms: N_4  and  C_5
REMARK    5  A    between atoms: C_5  and  C_6
REMARK    6  A    between atoms: C_6  and  O_7
REMARK    7  A    between atoms: C_6  and  C_8
REMARK    8  A    between atoms: C_16  and  C_17
REMARK    9  A    between atoms: C_17  and  C_18
REMARK                            x       y       z     vdW  Elec       q    Type
REMARK                         _______ _______ _______ _____ _____    ______ ____
ROOT
ATOM      1  C   UNL     1       6.094   4.459  17.913  0.00  0.00    +0.000 A 
ATOM      2  O   UNL     1       5.679   3.915  19.095  0.00  0.00    +0.000 OA
ATOM      3  C   UNL     1       4.400   3.490  18.914  0.00  0.00    +0.000 A 
ATOM      4  C   UNL     1       3.603   2.891  19.890  0.00  0.00    +0.000 A 
ATOM      5  C   UNL     1       2.306   2.533  19.509  0.00  0.00    +0.000 A 
ATOM      6  C   UNL     1       1.847   2.770  18.211  0.00  0.00    +0.000 A 
ATOM      7  C   UNL     1       2.674   3.371  17.250  0.00  0.00    +0.000 A 
ATOM      8  C   UNL     1       3.985   3.744  17.612  0.00  0.00    +0.000 A 
ATOM      9  C   UNL     1       5.095   4.365  16.956  0.00  0.00    +0.000 A 
ENDROOT
BRANCH   9  10
ATOM     10  C   UNL     1       5.185   4.831  15.540  0.00  0.00    +0.000 C 
ATOM     11  C   UNL     1       6.029   3.915  14.666  0.00  0.00    +0.000 C 
ENDBRANCH   9  10
BRANCH   1  12
ATOM     12  C   UNL     1       7.456   5.065  17.893  0.00  0.00    +0.000 C 
BRANCH  12  13
ATOM     13  O   UNL     1       8.406   4.005  17.741  0.00  0.00    +0.000 OA
ATOM     14  H   UNL     1       7.883   3.194  17.601  0.00  0.00    +0.000 HD
ENDBRANCH  12  13
BRANCH  12  15
ATOM     15  C   UNL     1       7.726   5.856  19.189  0.00  0.00    +0.000 C 
BRANCH  15  16
ATOM     16  N   UNL     1       8.374   7.146  18.909  0.00  0.00    +0.000 NA
ATOM     17  H   UNL     1       8.314   7.731  19.747  0.00  0.00    +0.000 HD
BRANCH  16  18
ATOM     18  C   UNL     1       7.740   7.803  17.772  0.00  0.00    +0.000 C 
BRANCH  18  20
ATOM     19  C   UNL     1       8.956   9.647  18.959  0.00  0.00    +0.000 C 
ATOM     20  C   UNL     1       8.126   9.280  17.738  0.00  0.00    +0.000 C 
ENDBRANCH  18  20
ENDBRANCH  16  18
ENDBRANCH  15  16
ENDBRANCH  12  15
ENDBRANCH   1  12
TORSDOF 7
ENDMDL
MODEL 2
REMARK VINA RESULT:      -7.2      2.644      5.886
REMARK  Name = 
REMARK  9 active torsions:
REMARK  status: ('A' for Active; 'I' for Inactive)
REMARK    1  A    between atoms: C_1  and  C_2
REMARK    2  A    between atoms: C_2  and  C_3
REMARK    3  A    between atoms: C_3  and  N_4
REMARK    4  A    between atoms: N_4  and  C_5
REMARK    5  A    between atoms: C_5  and  C_6
REMARK    6  A    between atoms: C_6  and  O_7
REMARK    7  A    between atoms: C_6  and  C_8
REMARK    8  A    between atoms: C_16  and  C_17
REMARK    9  A    between atoms: C_17  and  C_18
REMARK                            x       y       z     vdW  Elec       q    Type
REMARK                         _______ _______ _______ _____ _____    ______ ____
ROOT
ATOM      1  C   UNL     1       4.852   3.945  18.940  0.00  0.00    +0.000 A 
ATOM      2  O   UNL     1       6.134   4.162  19.359  0.00  0.00    +0.000 OA
ATOM      3  C   UNL     1       6.554   5.322  18.786  0.00  0.00    +0.000 A 
ATOM      4  C   UNL     1       7.818   5.888  18.944  0.00  0.00    +0.000 A 
ATOM      5  C   UNL     1       8.060   7.084  18.260  0.00  0.00    +0.000 A 
ATOM      6  C   UNL     1       7.074   7.668  17.463  0.00  0.00    +0.000 A 
ATOM      7  C   UNL     1       5.809   7.075  17.326  0.00  0.00    +0.000 A 
ATOM      8  C   UNL     1       5.542   5.868  18.004  0.00  0.00    +0.000 A 
ATOM      9  C   UNL     1       4.429   4.976  18.115  0.00  0.00    +0.000 A 
ENDROOT
BRANCH   9  10
ATOM     10  C   UNL     1       3.082   5.099  17.480  0.00  0.00    +0.000 C 
ATOM     11  C   UNL     1       2.297   6.302  17.982  0.00  0.00    +0.000 C 
ENDBRANCH   9  10
BRANCH   1  12
ATOM     12  C   UNL     1       4.203   2.679  19.387  0.00  0.00    +0.000 C 
BRANCH  12  13
ATOM     13  O   UNL     1       5.176   1.921  20.114  0.00  0.00    +0.000 OA
ATOM     14  H   UNL     1       4.688   1.183  20.525  0.00  0.00    +0.000 HD
ENDBRANCH  12  13
BRANCH  12  15
ATOM     15  C   UNL     1       3.676   1.876  18.182  0.00  0.00    +0.000 C 
BRANCH  15  16
ATOM     16  N   UNL     1       2.217   1.700  18.245  0.00  0.00    +0.000 NA
ATOM     17  H   UNL     1       1.783   2.321  17.559  0.00  0.00    +0.000 HD
BRANCH  16  18
ATOM     18  C   UNL     1       1.724   1.987  19.588  0.00  0.00    +0.000 C 
BRANCH  18  20
ATOM     19  C   UNL     1       1.007   4.178  20.576  0.00  0.00    +0.000 C 
ATOM     20  C   UNL     1       0.692   3.111  19.538  0.00  0.00    +0.000 C 
ENDBRANCH  18  20
ENDBRANCH  16  18
ENDBRANCH  15  16
ENDBRANCH  12  15
ENDBRANCH   1  12
TORSDOF 7
ENDMDL
MODEL 3
REMARK VINA RESULT:      -6.9      1.321      1.512
REMARK  Name = 
REMARK  9 active torsions:
REMARK  status: ('A' for Active; 'I' for Inactive)
REMARK    1  A    between atoms: C_1  and  C_2
REMARK    2  A    between atoms: C_2  and  C_3
REMARK    3  A    between atoms: C_3  and  N_4
REMARK    4  A    between atoms: N_4  and  C_5
REMARK    5  A    between atoms: C_5  and  C_6
REMARK    6  A    between atoms: C_6  and  O_7
REMARK    7  A    between atoms: C_6  and  C_8
REMARK    8  A    between atoms: C_16  and  C_17
REMARK    9  A    between atoms: C_17  and  C_18
REMARK                            x       y       z     vdW  Elec       q    Type
REMARK                         _______ _______ _______ _____ _____    ______ ____
ROOT
ATOM      1  C   UNL     1       6.058   5.089  18.458  0.00  0.00    +0.000 A 
ATOM      2  O   UNL     1       5.204   5.278  19.507  0.00  0.00    +0.000 OA
ATOM      3  C   UNL     1       3.986   4.811  19.123  0.00  0.00    +0.000 A 
ATOM      4  C   UNL     1       2.829   4.838  19.902  0.00  0.00    +0.000 A 
ATOM      5  C   UNL     1       1.668   4.317  19.321  0.00  0.00    +0.000 A 
ATOM      6  C   UNL     1       1.685   3.799  18.024  0.00  0.00    +0.000 A 
ATOM      7  C   UNL     1       2.866   3.783  17.266  0.00  0.00    +0.000 A 
ATOM      8  C   UNL     1       4.047   4.305  17.829  0.00  0.00    +0.000 A 
ATOM      9  C   UNL     1       5.402   4.475  17.401  0.00  0.00    +0.000 A 
ENDROOT
BRANCH   9  10
ATOM     10  C   UNL     1       6.011   4.090  16.092  0.00  0.00    +0.000 C 
ATOM     11  C   UNL     1       5.595   5.007  14.952  0.00  0.00    +0.000 C 
ENDBRANCH   9  10
BRANCH   1  12
ATOM     12  C   UNL     1       7.449   5.598  18.623  0.00  0.00    +0.000 C 
BRANCH  12  13
ATOM     13  O   UNL     1       7.731   5.658  20.025  0.00  0.00    +0.000 OA
ATOM     14  H   UNL     1       7.182   4.966  20.439  0.00  0.00    +0.000 HD
ENDBRANCH  12  13
BRANCH  12  15
ATOM     15  C   UNL     1       7.607   6.989  17.977  0.00  0.00    +0.000 C 
BRANCH  15  16
ATOM     16  N   UNL     1       8.499   7.853  18.766  0.00  0.00    +0.000 NA
ATOM     17  H   UNL     1       8.196   7.832  19.742  0.00  0.00    +0.000 HD
BRANCH  16  18
ATOM     18  C   UNL     1       8.482   9.217  18.248  0.00  0.00    +0.000 C 
BRANCH  18  20
ATOM     19  C   UNL     1      10.003  11.203  18.418  0.00  0.00    +0.000 C 
ATOM     20  C   UNL     1       9.234  10.147  19.197  0.00  0.00    +0.000 C 
ENDBRANCH  18  20
ENDBRANCH  16  18
ENDBRANCH  15  16
ENDBRANCH  12  15
ENDBRANCH   1  12
TORSDOF 7
ENDMDL
MODEL 4
REMARK VINA RESULT:      -6.9      1.334      1.616
REMARK  Name = 
REMARK  9 active torsions:
REMARK  status: ('A' for Active; 'I' for Inactive)
REMARK    1  A    between atoms: C_1  and  C_2
REMARK    2  A    between atoms: C_2  and  C_3
REMARK    3  A    between atoms: C_3  and  N_4
REMARK    4  A    between atoms: N_4  and  C_5
REMARK    5  A    between atoms: C_5  and  C_6
REMARK    6  A    between atoms: C_6  and  O_7
REMARK    7  A    between atoms: C_6  and  C_8
REMARK    8  A    between atoms: C_16  and  C_17
REMARK    9  A    between atoms: C_17  and  C_18
REMARK                            x       y       z     vdW  Elec       q    Type
REMARK                         _______ _______ _______ _____ _____    ______ ____
ROOT
ATOM      1  C   UNL     1       5.698   4.784  18.338  0.00  0.00    +0.000 A 
ATOM      2  O   UNL     1       5.471   3.693  19.128  0.00  0.00    +0.000 OA
ATOM      3  C   UNL     1       4.123   3.567  19.260  0.00  0.00    +0.000 A 
ATOM      4  C   UNL     1       3.475   2.585  20.008  0.00  0.00    +0.000 A 
ATOM      5  C   UNL     1       2.076   2.631  20.027  0.00  0.00    +0.000 A 
ATOM      6  C   UNL     1       1.381   3.618  19.325  0.00  0.00    +0.000 A 
ATOM      7  C   UNL     1       2.062   4.590  18.577  0.00  0.00    +0.000 A 
ATOM      8  C   UNL     1       3.471   4.566  18.546  0.00  0.00    +0.000 A 
ATOM      9  C   UNL     1       4.499   5.352  17.935  0.00  0.00    +0.000 A 
ENDROOT
BRANCH   9  10
ATOM     10  C   UNL     1       4.344   6.545  17.050  0.00  0.00    +0.000 C 
ATOM     11  C   UNL     1       3.471   7.630  17.663  0.00  0.00    +0.000 C 
ENDBRANCH   9  10
BRANCH   1  12
ATOM     12  C   UNL     1       7.122   5.167  18.113  0.00  0.00    +0.000 C 
BRANCH  12  13
ATOM     13  O   UNL     1       7.853   3.974  17.809  0.00  0.00    +0.000 OA
ATOM     14  H   UNL     1       7.687   3.360  18.548  0.00  0.00    +0.000 HD
ENDBRANCH  12  13
BRANCH  12  15
ATOM     15  C   UNL     1       7.709   5.862  19.357  0.00  0.00    +0.000 C 
BRANCH  15  16
ATOM     16  N   UNL     1       8.446   7.083  18.997  0.00  0.00    +0.000 NA
ATOM     17  H   UNL     1       8.384   7.744  19.775  0.00  0.00    +0.000 HD
BRANCH  16  18
ATOM     18  C   UNL     1       7.904   7.668  17.775  0.00  0.00    +0.000 C 
BRANCH  18  20
ATOM     19  C   UNL     1       8.993   9.661  18.837  0.00  0.00    +0.000 C 
ATOM     20  C   UNL     1       7.912   9.191  17.876  0.00  0.00    +0.000 C 
ENDBRANCH  18  20
ENDBRANCH  16  18
ENDBRANCH  15  16
ENDBRANCH  12  15
ENDBRANCH   1  12
TORSDOF 7
ENDMDL
MODEL 5
REMARK VINA RESULT:      -6.8      2.829      4.321
REMARK  Name = 
REMARK  9 active torsions:
REMARK  status: ('A' for Active; 'I' for Inactive)
REMARK    1  A    between atoms: C_1  and  C_2
REMARK    2  A    between atoms: C_2  and  C_3
REMARK    3  A    between atoms: C_3  and  N_4
REMARK    4  A    between atoms: N_4  and  C_5
REMARK    5  A    between atoms: C_5  and  C_6
REMARK    6  A    between atoms: C_6  and  O_7
REMARK    7  A    between atoms: C_6  and  C_8
REMARK    8  A    between atoms: C_16  and  C_17
REMARK    9  A    between atoms: C_17  and  C_18
REMARK                            x       y       z     vdW  Elec       q    Type
REMARK                         _______ _______ _______ _____ _____    ______ ____
ROOT
ATOM      1  C   UNL     1       4.375   5.295  17.148  0.00  0.00    +0.000 A 
ATOM      2  O   UNL     1       4.213   3.957  16.929  0.00  0.00    +0.000 OA
ATOM      3  C   UNL     1       3.148   3.554  17.673  0.00  0.00    +0.000 A 
ATOM      4  C   UNL     1       2.663   2.249  17.747  0.00  0.00    +0.000 A 
ATOM      5  C   UNL     1       1.559   2.035  18.579  0.00  0.00    +0.000 A 
ATOM      6  C   UNL     1       0.984   3.088  19.293  0.00  0.00    +0.000 A 
ATOM      7  C   UNL     1       1.493   4.392  19.195  0.00  0.00    +0.000 A 
ATOM      8  C   UNL     1       2.606   4.632  18.365  0.00  0.00    +0.000 A 
ATOM      9  C   UNL     1       3.399   5.769  18.012  0.00  0.00    +0.000 A 
ENDROOT
BRANCH   9  10
ATOM     10  C   UNL     1       3.240   7.182  18.469  0.00  0.00    +0.000 C 
ATOM     11  C   UNL     1       2.131   7.921  17.736  0.00  0.00    +0.000 C 
ENDBRANCH   9  10
BRANCH   1  12
ATOM     12  C   UNL     1       5.541   5.948  16.487  0.00  0.00    +0.000 C 
BRANCH  12  13
ATOM     13  O   UNL     1       5.037   6.825  15.474  0.00  0.00    +0.000 OA
ATOM     14  H   UNL     1       4.779   6.254  14.727  0.00  0.00    +0.000 HD
ENDBRANCH  12  13
BRANCH  12  15
ATOM     15  C   UNL     1       6.487   4.897  15.874  0.00  0.00    +0.000 C 
BRANCH  15  16
ATOM     16  N   UNL     1       7.367   5.490  14.856  0.00  0.00    +0.000 NA
ATOM     17  H   UNL     1       7.086   6.462  14.706  0.00  0.00    +0.000 HD
BRANCH  16  18
ATOM     18  C   UNL     1       7.294   4.732  13.611  0.00  0.00    +0.000 C 
BRANCH  18  20
ATOM     19  C   UNL     1       5.815   3.263  12.218  0.00  0.00    +0.000 C 
ATOM     20  C   UNL     1       6.036   3.868  13.596  0.00  0.00    +0.000 C 
ENDBRANCH  18  20
ENDBRANCH  16  18
ENDBRANCH  15  16
ENDBRANCH  12  15
ENDBRANCH   1  12
TORSDOF 7
ENDMDL
MODEL 6
REMARK VINA RESULT:      -6.7      2.089      2.688
REMARK  Name = 
REMARK  9 active torsions:
REMARK  status: ('A' for Active; 'I' for Inactive)
REMARK    1  A    between atoms: C_1  and  C_2
REMARK    2  A    between atoms: C_2  and  C_3
REMARK    3  A    between atoms: C_3  and  N_4
REMARK    4  A    between atoms: N_4  and  C_5
REMARK    5  A    between atoms: C_5  and  C_6
REMARK    6  A    between atoms: C_6  and  O_7
REMARK    7  A    between atoms: C_6  and  C_8
REMARK    8  A    between atoms: C_16  and  C_17
REMARK    9  A    between atoms: C_17  and  C_18
REMARK                            x       y       z     vdW  Elec       q    Type
REMARK                         _______ _______ _______ _____ _____    ______ ____
ROOT
ATOM      1  C   UNL     1       4.312   4.787  16.937  0.00  0.00    +0.000 A 
ATOM      2  O   UNL     1       3.894   3.488  16.909  0.00  0.00    +0.000 OA
ATOM      3  C   UNL     1       2.894   3.368  17.823  0.00  0.00    +0.000 A 
ATOM      4  C   UNL     1       2.208   2.190  18.118  0.00  0.00    +0.000 A 
ATOM      5  C   UNL     1       1.216   2.270  19.101  0.00  0.00    +0.000 A 
ATOM      6  C   UNL     1       0.939   3.479  19.745  0.00  0.00    +0.000 A 
ATOM      7  C   UNL     1       1.645   4.648  19.423  0.00  0.00    +0.000 A 
ATOM      8  C   UNL     1       2.651   4.591  18.438  0.00  0.00    +0.000 A 
ATOM      9  C   UNL     1       3.568   5.519  17.850  0.00  0.00    +0.000 A 
ENDROOT
BRANCH   9  10
ATOM     10  C   UNL     1       3.721   6.976  18.145  0.00  0.00    +0.000 C 
ATOM     11  C   UNL     1       2.433   7.760  17.941  0.00  0.00    +0.000 C 
ENDBRANCH   9  10
BRANCH   1  12
ATOM     12  C   UNL     1       5.465   5.142  16.061  0.00  0.00    +0.000 C 
BRANCH  12  13
ATOM     13  O   UNL     1       5.589   4.121  15.065  0.00  0.00    +0.000 OA
ATOM     14  H   UNL     1       5.555   3.272  15.544  0.00  0.00    +0.000 HD
ENDBRANCH  12  13
BRANCH  12  15
ATOM     15  C   UNL     1       6.764   5.261  16.882  0.00  0.00    +0.000 C 
BRANCH  15  16
ATOM     16  N   UNL     1       7.452   6.536  16.623  0.00  0.00    +0.000 NA
ATOM     17  H   UNL     1       8.311   6.345  16.103  0.00  0.00    +0.000 HD
BRANCH  16  18
ATOM     18  C   UNL     1       7.747   7.223  17.876  0.00  0.00    +0.000 C 
BRANCH  18  20
ATOM     19  C   UNL     1       8.748   9.403  18.606  0.00  0.00    +0.000 C 
ATOM     20  C   UNL     1       7.771   8.733  17.652  0.00  0.00    +0.000 C 
ENDBRANCH  18  20
ENDBRANCH  16  18
ENDBRANCH  15  16
ENDBRANCH  12  15
ENDBRANCH   1  12
TORSDOF 7
ENDMDL
MODEL 7
REMARK VINA RESULT:      -6.7      2.432      2.975
REMARK  Name = 
REMARK  9 active torsions:
REMARK  status: ('A' for Active; 'I' for Inactive)
REMARK    1  A    between atoms: C_1  and  C_2
REMARK    2  A    between atoms: C_2  and  C_3
REMARK    3  A    between atoms: C_3  and  N_4
REMARK    4  A    between atoms: N_4  and  C_5
REMARK    5  A    between atoms: C_5  and  C_6
REMARK    6  A    between atoms: C_6  and  O_7
REMARK    7  A    between atoms: C_6  and  C_8
REMARK    8  A    between atoms: C_16  and  C_17
REMARK    9  A    between atoms: C_17  and  C_18
REMARK                            x       y       z     vdW  Elec       q    Type
REMARK                         _______ _______ _______ _____ _____    ______ ____
ROOT
ATOM      1  C   UNL     1       4.057   5.896  17.321  0.00  0.00    +0.000 A 
ATOM      2  O   UNL     1       4.116   4.576  16.975  0.00  0.00    +0.000 OA
ATOM      3  C   UNL     1       3.131   3.936  17.661  0.00  0.00    +0.000 A 
ATOM      4  C   UNL     1       2.865   2.568  17.604  0.00  0.00    +0.000 A 
ATOM      5  C   UNL     1       1.812   2.099  18.396  0.00  0.00    +0.000 A 
ATOM      6  C   UNL     1       1.073   2.972  19.198  0.00  0.00    +0.000 A 
ATOM      7  C   UNL     1       1.362   4.344  19.231  0.00  0.00    +0.000 A 
ATOM      8  C   UNL     1       2.421   4.840  18.444  0.00  0.00    +0.000 A 
ATOM      9  C   UNL     1       3.018   6.120  18.212  0.00  0.00    +0.000 A 
ENDROOT
BRANCH   9  10
ATOM     10  C   UNL     1       2.630   7.438  18.798  0.00  0.00    +0.000 C 
ATOM     11  C   UNL     1       1.983   8.370  17.785  0.00  0.00    +0.000 C 
ENDBRANCH   9  10
BRANCH   1  12
ATOM     12  C   UNL     1       5.100   6.790  16.743  0.00  0.00    +0.000 C 
BRANCH  12  13
ATOM     13  O   UNL     1       5.196   6.504  15.343  0.00  0.00    +0.000 OA
ATOM     14  H   UNL     1       5.833   7.147  14.980  0.00  0.00    +0.000 HD
ENDBRANCH  12  13
BRANCH  12  15
ATOM     15  C   UNL     1       6.459   6.571  17.436  0.00  0.00    +0.000 C 
BRANCH  15  16
ATOM     16  N   UNL     1       7.452   7.568  17.007  0.00  0.00    +0.000 NA
ATOM     17  H   UNL     1       8.072   7.136  16.318  0.00  0.00    +0.000 HD
BRANCH  16  18
ATOM     18  C   UNL     1       8.211   8.061  18.151  0.00  0.00    +0.000 C 
BRANCH  18  20
ATOM     19  C   UNL     1       9.223  10.098  19.208  0.00  0.00    +0.000 C 
ATOM     20  C   UNL     1       8.385   9.575  18.051  0.00  0.00    +0.000 C 
ENDBRANCH  18  20
ENDBRANCH  16  18
ENDBRANCH  15  16
ENDBRANCH  12  15
ENDBRANCH   1  12
TORSDOF 7
ENDMDL
MODEL 8
REMARK VINA RESULT:      -6.6      2.689      5.154
REMARK  Name = 
REMARK  9 active torsions:
REMARK  status: ('A' for Active; 'I' for Inactive)
REMARK    1  A    between atoms: C_1  and  C_2
REMARK    2  A    between atoms: C_2  and  C_3
REMARK    3  A    between atoms: C_3  and  N_4
REMARK    4  A    between atoms: N_4  and  C_5
REMARK    5  A    between atoms: C_5  and  C_6
REMARK    6  A    between atoms: C_6  and  O_7
REMARK    7  A    between atoms: C_6  and  C_8
REMARK    8  A    between atoms: C_16  and  C_17
REMARK    9  A    between atoms: C_17  and  C_18
REMARK                            x       y       z     vdW  Elec       q    Type
REMARK                         _______ _______ _______ _____ _____    ______ ____
ROOT
ATOM      1  C   UNL     1       6.104   4.400  16.143  0.00  0.00    +0.000 A 
ATOM      2  O   UNL     1       4.800   4.098  15.872  0.00  0.00    +0.000 OA
ATOM      3  C   UNL     1       4.156   3.995  17.066  0.00  0.00    +0.000 A 
ATOM      4  C   UNL     1       2.808   3.677  17.230  0.00  0.00    +0.000 A 
ATOM      5  C   UNL     1       2.334   3.608  18.545  0.00  0.00    +0.000 A 
ATOM      6  C   UNL     1       3.184   3.848  19.627  0.00  0.00    +0.000 A 
ATOM      7  C   UNL     1       4.535   4.169  19.429  0.00  0.00    +0.000 A 
ATOM      8  C   UNL     1       5.036   4.242  18.114  0.00  0.00    +0.000 A 
ATOM      9  C   UNL     1       6.303   4.519  17.510  0.00  0.00    +0.000 A 
ENDROOT
BRANCH   9  10
ATOM     10  C   UNL     1       7.591   4.859  18.185  0.00  0.00    +0.000 C 
ATOM     11  C   UNL     1       7.688   6.326  18.575  0.00  0.00    +0.000 C 
ENDBRANCH   9  10
BRANCH   1  12
ATOM     12  C   UNL     1       7.029   4.491  14.977  0.00  0.00    +0.000 C 
BRANCH  12  13
ATOM     13  O   UNL     1       7.700   5.754  15.046  0.00  0.00    +0.000 OA
ATOM     14  H   UNL     1       8.444   5.698  14.418  0.00  0.00    +0.000 HD
ENDBRANCH  12  13
BRANCH  12  15
ATOM     15  C   UNL     1       6.257   4.358  13.649  0.00  0.00    +0.000 C 
BRANCH  15  16
ATOM     16  N   UNL     1       6.224   2.964  13.181  0.00  0.00    +0.000 NA
ATOM     17  H   UNL     1       7.169   2.578  13.236  0.00  0.00    +0.000 HD
BRANCH  16  18
ATOM     18  C   UNL     1       5.715   2.894  11.815  0.00  0.00    +0.000 C 
BRANCH  18  20
ATOM     19  C   UNL     1       3.457   3.057  10.738  0.00  0.00    +0.000 C 
ATOM     20  C   UNL     1       4.441   3.724  11.687  0.00  0.00    +0.000 C 
ENDBRANCH  18  20
ENDBRANCH  16  18
ENDBRANCH  15  16
ENDBRANCH  12  15
ENDBRANCH   1  12
TORSDOF 7
ENDMDL
MODEL 9
REMARK VINA RESULT:      -6.6      2.113      3.396
REMARK  Name = 
REMARK  9 active torsions:
REMARK  status: ('A' for Active; 'I' for Inactive)
REMARK    1  A    between atoms: C_1  and  C_2
REMARK    2  A    between atoms: C_2  and  C_3
REMARK    3  A    between atoms: C_3  and  N_4
REMARK    4  A    between atoms: N_4  and  C_5
REMARK    5  A    between atoms: C_5  and  C_6
REMARK    6  A    between atoms: C_6  and  O_7
REMARK    7  A    between atoms: C_6  and  C_8
REMARK    8  A    between atoms: C_16  and  C_17
REMARK    9  A    between atoms: C_17  and  C_18
REMARK                            x       y       z     vdW  Elec       q    Type
REMARK                         _______ _______ _______ _____ _____    ______ ____
ROOT
ATOM      1  C   UNL     1       5.471   4.399  18.561  0.00  0.00    +0.000 A 
ATOM      2  O   UNL     1       5.052   3.181  19.015  0.00  0.00    +0.000 OA
ATOM      3  C   UNL     1       3.709   3.118  18.816  0.00  0.00    +0.000 A 
ATOM      4  C   UNL     1       2.891   2.043  19.162  0.00  0.00    +0.000 A 
ATOM      5  C   UNL     1       1.526   2.175  18.883  0.00  0.00    +0.000 A 
ATOM      6  C   UNL     1       1.025   3.335  18.288  0.00  0.00    +0.000 A 
ATOM      7  C   UNL     1       1.874   4.399  17.947  0.00  0.00    +0.000 A 
ATOM      8  C   UNL     1       3.252   4.289  18.221  0.00  0.00    +0.000 A 
ATOM      9  C   UNL     1       4.405   5.119  18.044  0.00  0.00    +0.000 A 
ENDROOT
BRANCH   9  10
ATOM     10  C   UNL     1       4.474   6.483  17.439  0.00  0.00    +0.000 C 
ATOM     11  C   UNL     1       3.309   7.372  17.844  0.00  0.00    +0.000 C 
ENDBRANCH   9  10
BRANCH   1  12
ATOM     12  C   UNL     1       6.914   4.726  18.746  0.00  0.00    +0.000 C 
BRANCH  12  13
ATOM     13  O   UNL     1       7.031   5.548  19.912  0.00  0.00    +0.000 OA
ATOM     14  H   UNL     1       7.614   6.289  19.662  0.00  0.00    +0.000 HD
ENDBRANCH  12  13
BRANCH  12  15
ATOM     15  C   UNL     1       7.477   5.453  17.509  0.00  0.00    +0.000 C 
BRANCH  15  16
ATOM     16  N   UNL     1       7.714   4.522  16.396  0.00  0.00    +0.000 NA
ATOM     17  H   UNL     1       8.723   4.444  16.244  0.00  0.00    +0.000 HD
BRANCH  16  18
ATOM     18  C   UNL     1       7.042   4.985  15.187  0.00  0.00    +0.000 C 
BRANCH  18  20
ATOM     19  C   UNL     1       6.032   3.689  13.293  0.00  0.00    +0.000 C 
ATOM     20  C   UNL     1       5.954   3.994  14.781  0.00  0.00    +0.000 C 
ENDBRANCH  18  20
ENDBRANCH  16  18
ENDBRANCH  15  16
ENDBRANCH  12  15
ENDBRANCH   1  12
TORSDOF 7
ENDMDL
