MODEL 1
REMARK VINA RESULT:      -8.7      0.000      0.000
REMARK  Name = 
REMARK  3 active torsions:
REMARK  status: ('A' for Active; 'I' for Inactive)
REMARK    1  A    between atoms: C_1  and  C_2
REMARK    2  A    between atoms: C_12  and  C_13
REMARK    3  A    between atoms: C_13  and  C_15
REMARK                            x       y       z     vdW  Elec       q    Type
REMARK                         _______ _______ _______ _____ _____    ______ ____
ROOT
ATOM      1  C   UNL     1       8.676   9.188  18.296  0.00  0.00    +0.000 C 
ATOM      2  C   UNL     1       8.092   7.819  18.114  0.00  0.00    +0.000 A 
ATOM      3  C   UNL     1       8.145   6.870  19.149  0.00  0.00    +0.000 A 
ATOM      4  C   UNL     1       7.545   5.620  19.002  0.00  0.00    +0.000 A 
ATOM      5  C   UNL     1       6.853   5.315  17.833  0.00  0.00    +0.000 A 
ATOM      6  C   UNL     1       6.878   6.227  16.776  0.00  0.00    +0.000 A 
ATOM      7  C   UNL     1       7.467   7.481  16.908  0.00  0.00    +0.000 A 
ATOM      8  O   UNL     1       6.289   5.902  15.534  0.00  0.00    +0.000 OA
ATOM      9  C   UNL     1       5.517   4.749  15.387  0.00  0.00    +0.000 C 
ATOM     10  O   UNL     1       5.049   4.407  14.304  0.00  0.00    +0.000 OA
ATOM     11  C   UNL     1       5.247   4.005  16.661  0.00  0.00    +0.000 C 
ATOM     12  C   UNL     1       4.066   3.365  16.720  0.00  0.00    +0.000 C 
ATOM     13  N   UNL     1       6.179   4.098  17.679  0.00  0.00    +0.000 N 
ATOM     14  H   UNL     1       5.849   3.690  18.562  0.00  0.00    +0.000 HD
ENDROOT
BRANCH  12  15
ATOM     15  C   UNL     1       3.635   2.696  17.977  0.00  0.00    +0.000 C 
ATOM     16  O   UNL     1       3.864   1.506  18.172  0.00  0.00    +0.000 OA
BRANCH  15  17
ATOM     17  C   UNL     1       2.889   3.506  18.971  0.00  0.00    +0.000 A 
ATOM     18  C   UNL     1       3.536   4.596  19.580  0.00  0.00    +0.000 A 
ATOM     19  C   UNL     1       2.847   5.433  20.459  0.00  0.00    +0.000 A 
ATOM     20  C   UNL     1       1.501   5.201  20.726  0.00  0.00    +0.000 A 
ATOM     21  C   UNL     1       0.850   4.121  20.130  0.00  0.00    +0.000 A 
ATOM     22  C   UNL     1       1.536   3.270  19.256  0.00  0.00    +0.000 A 
ATOM     23 CL   UNL     1       0.648   1.922  18.634  0.00  0.00    +0.000 Cl
ENDBRANCH  15  17
ENDBRANCH  12  15
TORSDOF 2
ENDMDL
MODEL 2
REMARK VINA RESULT:      -8.4      1.199      1.610
REMARK  Name = 
REMARK  3 active torsions:
REMARK  status: ('A' for Active; 'I' for Inactive)
REMARK    1  A    between atoms: C_1  and  C_2
REMARK    2  A    between atoms: C_12  and  C_13
REMARK    3  A    between atoms: C_13  and  C_15
REMARK                            x       y       z     vdW  Elec       q    Type
REMARK                         _______ _______ _______ _____ _____    ______ ____
ROOT
ATOM      1  C   UNL     1       8.727   9.413  18.395  0.00  0.00    +0.000 C 
ATOM      2  C   UNL     1       8.197   8.026  18.185  0.00  0.00    +0.000 A 
ATOM      3  C   UNL     1       8.337   7.044  19.180  0.00  0.00    +0.000 A 
ATOM      4  C   UNL     1       7.788   5.774  19.010  0.00  0.00    +0.000 A 
ATOM      5  C   UNL     1       7.061   5.480  17.859  0.00  0.00    +0.000 A 
ATOM      6  C   UNL     1       7.000   6.430  16.838  0.00  0.00    +0.000 A 
ATOM      7  C   UNL     1       7.538   7.704  16.994  0.00  0.00    +0.000 A 
ATOM      8  O   UNL     1       6.374   6.123  15.609  0.00  0.00    +0.000 OA
ATOM      9  C   UNL     1       5.649   4.941  15.450  0.00  0.00    +0.000 C 
ATOM     10  O   UNL     1       5.151   4.619  14.374  0.00  0.00    +0.000 OA
ATOM     11  C   UNL     1       5.466   4.141  16.705  0.00  0.00    +0.000 C 
ATOM     12  C   UNL     1       4.318   3.445  16.787  0.00  0.00    +0.000 C 
ATOM     13  N   UNL     1       6.436   4.240  17.687  0.00  0.00    +0.000 N 
ATOM     14  H   UNL     1       6.162   3.785  18.566  0.00  0.00    +0.000 HD
ENDROOT
BRANCH  12  15
ATOM     15  C   UNL     1       3.972   2.711  18.034  0.00  0.00    +0.000 C 
ATOM     16  O   UNL     1       4.626   1.740  18.400  0.00  0.00    +0.000 OA
BRANCH  15  17
ATOM     17  C   UNL     1       2.787   3.171  18.800  0.00  0.00    +0.000 A 
ATOM     18  C   UNL     1       1.611   2.400  18.756  0.00  0.00    +0.000 A 
ATOM     19  C   UNL     1       0.501   2.752  19.524  0.00  0.00    +0.000 A 
ATOM     20  C   UNL     1       0.558   3.865  20.357  0.00  0.00    +0.000 A 
ATOM     21  C   UNL     1       1.717   4.638  20.406  0.00  0.00    +0.000 A 
ATOM     22  C   UNL     1       2.832   4.301  19.631  0.00  0.00    +0.000 A 
ATOM     23 CL   UNL     1       4.188   5.371  19.717  0.00  0.00    +0.000 Cl
ENDBRANCH  15  17
ENDBRANCH  12  15
TORSDOF 2
ENDMDL
MODEL 3
REMARK VINA RESULT:      -8.3      1.131      1.262
REMARK  Name = 
REMARK  3 active torsions:
REMARK  status: ('A' for Active; 'I' for Inactive)
REMARK    1  A    between atoms: C_1  and  C_2
REMARK    2  A    between atoms: C_12  and  C_13
REMARK    3  A    between atoms: C_13  and  C_15
REMARK                            x       y       z     vdW  Elec       q    Type
REMARK                         _______ _______ _______ _____ _____    ______ ____
ROOT
ATOM      1  C   UNL     1       8.642   9.095  18.415  0.00  0.00    +0.000 C 
ATOM      2  C   UNL     1       8.076   7.729  18.173  0.00  0.00    +0.000 A 
ATOM      3  C   UNL     1       8.127   6.741  19.171  0.00  0.00    +0.000 A 
ATOM      4  C   UNL     1       7.543   5.491  18.967  0.00  0.00    +0.000 A 
ATOM      5  C   UNL     1       6.869   5.225  17.778  0.00  0.00    +0.000 A 
ATOM      6  C   UNL     1       6.897   6.178  16.758  0.00  0.00    +0.000 A 
ATOM      7  C   UNL     1       7.470   7.432  16.947  0.00  0.00    +0.000 A 
ATOM      8  O   UNL     1       6.326   5.896  15.497  0.00  0.00    +0.000 OA
ATOM      9  C   UNL     1       5.569   4.741  15.295  0.00  0.00    +0.000 C 
ATOM     10  O   UNL     1       5.118   4.437  14.194  0.00  0.00    +0.000 OA
ATOM     11  C   UNL     1       5.292   3.945  16.536  0.00  0.00    +0.000 C 
ATOM     12  C   UNL     1       4.117   3.290  16.554  0.00  0.00    +0.000 C 
ATOM     13  N   UNL     1       6.210   4.008  17.569  0.00  0.00    +0.000 N 
ATOM     14  H   UNL     1       5.874   3.562  18.430  0.00  0.00    +0.000 HD
ENDROOT
BRANCH  12  15
ATOM     15  C   UNL     1       3.679   2.568  17.779  0.00  0.00    +0.000 C 
ATOM     16  O   UNL     1       3.833   1.355  17.888  0.00  0.00    +0.000 OA
BRANCH  15  17
ATOM     17  C   UNL     1       3.017   3.356  18.847  0.00  0.00    +0.000 A 
ATOM     18  C   UNL     1       2.043   4.304  18.486  0.00  0.00    +0.000 A 
ATOM     19  C   UNL     1       1.338   5.009  19.463  0.00  0.00    +0.000 A 
ATOM     20  C   UNL     1       1.587   4.764  20.810  0.00  0.00    +0.000 A 
ATOM     21  C   UNL     1       2.553   3.829  21.180  0.00  0.00    +0.000 A 
ATOM     22  C   UNL     1       3.273   3.125  20.208  0.00  0.00    +0.000 A 
ATOM     23 CL   UNL     1       4.496   2.045  20.782  0.00  0.00    +0.000 Cl
ENDBRANCH  15  17
ENDBRANCH  12  15
TORSDOF 2
ENDMDL
MODEL 4
REMARK VINA RESULT:      -8.3      2.453      5.640
REMARK  Name = 
REMARK  3 active torsions:
REMARK  status: ('A' for Active; 'I' for Inactive)
REMARK    1  A    between atoms: C_1  and  C_2
REMARK    2  A    between atoms: C_12  and  C_13
REMARK    3  A    between atoms: C_13  and  C_15
REMARK                            x       y       z     vdW  Elec       q    Type
REMARK                         _______ _______ _______ _____ _____    ______ ____
ROOT
ATOM      1  C   UNL     1       0.973   8.530  21.836  0.00  0.00    +0.000 C 
ATOM      2  C   UNL     1       1.463   7.676  20.706  0.00  0.00    +0.000 A 
ATOM      3  C   UNL     1       1.947   8.256  19.522  0.00  0.00    +0.000 A 
ATOM      4  C   UNL     1       2.462   7.463  18.497  0.00  0.00    +0.000 A 
ATOM      5  C   UNL     1       2.532   6.081  18.658  0.00  0.00    +0.000 A 
ATOM      6  C   UNL     1       1.970   5.504  19.798  0.00  0.00    +0.000 A 
ATOM      7  C   UNL     1       1.458   6.282  20.832  0.00  0.00    +0.000 A 
ATOM      8  O   UNL     1       1.917   4.100  19.939  0.00  0.00    +0.000 OA
ATOM      9  C   UNL     1       2.578   3.263  19.039  0.00  0.00    +0.000 C 
ATOM     10  O   UNL     1       2.494   2.039  19.099  0.00  0.00    +0.000 OA
ATOM     11  C   UNL     1       3.451   3.972  18.046  0.00  0.00    +0.000 C 
ATOM     12  C   UNL     1       4.547   3.298  17.654  0.00  0.00    +0.000 C 
ATOM     13  N   UNL     1       3.107   5.261  17.681  0.00  0.00    +0.000 N 
ATOM     14  H   UNL     1       3.833   5.724  17.122  0.00  0.00    +0.000 HD
ENDROOT
BRANCH  12  15
ATOM     15  C   UNL     1       5.550   3.947  16.767  0.00  0.00    +0.000 C 
ATOM     16  O   UNL     1       5.767   3.520  15.637  0.00  0.00    +0.000 OA
BRANCH  15  17
ATOM     17  C   UNL     1       6.305   5.105  17.307  0.00  0.00    +0.000 A 
ATOM     18  C   UNL     1       7.192   4.895  18.378  0.00  0.00    +0.000 A 
ATOM     19  C   UNL     1       7.981   5.939  18.864  0.00  0.00    +0.000 A 
ATOM     20  C   UNL     1       7.906   7.198  18.275  0.00  0.00    +0.000 A 
ATOM     21  C   UNL     1       7.027   7.418  17.215  0.00  0.00    +0.000 A 
ATOM     22  C   UNL     1       6.223   6.381  16.728  0.00  0.00    +0.000 A 
ATOM     23 CL   UNL     1       5.120   6.787  15.460  0.00  0.00    +0.000 Cl
ENDBRANCH  15  17
ENDBRANCH  12  15
TORSDOF 2
ENDMDL
MODEL 5
REMARK VINA RESULT:      -8.2      3.508      6.036
REMARK  Name = 
REMARK  3 active torsions:
REMARK  status: ('A' for Active; 'I' for Inactive)
REMARK    1  A    between atoms: C_1  and  C_2
REMARK    2  A    between atoms: C_12  and  C_13
REMARK    3  A    between atoms: C_13  and  C_15
REMARK                            x       y       z     vdW  Elec       q    Type
REMARK                         _______ _______ _______ _____ _____    ______ ____
ROOT
ATOM      1  C   UNL     1       0.709  11.289  20.104  0.00  0.00    +0.000 C 
ATOM      2  C   UNL     1       1.132   9.939  19.608  0.00  0.00    +0.000 A 
ATOM      3  C   UNL     1       1.561   9.762  18.282  0.00  0.00    +0.000 A 
ATOM      4  C   UNL     1       2.015   8.520  17.840  0.00  0.00    +0.000 A 
ATOM      5  C   UNL     1       2.081   7.448  18.727  0.00  0.00    +0.000 A 
ATOM      6  C   UNL     1       1.573   7.608  20.017  0.00  0.00    +0.000 A 
ATOM      7  C   UNL     1       1.121   8.842  20.476  0.00  0.00    +0.000 A 
ATOM      8  O   UNL     1       1.513   6.511  20.906  0.00  0.00    +0.000 OA
ATOM      9  C   UNL     1       2.120   5.296  20.586  0.00  0.00    +0.000 C 
ATOM     10  O   UNL     1       2.028   4.307  21.309  0.00  0.00    +0.000 OA
ATOM     11  C   UNL     1       2.948   5.316  19.336  0.00  0.00    +0.000 C 
ATOM     12  C   UNL     1       4.016   4.499  19.335  0.00  0.00    +0.000 C 
ATOM     13  N   UNL     1       2.598   6.208  18.337  0.00  0.00    +0.000 N 
ATOM     14  H   UNL     1       3.299   6.264  17.589  0.00  0.00    +0.000 HD
ENDROOT
BRANCH  12  15
ATOM     15  C   UNL     1       4.979   4.522  18.200  0.00  0.00    +0.000 C 
ATOM     16  O   UNL     1       4.918   3.689  17.301  0.00  0.00    +0.000 OA
BRANCH  15  17
ATOM     17  C   UNL     1       6.036   5.563  18.211  0.00  0.00    +0.000 A 
ATOM     18  C   UNL     1       7.033   5.506  19.202  0.00  0.00    +0.000 A 
ATOM     19  C   UNL     1       8.090   6.416  19.201  0.00  0.00    +0.000 A 
ATOM     20  C   UNL     1       8.174   7.382  18.202  0.00  0.00    +0.000 A 
ATOM     21  C   UNL     1       7.190   7.450  17.217  0.00  0.00    +0.000 A 
ATOM     22  C   UNL     1       6.119   6.549  17.216  0.00  0.00    +0.000 A 
ATOM     23 CL   UNL     1       4.920   6.773  15.989  0.00  0.00    +0.000 Cl
ENDBRANCH  15  17
ENDBRANCH  12  15
TORSDOF 2
ENDMDL
MODEL 6
REMARK VINA RESULT:      -7.9      3.133      6.831
REMARK  Name = 
REMARK  3 active torsions:
REMARK  status: ('A' for Active; 'I' for Inactive)
REMARK    1  A    between atoms: C_1  and  C_2
REMARK    2  A    between atoms: C_12  and  C_13
REMARK    3  A    between atoms: C_13  and  C_15
REMARK                            x       y       z     vdW  Elec       q    Type
REMARK                         _______ _______ _______ _____ _____    ______ ____
ROOT
ATOM      1  C   UNL     1       1.157   3.001  21.028  0.00  0.00    +0.000 C 
ATOM      2  C   UNL     1       2.138   3.104  19.900  0.00  0.00    +0.000 A 
ATOM      3  C   UNL     1       1.742   2.856  18.575  0.00  0.00    +0.000 A 
ATOM      4  C   UNL     1       2.639   3.015  17.520  0.00  0.00    +0.000 A 
ATOM      5  C   UNL     1       3.935   3.459  17.772  0.00  0.00    +0.000 A 
ATOM      6  C   UNL     1       4.348   3.620  19.096  0.00  0.00    +0.000 A 
ATOM      7  C   UNL     1       3.464   3.471  20.160  0.00  0.00    +0.000 A 
ATOM      8  O   UNL     1       5.688   3.955  19.393  0.00  0.00    +0.000 OA
ATOM      9  C   UNL     1       6.581   4.307  18.380  0.00  0.00    +0.000 C 
ATOM     10  O   UNL     1       7.767   4.537  18.602  0.00  0.00    +0.000 OA
ATOM     11  C   UNL     1       5.965   4.451  17.020  0.00  0.00    +0.000 C 
ATOM     12  C   UNL     1       6.534   5.371  16.221  0.00  0.00    +0.000 C 
ATOM     13  N   UNL     1       4.840   3.699  16.732  0.00  0.00    +0.000 N 
ATOM     14  H   UNL     1       4.396   3.968  15.846  0.00  0.00    +0.000 HD
ENDROOT
BRANCH  12  15
ATOM     15  C   UNL     1       5.934   5.689  14.897  0.00  0.00    +0.000 C 
ATOM     16  O   UNL     1       5.237   6.686  14.740  0.00  0.00    +0.000 OA
BRANCH  15  17
ATOM     17  C   UNL     1       6.178   4.740  13.782  0.00  0.00    +0.000 A 
ATOM     18  C   UNL     1       5.195   3.780  13.483  0.00  0.00    +0.000 A 
ATOM     19  C   UNL     1       5.347   2.922  12.393  0.00  0.00    +0.000 A 
ATOM     20  C   UNL     1       6.472   3.024  11.580  0.00  0.00    +0.000 A 
ATOM     21  C   UNL     1       7.454   3.971  11.869  0.00  0.00    +0.000 A 
ATOM     22  C   UNL     1       7.317   4.828  12.967  0.00  0.00    +0.000 A 
ATOM     23 CL   UNL     1       8.630   5.912  13.272  0.00  0.00    +0.000 Cl
ENDBRANCH  15  17
ENDBRANCH  12  15
TORSDOF 2
ENDMDL
MODEL 7
REMARK VINA RESULT:      -7.8      3.345      6.605
REMARK  Name = 
REMARK  3 active torsions:
REMARK  status: ('A' for Active; 'I' for Inactive)
REMARK    1  A    between atoms: C_1  and  C_2
REMARK    2  A    between atoms: C_12  and  C_13
REMARK    3  A    between atoms: C_13  and  C_15
REMARK                            x       y       z     vdW  Elec       q    Type
REMARK                         _______ _______ _______ _____ _____    ______ ____
ROOT
ATOM      1  C   UNL     1       1.063   2.827  20.991  0.00  0.00    +0.000 C 
ATOM      2  C   UNL     1       2.274   3.399  20.318  0.00  0.00    +0.000 A 
ATOM      3  C   UNL     1       3.489   2.693  20.301  0.00  0.00    +0.000 A 
ATOM      4  C   UNL     1       4.596   3.196  19.620  0.00  0.00    +0.000 A 
ATOM      5  C   UNL     1       4.494   4.394  18.918  0.00  0.00    +0.000 A 
ATOM      6  C   UNL     1       3.313   5.133  19.011  0.00  0.00    +0.000 A 
ATOM      7  C   UNL     1       2.197   4.643  19.681  0.00  0.00    +0.000 A 
ATOM      8  O   UNL     1       3.215   6.408  18.410  0.00  0.00    +0.000 OA
ATOM      9  C   UNL     1       4.219   6.881  17.564  0.00  0.00    +0.000 C 
ATOM     10  O   UNL     1       4.192   8.010  17.081  0.00  0.00    +0.000 OA
ATOM     11  C   UNL     1       5.288   5.881  17.235  0.00  0.00    +0.000 C 
ATOM     12  C   UNL     1       5.838   6.000  16.014  0.00  0.00    +0.000 C 
ATOM     13  N   UNL     1       5.563   4.893  18.164  0.00  0.00    +0.000 N 
ATOM     14  H   UNL     1       6.192   4.167  17.801  0.00  0.00    +0.000 HD
ENDROOT
BRANCH  12  15
ATOM     15  C   UNL     1       6.820   4.992  15.531  0.00  0.00    +0.000 C 
ATOM     16  O   UNL     1       7.761   4.637  16.234  0.00  0.00    +0.000 OA
BRANCH  15  17
ATOM     17  C   UNL     1       6.645   4.459  14.157  0.00  0.00    +0.000 A 
ATOM     18  C   UNL     1       5.563   3.598  13.897  0.00  0.00    +0.000 A 
ATOM     19  C   UNL     1       5.315   3.138  12.603  0.00  0.00    +0.000 A 
ATOM     20  C   UNL     1       6.131   3.546  11.553  0.00  0.00    +0.000 A 
ATOM     21  C   UNL     1       7.208   4.397  11.799  0.00  0.00    +0.000 A 
ATOM     22  C   UNL     1       7.473   4.854  13.096  0.00  0.00    +0.000 A 
ATOM     23 CL   UNL     1       8.876   5.846  13.295  0.00  0.00    +0.000 Cl
ENDBRANCH  15  17
ENDBRANCH  12  15
TORSDOF 2
ENDMDL
MODEL 8
REMARK VINA RESULT:      -7.7      3.752      5.502
REMARK  Name = 
REMARK  3 active torsions:
REMARK  status: ('A' for Active; 'I' for Inactive)
REMARK    1  A    between atoms: C_1  and  C_2
REMARK    2  A    between atoms: C_12  and  C_13
REMARK    3  A    between atoms: C_13  and  C_15
REMARK                            x       y       z     vdW  Elec       q    Type
REMARK                         _______ _______ _______ _____ _____    ______ ____
ROOT
ATOM      1  C   UNL     1       5.882   3.764  13.949  0.00  0.00    +0.000 C 
ATOM      2  C   UNL     1       5.479   4.572  15.147  0.00  0.00    +0.000 A 
ATOM      3  C   UNL     1       5.637   5.967  15.159  0.00  0.00    +0.000 A 
ATOM      4  C   UNL     1       5.203   6.724  16.247  0.00  0.00    +0.000 A 
ATOM      5  C   UNL     1       4.574   6.099  17.321  0.00  0.00    +0.000 A 
ATOM      6  C   UNL     1       4.499   4.705  17.342  0.00  0.00    +0.000 A 
ATOM      7  C   UNL     1       4.922   3.936  16.262  0.00  0.00    +0.000 A 
ATOM      8  O   UNL     1       3.976   4.032  18.468  0.00  0.00    +0.000 OA
ATOM      9  C   UNL     1       3.359   4.737  19.502  0.00  0.00    +0.000 C 
ATOM     10  O   UNL     1       2.956   4.184  20.522  0.00  0.00    +0.000 OA
ATOM     11  C   UNL     1       3.166   6.201  19.238  0.00  0.00    +0.000 C 
ATOM     12  C   UNL     1       2.075   6.752  19.799  0.00  0.00    +0.000 C 
ATOM     13  N   UNL     1       4.062   6.834  18.396  0.00  0.00    +0.000 N 
ATOM     14  H   UNL     1       3.773   7.788  18.149  0.00  0.00    +0.000 HD
ENDROOT
BRANCH  12  15
ATOM     15  C   UNL     1       1.714   8.165  19.508  0.00  0.00    +0.000 C 
ATOM     16  O   UNL     1       2.081   8.713  18.474  0.00  0.00    +0.000 OA
BRANCH  15  17
ATOM     17  C   UNL     1       0.925   8.901  20.527  0.00  0.00    +0.000 A 
ATOM     18  C   UNL     1       1.188   8.664  21.889  0.00  0.00    +0.000 A 
ATOM     19  C   UNL     1       0.527   9.392  22.879  0.00  0.00    +0.000 A 
ATOM     20  C   UNL     1      -0.389  10.377  22.521  0.00  0.00    +0.000 A 
ATOM     21  C   UNL     1      -0.659  10.619  21.174  0.00  0.00    +0.000 A 
ATOM     22  C   UNL     1      -0.010   9.886  20.174  0.00  0.00    +0.000 A 
ATOM     23 CL   UNL     1      -0.477  10.221  18.543  0.00  0.00    +0.000 Cl
ENDBRANCH  15  17
ENDBRANCH  12  15
TORSDOF 2
ENDMDL
MODEL 9
REMARK VINA RESULT:      -7.7      2.547      3.830
REMARK  Name = 
REMARK  3 active torsions:
REMARK  status: ('A' for Active; 'I' for Inactive)
REMARK    1  A    between atoms: C_1  and  C_2
REMARK    2  A    between atoms: C_12  and  C_13
REMARK    3  A    between atoms: C_13  and  C_15
REMARK                            x       y       z     vdW  Elec       q    Type
REMARK                         _______ _______ _______ _____ _____    ______ ____
ROOT
ATOM      1  C   UNL     1       0.766   9.669  17.813  0.00  0.00    +0.000 C 
ATOM      2  C   UNL     1       1.699   8.633  18.363  0.00  0.00    +0.000 A 
ATOM      3  C   UNL     1       1.482   8.069  19.631  0.00  0.00    +0.000 A 
ATOM      4  C   UNL     1       2.314   7.059  20.113  0.00  0.00    +0.000 A 
ATOM      5  C   UNL     1       3.351   6.575  19.320  0.00  0.00    +0.000 A 
ATOM      6  C   UNL     1       3.614   7.198  18.099  0.00  0.00    +0.000 A 
ATOM      7  C   UNL     1       2.791   8.203  17.600  0.00  0.00    +0.000 A 
ATOM      8  O   UNL     1       4.729   6.812  17.323  0.00  0.00    +0.000 OA
ATOM      9  C   UNL     1       5.485   5.689  17.662  0.00  0.00    +0.000 C 
ATOM     10  O   UNL     1       6.498   5.369  17.045  0.00  0.00    +0.000 OA
ATOM     11  C   UNL     1       4.925   4.870  18.787  0.00  0.00    +0.000 C 
ATOM     12  C   UNL     1       5.165   3.548  18.717  0.00  0.00    +0.000 C 
ATOM     13  N   UNL     1       4.160   5.513  19.743  0.00  0.00    +0.000 N 
ATOM     14  H   UNL     1       3.692   4.863  20.385  0.00  0.00    +0.000 HD
ENDROOT
BRANCH  12  15
ATOM     15  C   UNL     1       4.557   2.621  19.709  0.00  0.00    +0.000 C 
ATOM     16  O   UNL     1       5.246   1.818  20.331  0.00  0.00    +0.000 OA
BRANCH  15  17
ATOM     17  C   UNL     1       3.086   2.674  19.894  0.00  0.00    +0.000 A 
ATOM     18  C   UNL     1       2.572   2.892  21.185  0.00  0.00    +0.000 A 
ATOM     19  C   UNL     1       1.198   3.029  21.390  0.00  0.00    +0.000 A 
ATOM     20  C   UNL     1       0.325   2.968  20.309  0.00  0.00    +0.000 A 
ATOM     21  C   UNL     1       0.823   2.749  19.025  0.00  0.00    +0.000 A 
ATOM     22  C   UNL     1       2.198   2.598  18.809  0.00  0.00    +0.000 A 
ATOM     23 CL   UNL     1       2.694   2.259  17.188  0.00  0.00    +0.000 Cl
ENDBRANCH  15  17
ENDBRANCH  12  15
TORSDOF 2
ENDMDL
