MODEL 1
REMARK VINA RESULT:      -8.5      0.000      0.000
REMARK  Name = 
REMARK  11 active torsions:
REMARK  status: ('A' for Active; 'I' for Inactive)
REMARK    1  A    between atoms: C_1  and  O_2
REMARK    2  A    between atoms: O_2  and  C_3
REMARK    3  A    between atoms: C_3  and  C_5
REMARK    4  A    between atoms: C_10  and  N_11
REMARK    5  A    between atoms: C_12  and  C_14
REMARK    6  A    between atoms: C_14  and  S_15
REMARK    7  A    between atoms: S_15  and  C_16
REMARK    8  A    between atoms: C_25  and  C_26
REMARK    9  A    between atoms: C_26  and  C_27
REMARK   10  A    between atoms: C_32  and  O_33
REMARK   11  A    between atoms: O_33  and  C_34
REMARK                            x       y       z     vdW  Elec       q    Type
REMARK                         _______ _______ _______ _____ _____    ______ ____
ROOT
ATOM      1  C   UNL     1       9.684  11.294  18.770  0.00  0.00    +0.000 A 
ATOM      2  N   UNL     1       8.861  12.235  18.280  0.00  0.00    +0.000 NA
ATOM      3  C   UNL     1       9.473  13.410  17.967  0.00  0.00    +0.000 A 
ATOM      4  C   UNL     1       8.915  14.668  18.162  0.00  0.00    +0.000 A 
ATOM      5  C   UNL     1       9.609  15.823  17.790  0.00  0.00    +0.000 A 
ATOM      6  C   UNL     1      10.756  15.697  17.018  0.00  0.00    +0.000 A 
ATOM      7  C   UNL     1      11.367  14.453  16.952  0.00  0.00    +0.000 A 
ATOM      8  C   UNL     1      10.842  13.428  17.728  0.00  0.00    +0.000 A 
ATOM      9  N   UNL     1      11.599  12.598  18.480  0.00  0.00    +0.000 NA
ATOM     10  C   UNL     1      10.904  11.735  19.263  0.00  0.00    +0.000 A 
ENDROOT
BRANCH   1  11
ATOM     11  S   UNL     1       9.158   9.638  19.143  0.00  0.00    +0.000 S 
BRANCH  11  12
ATOM     12  C   UNL     1       8.162   9.232  17.689  0.00  0.00    +0.000 C 
BRANCH  12  14
ATOM     13  N   UNL     1       6.369   7.641  17.143  0.00  0.00    +0.000 N 
ATOM     14  C   UNL     1       7.532   7.859  17.866  0.00  0.00    +0.000 C 
ATOM     15  O   UNL     1       8.058   7.047  18.639  0.00  0.00    +0.000 OA
ATOM     16  H   UNL     1       6.204   8.296  16.382  0.00  0.00    +0.000 HD
BRANCH  13  22
ATOM     17  C   UNL     1       5.981   5.217  16.789  0.00  0.00    +0.000 A 
ATOM     18  C   UNL     1       5.099   4.114  16.847  0.00  0.00    +0.000 A 
ATOM     19  C   UNL     1       3.782   4.263  17.272  0.00  0.00    +0.000 A 
ATOM     20  C   UNL     1       3.327   5.519  17.647  0.00  0.00    +0.000 A 
ATOM     21  C   UNL     1       4.185   6.617  17.594  0.00  0.00    +0.000 A 
ATOM     22  C   UNL     1       5.527   6.496  17.181  0.00  0.00    +0.000 A 
BRANCH  17  23
ATOM     23  C   UNL     1       7.366   4.879  16.329  0.00  0.00    +0.000 C 
ATOM     24  O   UNL     1       8.119   4.148  16.959  0.00  0.00    +0.000 OA
BRANCH  23  26
ATOM     25  C   UNL     1       6.990   4.903  14.028  0.00  0.00    +0.000 C 
ATOM     26  O   UNL     1       7.681   5.470  15.146  0.00  0.00    +0.000 OA
ENDBRANCH  23  26
ENDBRANCH  17  23
ENDBRANCH  13  22
ENDBRANCH  12  14
ENDBRANCH  11  12
ENDBRANCH   1  11
BRANCH  10  27
ATOM     27  C   UNL     1      10.698  11.984  20.801  0.00  0.00    +0.000 C 
BRANCH  27  28
ATOM     28  C   UNL     1       9.488  12.539  21.530  0.00  0.00    +0.000 A 
ATOM     29  C   UNL     1       8.539  11.748  22.185  0.00  0.00    +0.000 A 
ATOM     30  C   UNL     1       7.554  12.346  22.986  0.00  0.00    +0.000 A 
ATOM     31  C   UNL     1       7.514  13.740  23.145  0.00  0.00    +0.000 A 
ATOM     32  C   UNL     1       8.451  14.534  22.523  0.00  0.00    +0.000 A 
ATOM     33  C   UNL     1       9.446  13.951  21.735  0.00  0.00    +0.000 A 
BRANCH  33  34
ATOM     34  O   UNL     1      10.488  14.671  21.189  0.00  0.00    +0.000 OA
ATOM     35  C   UNL     1      10.816  15.914  21.799  0.00  0.00    +0.000 C 
ENDBRANCH  33  34
ENDBRANCH  27  28
ENDBRANCH  10  27
TORSDOF 9
ENDMDL
MODEL 2
REMARK VINA RESULT:      -8.4      0.996      1.746
REMARK  Name = 
REMARK  11 active torsions:
REMARK  status: ('A' for Active; 'I' for Inactive)
REMARK    1  A    between atoms: C_1  and  O_2
REMARK    2  A    between atoms: O_2  and  C_3
REMARK    3  A    between atoms: C_3  and  C_5
REMARK    4  A    between atoms: C_10  and  N_11
REMARK    5  A    between atoms: C_12  and  C_14
REMARK    6  A    between atoms: C_14  and  S_15
REMARK    7  A    between atoms: S_15  and  C_16
REMARK    8  A    between atoms: C_25  and  C_26
REMARK    9  A    between atoms: C_26  and  C_27
REMARK   10  A    between atoms: C_32  and  O_33
REMARK   11  A    between atoms: O_33  and  C_34
REMARK                            x       y       z     vdW  Elec       q    Type
REMARK                         _______ _______ _______ _____ _____    ______ ____
ROOT
ATOM      1  C   UNL     1       9.559  11.030  18.635  0.00  0.00    +0.000 A 
ATOM      2  N   UNL     1       8.761  11.973  18.108  0.00  0.00    +0.000 NA
ATOM      3  C   UNL     1       9.396  13.136  17.796  0.00  0.00    +0.000 A 
ATOM      4  C   UNL     1       8.850  14.403  17.958  0.00  0.00    +0.000 A 
ATOM      5  C   UNL     1       9.567  15.545  17.588  0.00  0.00    +0.000 A 
ATOM      6  C   UNL     1      10.734  15.393  16.850  0.00  0.00    +0.000 A 
ATOM      7  C   UNL     1      11.331  14.141  16.818  0.00  0.00    +0.000 A 
ATOM      8  C   UNL     1      10.771  13.133  17.594  0.00  0.00    +0.000 A 
ATOM      9  N   UNL     1      11.497  12.306  18.379  0.00  0.00    +0.000 NA
ATOM     10  C   UNL     1      10.770  11.463  19.155  0.00  0.00    +0.000 A 
ENDROOT
BRANCH   1  11
ATOM     11  S   UNL     1       9.001   9.386  19.017  0.00  0.00    +0.000 S 
BRANCH  11  12
ATOM     12  C   UNL     1       8.068   8.958  17.528  0.00  0.00    +0.000 C 
BRANCH  12  14
ATOM     13  N   UNL     1       6.269   7.378  16.968  0.00  0.00    +0.000 N 
ATOM     14  C   UNL     1       7.428   7.589  17.700  0.00  0.00    +0.000 C 
ATOM     15  O   UNL     1       7.943   6.773  18.476  0.00  0.00    +0.000 OA
ATOM     16  H   UNL     1       6.113   8.036  16.207  0.00  0.00    +0.000 HD
BRANCH  13  22
ATOM     17  C   UNL     1       5.637   5.118  16.169  0.00  0.00    +0.000 A 
ATOM     18  C   UNL     1       4.759   4.012  16.242  0.00  0.00    +0.000 A 
ATOM     19  C   UNL     1       3.671   4.010  17.110  0.00  0.00    +0.000 A 
ATOM     20  C   UNL     1       3.445   5.114  17.919  0.00  0.00    +0.000 A 
ATOM     21  C   UNL     1       4.302   6.212  17.858  0.00  0.00    +0.000 A 
ATOM     22  C   UNL     1       5.419   6.239  17.000  0.00  0.00    +0.000 A 
BRANCH  17  23
ATOM     23  C   UNL     1       6.766   4.949  15.198  0.00  0.00    +0.000 C 
ATOM     24  O   UNL     1       7.677   5.757  15.088  0.00  0.00    +0.000 OA
BRANCH  23  26
ATOM     25  C   UNL     1       5.806   3.945  13.325  0.00  0.00    +0.000 C 
ATOM     26  O   UNL     1       6.658   3.808  14.467  0.00  0.00    +0.000 OA
ENDBRANCH  23  26
ENDBRANCH  17  23
ENDBRANCH  13  22
ENDBRANCH  12  14
ENDBRANCH  11  12
ENDBRANCH   1  11
BRANCH  10  27
ATOM     27  C   UNL     1      10.525  11.737  20.683  0.00  0.00    +0.000 C 
BRANCH  27  28
ATOM     28  C   UNL     1      10.135  13.030  21.376  0.00  0.00    +0.000 A 
ATOM     29  C   UNL     1      10.694  14.277  21.078  0.00  0.00    +0.000 A 
ATOM     30  C   UNL     1      10.150  15.444  21.633  0.00  0.00    +0.000 A 
ATOM     31  C   UNL     1       9.037  15.377  22.485  0.00  0.00    +0.000 A 
ATOM     32  C   UNL     1       8.461  14.161  22.776  0.00  0.00    +0.000 A 
ATOM     33  C   UNL     1       8.983  12.992  22.217  0.00  0.00    +0.000 A 
BRANCH  33  34
ATOM     34  O   UNL     1       8.382  11.759  22.361  0.00  0.00    +0.000 OA
ATOM     35  C   UNL     1       7.246  11.680  23.215  0.00  0.00    +0.000 C 
ENDBRANCH  33  34
ENDBRANCH  27  28
ENDBRANCH  10  27
TORSDOF 9
ENDMDL
MODEL 3
REMARK VINA RESULT:      -8.2      6.684     11.026
REMARK  Name = 
REMARK  11 active torsions:
REMARK  status: ('A' for Active; 'I' for Inactive)
REMARK    1  A    between atoms: C_1  and  O_2
REMARK    2  A    between atoms: O_2  and  C_3
REMARK    3  A    between atoms: C_3  and  C_5
REMARK    4  A    between atoms: C_10  and  N_11
REMARK    5  A    between atoms: C_12  and  C_14
REMARK    6  A    between atoms: C_14  and  S_15
REMARK    7  A    between atoms: S_15  and  C_16
REMARK    8  A    between atoms: C_25  and  C_26
REMARK    9  A    between atoms: C_26  and  C_27
REMARK   10  A    between atoms: C_32  and  O_33
REMARK   11  A    between atoms: O_33  and  C_34
REMARK                            x       y       z     vdW  Elec       q    Type
REMARK                         _______ _______ _______ _____ _____    ______ ____
ROOT
ATOM      1  C   UNL     1       2.546   6.802  18.322  0.00  0.00    +0.000 A 
ATOM      2  N   UNL     1       1.815   5.756  17.901  0.00  0.00    +0.000 NA
ATOM      3  C   UNL     1       2.330   4.540  18.232  0.00  0.00    +0.000 A 
ATOM      4  C   UNL     1       2.292   3.418  17.414  0.00  0.00    +0.000 A 
ATOM      5  C   UNL     1       2.827   2.200  17.846  0.00  0.00    +0.000 A 
ATOM      6  C   UNL     1       3.192   2.063  19.178  0.00  0.00    +0.000 A 
ATOM      7  C   UNL     1       3.355   3.215  19.934  0.00  0.00    +0.000 A 
ATOM      8  C   UNL     1       3.223   4.440  19.292  0.00  0.00    +0.000 A 
ATOM      9  N   UNL     1       4.089   5.465  19.455  0.00  0.00    +0.000 NA
ATOM     10  C   UNL     1       3.867   6.539  18.656  0.00  0.00    +0.000 A 
ENDROOT
BRANCH   1  11
ATOM     11  S   UNL     1       2.032   8.492  18.124  0.00  0.00    +0.000 S 
BRANCH  11  12
ATOM     12  C   UNL     1       1.356   8.865  19.759  0.00  0.00    +0.000 C 
BRANCH  12  14
ATOM     13  N   UNL     1       0.829  11.192  20.354  0.00  0.00    +0.000 N 
ATOM     14  C   UNL     1       0.419  10.059  19.667  0.00  0.00    +0.000 C 
ATOM     15  O   UNL     1      -0.636   9.952  19.027  0.00  0.00    +0.000 OA
ATOM     16  H   UNL     1       1.812  11.205  20.618  0.00  0.00    +0.000 HD
BRANCH  13  22
ATOM     17  C   UNL     1      -0.783  12.620  21.584  0.00  0.00    +0.000 A 
ATOM     18  C   UNL     1      -1.462  13.855  21.694  0.00  0.00    +0.000 A 
ATOM     19  C   UNL     1      -1.272  14.870  20.762  0.00  0.00    +0.000 A 
ATOM     20  C   UNL     1      -0.398  14.667  19.704  0.00  0.00    +0.000 A 
ATOM     21  C   UNL     1       0.279  13.455  19.581  0.00  0.00    +0.000 A 
ATOM     22  C   UNL     1       0.119  12.413  20.515  0.00  0.00    +0.000 A 
BRANCH  17  23
ATOM     23  C   UNL     1      -1.086  11.645  22.680  0.00  0.00    +0.000 C 
ATOM     24  O   UNL     1      -2.186  11.558  23.208  0.00  0.00    +0.000 OA
BRANCH  23  26
ATOM     25  C   UNL     1      -0.344   9.511  23.255  0.00  0.00    +0.000 C 
ATOM     26  O   UNL     1      -0.012  10.882  23.011  0.00  0.00    +0.000 OA
ENDBRANCH  23  26
ENDBRANCH  17  23
ENDBRANCH  13  22
ENDBRANCH  12  14
ENDBRANCH  11  12
ENDBRANCH   1  11
BRANCH  10  27
ATOM     27  C   UNL     1       4.714   6.805  17.359  0.00  0.00    +0.000 C 
BRANCH  27  28
ATOM     28  C   UNL     1       5.422   5.812  16.455  0.00  0.00    +0.000 A 
ATOM     29  C   UNL     1       4.816   5.174  15.368  0.00  0.00    +0.000 A 
ATOM     30  C   UNL     1       5.587   4.413  14.477  0.00  0.00    +0.000 A 
ATOM     31  C   UNL     1       6.973   4.289  14.660  0.00  0.00    +0.000 A 
ATOM     32  C   UNL     1       7.591   4.924  15.714  0.00  0.00    +0.000 A 
ATOM     33  C   UNL     1       6.837   5.698  16.600  0.00  0.00    +0.000 A 
BRANCH  33  34
ATOM     34  O   UNL     1       7.405   6.463  17.598  0.00  0.00    +0.000 OA
ATOM     35  C   UNL     1       7.790   5.795  18.794  0.00  0.00    +0.000 C 
ENDBRANCH  33  34
ENDBRANCH  27  28
ENDBRANCH  10  27
TORSDOF 9
ENDMDL
MODEL 4
REMARK VINA RESULT:      -8.2      5.878     10.838
REMARK  Name = 
REMARK  11 active torsions:
REMARK  status: ('A' for Active; 'I' for Inactive)
REMARK    1  A    between atoms: C_1  and  O_2
REMARK    2  A    between atoms: O_2  and  C_3
REMARK    3  A    between atoms: C_3  and  C_5
REMARK    4  A    between atoms: C_10  and  N_11
REMARK    5  A    between atoms: C_12  and  C_14
REMARK    6  A    between atoms: C_14  and  S_15
REMARK    7  A    between atoms: S_15  and  C_16
REMARK    8  A    between atoms: C_25  and  C_26
REMARK    9  A    between atoms: C_26  and  C_27
REMARK   10  A    between atoms: C_32  and  O_33
REMARK   11  A    between atoms: O_33  and  C_34
REMARK                            x       y       z     vdW  Elec       q    Type
REMARK                         _______ _______ _______ _____ _____    ______ ____
ROOT
ATOM      1  C   UNL     1       2.548   6.232  19.113  0.00  0.00    +0.000 A 
ATOM      2  N   UNL     1       1.790   5.240  18.618  0.00  0.00    +0.000 NA
ATOM      3  C   UNL     1       2.384   4.015  18.636  0.00  0.00    +0.000 A 
ATOM      4  C   UNL     1       2.250   3.057  17.639  0.00  0.00    +0.000 A 
ATOM      5  C   UNL     1       2.879   1.814  17.752  0.00  0.00    +0.000 A 
ATOM      6  C   UNL     1       3.451   1.461  18.967  0.00  0.00    +0.000 A 
ATOM      7  C   UNL     1       3.697   2.465  19.892  0.00  0.00    +0.000 A 
ATOM      8  C   UNL     1       3.433   3.776  19.515  0.00  0.00    +0.000 A 
ATOM      9  N   UNL     1       4.285   4.802  19.736  0.00  0.00    +0.000 NA
ATOM     10  C   UNL     1       3.912   5.988  19.193  0.00  0.00    +0.000 A 
ENDROOT
BRANCH   1  11
ATOM     11  S   UNL     1       1.963   7.899  19.311  0.00  0.00    +0.000 S 
BRANCH  11  12
ATOM     12  C   UNL     1       1.614   7.958  21.084  0.00  0.00    +0.000 C 
BRANCH  12  14
ATOM     13  N   UNL     1       0.344  10.058  21.248  0.00  0.00    +0.000 N 
ATOM     14  C   UNL     1       0.293   8.674  21.323  0.00  0.00    +0.000 C 
ATOM     15  O   UNL     1      -0.717   8.008  21.589  0.00  0.00    +0.000 OA
ATOM     16  H   UNL     1       1.170  10.435  20.789  0.00  0.00    +0.000 HD
BRANCH  13  22
ATOM     17  C   UNL     1      -1.342  11.706  20.480  0.00  0.00    +0.000 A 
ATOM     18  C   UNL     1      -2.380  12.610  20.801  0.00  0.00    +0.000 A 
ATOM     19  C   UNL     1      -2.782  12.812  22.118  0.00  0.00    +0.000 A 
ATOM     20  C   UNL     1      -2.151  12.111  23.136  0.00  0.00    +0.000 A 
ATOM     21  C   UNL     1      -1.125  11.216  22.836  0.00  0.00    +0.000 A 
ATOM     22  C   UNL     1      -0.705  10.980  21.512  0.00  0.00    +0.000 A 
BRANCH  17  23
ATOM     23  C   UNL     1      -1.048  11.594  19.015  0.00  0.00    +0.000 C 
ATOM     24  O   UNL     1       0.088  11.599  18.561  0.00  0.00    +0.000 OA
BRANCH  23  26
ATOM     25  C   UNL     1      -2.458  10.146  17.853  0.00  0.00    +0.000 C 
ATOM     26  O   UNL     1      -2.176  11.488  18.265  0.00  0.00    +0.000 OA
ENDBRANCH  23  26
ENDBRANCH  17  23
ENDBRANCH  13  22
ENDBRANCH  12  14
ENDBRANCH  11  12
ENDBRANCH   1  11
BRANCH  10  27
ATOM     27  C   UNL     1       4.540   6.529  17.858  0.00  0.00    +0.000 C 
BRANCH  27  28
ATOM     28  C   UNL     1       5.334   5.784  16.800  0.00  0.00    +0.000 A 
ATOM     29  C   UNL     1       4.759   5.147  15.696  0.00  0.00    +0.000 A 
ATOM     30  C   UNL     1       5.573   4.640  14.672  0.00  0.00    +0.000 A 
ATOM     31  C   UNL     1       6.969   4.772  14.739  0.00  0.00    +0.000 A 
ATOM     32  C   UNL     1       7.552   5.412  15.810  0.00  0.00    +0.000 A 
ATOM     33  C   UNL     1       6.753   5.935  16.828  0.00  0.00    +0.000 A 
BRANCH  33  34
ATOM     34  O   UNL     1       7.257   6.697  17.862  0.00  0.00    +0.000 OA
ATOM     35  C   UNL     1       7.780   7.980  17.534  0.00  0.00    +0.000 C 
ENDBRANCH  33  34
ENDBRANCH  27  28
ENDBRANCH  10  27
TORSDOF 9
ENDMDL
MODEL 5
REMARK VINA RESULT:      -8.2      6.212     10.730
REMARK  Name = 
REMARK  11 active torsions:
REMARK  status: ('A' for Active; 'I' for Inactive)
REMARK    1  A    between atoms: C_1  and  O_2
REMARK    2  A    between atoms: O_2  and  C_3
REMARK    3  A    between atoms: C_3  and  C_5
REMARK    4  A    between atoms: C_10  and  N_11
REMARK    5  A    between atoms: C_12  and  C_14
REMARK    6  A    between atoms: C_14  and  S_15
REMARK    7  A    between atoms: S_15  and  C_16
REMARK    8  A    between atoms: C_25  and  C_26
REMARK    9  A    between atoms: C_26  and  C_27
REMARK   10  A    between atoms: C_32  and  O_33
REMARK   11  A    between atoms: O_33  and  C_34
REMARK                            x       y       z     vdW  Elec       q    Type
REMARK                         _______ _______ _______ _____ _____    ______ ____
ROOT
ATOM      1  C   UNL     1       2.598   6.574  18.529  0.00  0.00    +0.000 A 
ATOM      2  N   UNL     1       1.876   5.530  18.089  0.00  0.00    +0.000 NA
ATOM      3  C   UNL     1       2.439   4.315  18.332  0.00  0.00    +0.000 A 
ATOM      4  C   UNL     1       2.392   3.235  17.460  0.00  0.00    +0.000 A 
ATOM      5  C   UNL     1       2.981   2.013  17.802  0.00  0.00    +0.000 A 
ATOM      6  C   UNL     1       3.413   1.820  19.107  0.00  0.00    +0.000 A 
ATOM      7  C   UNL     1       3.581   2.936  19.914  0.00  0.00    +0.000 A 
ATOM      8  C   UNL     1       3.384   4.187  19.342  0.00  0.00    +0.000 A 
ATOM      9  N   UNL     1       4.229   5.228  19.518  0.00  0.00    +0.000 NA
ATOM     10  C   UNL     1       3.940   6.334  18.787  0.00  0.00    +0.000 A 
ENDROOT
BRANCH   1  11
ATOM     11  S   UNL     1       2.029   8.256  18.444  0.00  0.00    +0.000 S 
BRANCH  11  12
ATOM     12  C   UNL     1       1.423   8.526  20.126  0.00  0.00    +0.000 C 
BRANCH  12  14
ATOM     13  N   UNL     1       1.122  10.782  19.195  0.00  0.00    +0.000 N 
ATOM     14  C   UNL     1       1.161  10.009  20.345  0.00  0.00    +0.000 C 
ATOM     15  O   UNL     1       1.027  10.435  21.500  0.00  0.00    +0.000 OA
ATOM     16  H   UNL     1       1.005  10.261  18.328  0.00  0.00    +0.000 HD
BRANCH  13  22
ATOM     17  C   UNL     1      -0.263  12.813  18.865  0.00  0.00    +0.000 A 
ATOM     18  C   UNL     1      -0.340  14.222  18.783  0.00  0.00    +0.000 A 
ATOM     19  C   UNL     1       0.794  15.016  18.921  0.00  0.00    +0.000 A 
ATOM     20  C   UNL     1       2.024  14.414  19.143  0.00  0.00    +0.000 A 
ATOM     21  C   UNL     1       2.116  13.025  19.225  0.00  0.00    +0.000 A 
ATOM     22  C   UNL     1       0.985  12.194  19.103  0.00  0.00    +0.000 A 
BRANCH  17  23
ATOM     23  C   UNL     1      -1.578  12.111  18.714  0.00  0.00    +0.000 C 
ATOM     24  O   UNL     1      -2.574  12.417  19.354  0.00  0.00    +0.000 OA
BRANCH  23  26
ATOM     25  C   UNL     1      -2.589  11.177  16.832  0.00  0.00    +0.000 C 
ATOM     26  O   UNL     1      -1.532  11.110  17.795  0.00  0.00    +0.000 OA
ENDBRANCH  23  26
ENDBRANCH  17  23
ENDBRANCH  13  22
ENDBRANCH  12  14
ENDBRANCH  11  12
ENDBRANCH   1  11
BRANCH  10  27
ATOM     27  C   UNL     1       4.716   6.690  17.468  0.00  0.00    +0.000 C 
BRANCH  27  28
ATOM     28  C   UNL     1       5.438   5.769  16.501  0.00  0.00    +0.000 A 
ATOM     29  C   UNL     1       4.831   5.162  15.398  0.00  0.00    +0.000 A 
ATOM     30  C   UNL     1       5.609   4.475  14.454  0.00  0.00    +0.000 A 
ATOM     31  C   UNL     1       7.003   4.394  14.602  0.00  0.00    +0.000 A 
ATOM     32  C   UNL     1       7.621   5.000  15.672  0.00  0.00    +0.000 A 
ATOM     33  C   UNL     1       6.860   5.702  16.611  0.00  0.00    +0.000 A 
BRANCH  33  34
ATOM     34  O   UNL     1       7.422   6.438  17.633  0.00  0.00    +0.000 OA
ATOM     35  C   UNL     1       7.813   5.735  18.807  0.00  0.00    +0.000 C 
ENDBRANCH  33  34
ENDBRANCH  27  28
ENDBRANCH  10  27
TORSDOF 9
ENDMDL
MODEL 6
REMARK VINA RESULT:      -8.1      6.346      8.676
REMARK  Name = 
REMARK  11 active torsions:
REMARK  status: ('A' for Active; 'I' for Inactive)
REMARK    1  A    between atoms: C_1  and  O_2
REMARK    2  A    between atoms: O_2  and  C_3
REMARK    3  A    between atoms: C_3  and  C_5
REMARK    4  A    between atoms: C_10  and  N_11
REMARK    5  A    between atoms: C_12  and  C_14
REMARK    6  A    between atoms: C_14  and  S_15
REMARK    7  A    between atoms: S_15  and  C_16
REMARK    8  A    between atoms: C_25  and  C_26
REMARK    9  A    between atoms: C_26  and  C_27
REMARK   10  A    between atoms: C_32  and  O_33
REMARK   11  A    between atoms: O_33  and  C_34
REMARK                            x       y       z     vdW  Elec       q    Type
REMARK                         _______ _______ _______ _____ _____    ______ ____
ROOT
ATOM      1  C   UNL     1       1.352  11.026  18.653  0.00  0.00    +0.000 A 
ATOM      2  N   UNL     1       2.344  11.765  18.131  0.00  0.00    +0.000 NA
ATOM      3  C   UNL     1       2.557  12.950  18.766  0.00  0.00    +0.000 A 
ATOM      4  C   UNL     1       2.895  14.138  18.130  0.00  0.00    +0.000 A 
ATOM      5  C   UNL     1       3.118  15.306  18.867  0.00  0.00    +0.000 A 
ATOM      6  C   UNL     1       3.221  15.217  20.248  0.00  0.00    +0.000 A 
ATOM      7  C   UNL     1       2.749  14.069  20.868  0.00  0.00    +0.000 A 
ATOM      8  C   UNL     1       2.126  13.111  20.077  0.00  0.00    +0.000 A 
ATOM      9  N   UNL     1       0.961  12.512  20.410  0.00  0.00    +0.000 NA
ATOM     10  C   UNL     1       0.442  11.693  19.461  0.00  0.00    +0.000 A 
ENDROOT
BRANCH   1  11
ATOM     11  S   UNL     1       0.953   9.390  18.083  0.00  0.00    +0.000 S 
BRANCH  11  12
ATOM     12  C   UNL     1       2.586   8.617  18.009  0.00  0.00    +0.000 C 
BRANCH  12  14
ATOM     13  N   UNL     1       2.815   6.178  17.806  0.00  0.00    +0.000 N 
ATOM     14  C   UNL     1       2.532   7.240  18.651  0.00  0.00    +0.000 C 
ATOM     15  O   UNL     1       2.223   7.141  19.847  0.00  0.00    +0.000 OA
ATOM     16  H   UNL     1       3.281   6.430  16.937  0.00  0.00    +0.000 HD
BRANCH  13  22
ATOM     17  C   UNL     1       3.914   4.025  18.361  0.00  0.00    +0.000 A 
ATOM     18  C   UNL     1       3.792   2.648  18.654  0.00  0.00    +0.000 A 
ATOM     19  C   UNL     1       2.549   2.023  18.686  0.00  0.00    +0.000 A 
ATOM     20  C   UNL     1       1.407   2.766  18.426  0.00  0.00    +0.000 A 
ATOM     21  C   UNL     1       1.510   4.125  18.134  0.00  0.00    +0.000 A 
ATOM     22  C   UNL     1       2.753   4.790  18.107  0.00  0.00    +0.000 A 
BRANCH  17  23
ATOM     23  C   UNL     1       5.319   4.542  18.386  0.00  0.00    +0.000 C 
ATOM     24  O   UNL     1       6.079   4.361  19.328  0.00  0.00    +0.000 OA
BRANCH  23  26
ATOM     25  C   UNL     1       6.270   4.408  16.262  0.00  0.00    +0.000 C 
ATOM     26  O   UNL     1       5.644   5.225  17.257  0.00  0.00    +0.000 OA
ENDBRANCH  23  26
ENDBRANCH  17  23
ENDBRANCH  13  22
ENDBRANCH  12  14
ENDBRANCH  11  12
ENDBRANCH   1  11
BRANCH  10  27
ATOM     27  C   UNL     1      -0.738  12.141  18.526  0.00  0.00    +0.000 C 
BRANCH  27  28
ATOM     28  C   UNL     1      -2.234  11.974  18.722  0.00  0.00    +0.000 A 
ATOM     29  C   UNL     1      -2.937  12.459  19.829  0.00  0.00    +0.000 A 
ATOM     30  C   UNL     1      -4.340  12.423  19.845  0.00  0.00    +0.000 A 
ATOM     31  C   UNL     1      -5.052  11.908  18.752  0.00  0.00    +0.000 A 
ATOM     32  C   UNL     1      -4.379  11.442  17.645  0.00  0.00    +0.000 A 
ATOM     33  C   UNL     1      -2.983  11.487  17.609  0.00  0.00    +0.000 A 
BRANCH  33  34
ATOM     34  O   UNL     1      -2.251  11.158  16.487  0.00  0.00    +0.000 OA
ATOM     35  C   UNL     1      -2.964  10.644  15.368  0.00  0.00    +0.000 C 
ENDBRANCH  33  34
ENDBRANCH  27  28
ENDBRANCH  10  27
TORSDOF 9
ENDMDL
MODEL 7
REMARK VINA RESULT:      -8.1      6.144     10.859
REMARK  Name = 
REMARK  11 active torsions:
REMARK  status: ('A' for Active; 'I' for Inactive)
REMARK    1  A    between atoms: C_1  and  O_2
REMARK    2  A    between atoms: O_2  and  C_3
REMARK    3  A    between atoms: C_3  and  C_5
REMARK    4  A    between atoms: C_10  and  N_11
REMARK    5  A    between atoms: C_12  and  C_14
REMARK    6  A    between atoms: C_14  and  S_15
REMARK    7  A    between atoms: S_15  and  C_16
REMARK    8  A    between atoms: C_25  and  C_26
REMARK    9  A    between atoms: C_26  and  C_27
REMARK   10  A    between atoms: C_32  and  O_33
REMARK   11  A    between atoms: O_33  and  C_34
REMARK                            x       y       z     vdW  Elec       q    Type
REMARK                         _______ _______ _______ _____ _____    ______ ____
ROOT
ATOM      1  C   UNL     1       2.712   6.566  18.450  0.00  0.00    +0.000 A 
ATOM      2  N   UNL     1       2.003   5.652  17.767  0.00  0.00    +0.000 NA
ATOM      3  C   UNL     1       1.742   4.510  18.459  0.00  0.00    +0.000 A 
ATOM      4  C   UNL     1       1.736   3.235  17.907  0.00  0.00    +0.000 A 
ATOM      5  C   UNL     1       1.434   2.117  18.691  0.00  0.00    +0.000 A 
ATOM      6  C   UNL     1       0.919   2.312  19.966  0.00  0.00    +0.000 A 
ATOM      7  C   UNL     1       1.062   3.565  20.545  0.00  0.00    +0.000 A 
ATOM      8  C   UNL     1       1.783   4.526  19.848  0.00  0.00    +0.000 A 
ATOM      9  N   UNL     1       2.726   5.309  20.418  0.00  0.00    +0.000 NA
ATOM     10  C   UNL     1       3.410   6.106  19.558  0.00  0.00    +0.000 A 
ENDROOT
BRANCH   1  11
ATOM     11  S   UNL     1       3.081   8.184  17.816  0.00  0.00    +0.000 S 
BRANCH  11  12
ATOM     12  C   UNL     1       1.428   8.891  17.623  0.00  0.00    +0.000 C 
BRANCH  12  14
ATOM     13  N   UNL     1       0.134   9.466  19.632  0.00  0.00    +0.000 N 
ATOM     14  C   UNL     1       1.145   9.853  18.766  0.00  0.00    +0.000 C 
ATOM     15  O   UNL     1       1.791  10.907  18.845  0.00  0.00    +0.000 OA
ATOM     16  H   UNL     1      -0.127   8.483  19.581  0.00  0.00    +0.000 HD
BRANCH  13  22
ATOM     17  C   UNL     1      -1.137  11.393  20.539  0.00  0.00    +0.000 A 
ATOM     18  C   UNL     1      -1.645  12.083  21.663  0.00  0.00    +0.000 A 
ATOM     19  C   UNL     1      -1.423  11.620  22.957  0.00  0.00    +0.000 A 
ATOM     20  C   UNL     1      -0.690  10.458  23.146  0.00  0.00    +0.000 A 
ATOM     21  C   UNL     1      -0.182   9.765  22.048  0.00  0.00    +0.000 A 
ATOM     22  C   UNL     1      -0.401  10.201  20.726  0.00  0.00    +0.000 A 
BRANCH  17  23
ATOM     23  C   UNL     1      -1.484  12.015  19.222  0.00  0.00    +0.000 C 
ATOM     24  O   UNL     1      -1.103  13.130  18.890  0.00  0.00    +0.000 OA
BRANCH  23  26
ATOM     25  C   UNL     1      -3.631  11.610  18.408  0.00  0.00    +0.000 C 
ATOM     26  O   UNL     1      -2.258  11.207  18.451  0.00  0.00    +0.000 OA
ENDBRANCH  23  26
ENDBRANCH  17  23
ENDBRANCH  13  22
ENDBRANCH  12  14
ENDBRANCH  11  12
ENDBRANCH   1  11
BRANCH  10  27
ATOM     27  C   UNL     1       4.855   5.746  19.055  0.00  0.00    +0.000 C 
BRANCH  27  28
ATOM     28  C   UNL     1       5.288   5.151  17.728  0.00  0.00    +0.000 A 
ATOM     29  C   UNL     1       4.864   3.906  17.252  0.00  0.00    +0.000 A 
ATOM     30  C   UNL     1       5.164   3.512  15.940  0.00  0.00    +0.000 A 
ATOM     31  C   UNL     1       5.886   4.362  15.088  0.00  0.00    +0.000 A 
ATOM     32  C   UNL     1       6.297   5.599  15.531  0.00  0.00    +0.000 A 
ATOM     33  C   UNL     1       5.991   6.011  16.831  0.00  0.00    +0.000 A 
BRANCH  33  34
ATOM     34  O   UNL     1       6.257   7.281  17.298  0.00  0.00    +0.000 OA
ATOM     35  C   UNL     1       7.617   7.609  17.561  0.00  0.00    +0.000 C 
ENDBRANCH  33  34
ENDBRANCH  27  28
ENDBRANCH  10  27
TORSDOF 9
ENDMDL
MODEL 8
REMARK VINA RESULT:      -8.0      6.396     10.885
REMARK  Name = 
REMARK  11 active torsions:
REMARK  status: ('A' for Active; 'I' for Inactive)
REMARK    1  A    between atoms: C_1  and  O_2
REMARK    2  A    between atoms: O_2  and  C_3
REMARK    3  A    between atoms: C_3  and  C_5
REMARK    4  A    between atoms: C_10  and  N_11
REMARK    5  A    between atoms: C_12  and  C_14
REMARK    6  A    between atoms: C_14  and  S_15
REMARK    7  A    between atoms: S_15  and  C_16
REMARK    8  A    between atoms: C_25  and  C_26
REMARK    9  A    between atoms: C_26  and  C_27
REMARK   10  A    between atoms: C_32  and  O_33
REMARK   11  A    between atoms: O_33  and  C_34
REMARK                            x       y       z     vdW  Elec       q    Type
REMARK                         _______ _______ _______ _____ _____    ______ ____
ROOT
ATOM      1  C   UNL     1       2.607   6.503  18.643  0.00  0.00    +0.000 A 
ATOM      2  N   UNL     1       1.875   5.472  18.191  0.00  0.00    +0.000 NA
ATOM      3  C   UNL     1       2.444   4.250  18.381  0.00  0.00    +0.000 A 
ATOM      4  C   UNL     1       2.373   3.197  17.479  0.00  0.00    +0.000 A 
ATOM      5  C   UNL     1       2.971   1.966  17.767  0.00  0.00    +0.000 A 
ATOM      6  C   UNL     1       3.438   1.733  19.054  0.00  0.00    +0.000 A 
ATOM      7  C   UNL     1       3.627   2.825  19.890  0.00  0.00    +0.000 A 
ATOM      8  C   UNL     1       3.415   4.093  19.362  0.00  0.00    +0.000 A 
ATOM      9  N   UNL     1       4.265   5.128  19.547  0.00  0.00    +0.000 NA
ATOM     10  C   UNL     1       3.956   6.256  18.858  0.00  0.00    +0.000 A 
ENDROOT
BRANCH   1  11
ATOM     11  S   UNL     1       2.037   8.186  18.625  0.00  0.00    +0.000 S 
BRANCH  11  12
ATOM     12  C   UNL     1       1.532   8.424  20.345  0.00  0.00    +0.000 C 
BRANCH  12  14
ATOM     13  N   UNL     1       0.622  10.324  21.611  0.00  0.00    +0.000 N 
ATOM     14  C   UNL     1       0.559   9.588  20.437  0.00  0.00    +0.000 C 
ATOM     15  O   UNL     1      -0.229   9.795  19.504  0.00  0.00    +0.000 OA
ATOM     16  H   UNL     1       1.467  10.188  22.162  0.00  0.00    +0.000 HD
BRANCH  13  22
ATOM     17  C   UNL     1       0.105  12.747  21.727  0.00  0.00    +0.000 A 
ATOM     18  C   UNL     1      -0.768  13.777  22.144  0.00  0.00    +0.000 A 
ATOM     19  C   UNL     1      -1.940  13.493  22.839  0.00  0.00    +0.000 A 
ATOM     20  C   UNL     1      -2.258  12.173  23.126  0.00  0.00    +0.000 A 
ATOM     21  C   UNL     1      -1.406  11.146  22.722  0.00  0.00    +0.000 A 
ATOM     22  C   UNL     1      -0.219  11.400  22.006  0.00  0.00    +0.000 A 
BRANCH  17  23
ATOM     23  C   UNL     1       1.310  13.223  20.976  0.00  0.00    +0.000 C 
ATOM     24  O   UNL     1       2.141  13.981  21.458  0.00  0.00    +0.000 OA
BRANCH  23  26
ATOM     25  C   UNL     1       0.449  13.344  18.812  0.00  0.00    +0.000 C 
ATOM     26  O   UNL     1       1.370  12.721  19.714  0.00  0.00    +0.000 OA
ENDBRANCH  23  26
ENDBRANCH  17  23
ENDBRANCH  13  22
ENDBRANCH  12  14
ENDBRANCH  11  12
ENDBRANCH   1  11
BRANCH  10  27
ATOM     27  C   UNL     1       4.697   6.652  17.530  0.00  0.00    +0.000 C 
BRANCH  27  28
ATOM     28  C   UNL     1       5.422   5.765  16.535  0.00  0.00    +0.000 A 
ATOM     29  C   UNL     1       4.803   5.143  15.446  0.00  0.00    +0.000 A 
ATOM     30  C   UNL     1       5.576   4.492  14.473  0.00  0.00    +0.000 A 
ATOM     31  C   UNL     1       6.975   4.462  14.576  0.00  0.00    +0.000 A 
ATOM     32  C   UNL     1       7.605   5.085  15.630  0.00  0.00    +0.000 A 
ATOM     33  C   UNL     1       6.848   5.751  16.598  0.00  0.00    +0.000 A 
BRANCH  33  34
ATOM     34  O   UNL     1       7.415   6.502  17.607  0.00  0.00    +0.000 OA
ATOM     35  C   UNL     1       7.827   5.813  18.782  0.00  0.00    +0.000 C 
ENDBRANCH  33  34
ENDBRANCH  27  28
ENDBRANCH  10  27
TORSDOF 9
ENDMDL
MODEL 9
REMARK VINA RESULT:      -8.0      6.159     10.706
REMARK  Name = 
REMARK  11 active torsions:
REMARK  status: ('A' for Active; 'I' for Inactive)
REMARK    1  A    between atoms: C_1  and  O_2
REMARK    2  A    between atoms: O_2  and  C_3
REMARK    3  A    between atoms: C_3  and  C_5
REMARK    4  A    between atoms: C_10  and  N_11
REMARK    5  A    between atoms: C_12  and  C_14
REMARK    6  A    between atoms: C_14  and  S_15
REMARK    7  A    between atoms: S_15  and  C_16
REMARK    8  A    between atoms: C_25  and  C_26
REMARK    9  A    between atoms: C_26  and  C_27
REMARK   10  A    between atoms: C_32  and  O_33
REMARK   11  A    between atoms: O_33  and  C_34
REMARK                            x       y       z     vdW  Elec       q    Type
REMARK                         _______ _______ _______ _____ _____    ______ ____
ROOT
ATOM      1  C   UNL     1       2.669   6.158  19.200  0.00  0.00    +0.000 A 
ATOM      2  N   UNL     1       1.883   5.169  18.744  0.00  0.00    +0.000 NA
ATOM      3  C   UNL     1       2.476   3.944  18.721  0.00  0.00    +0.000 A 
ATOM      4  C   UNL     1       2.284   2.992  17.728  0.00  0.00    +0.000 A 
ATOM      5  C   UNL     1       2.918   1.748  17.797  0.00  0.00    +0.000 A 
ATOM      6  C   UNL     1       3.559   1.388  18.975  0.00  0.00    +0.000 A 
ATOM      7  C   UNL     1       3.860   2.387  19.890  0.00  0.00    +0.000 A 
ATOM      8  C   UNL     1       3.574   3.700  19.536  0.00  0.00    +0.000 A 
ATOM      9  N   UNL     1       4.438   4.724  19.713  0.00  0.00    +0.000 NA
ATOM     10  C   UNL     1       4.035   5.913  19.199  0.00  0.00    +0.000 A 
ENDROOT
BRANCH   1  11
ATOM     11  S   UNL     1       2.097   7.824  19.442  0.00  0.00    +0.000 S 
BRANCH  11  12
ATOM     12  C   UNL     1       1.157   7.672  20.978  0.00  0.00    +0.000 C 
BRANCH  12  14
ATOM     13  N   UNL     1       0.019   9.848  21.099  0.00  0.00    +0.000 N 
ATOM     14  C   UNL     1       1.013   9.039  21.629  0.00  0.00    +0.000 C 
ATOM     15  O   UNL     1       1.780   9.355  22.548  0.00  0.00    +0.000 OA
ATOM     16  H   UNL     1      -0.672   9.366  20.529  0.00  0.00    +0.000 HD
BRANCH  13  22
ATOM     17  C   UNL     1       0.088  12.280  20.621  0.00  0.00    +0.000 A 
ATOM     18  C   UNL     1      -0.235  13.598  21.016  0.00  0.00    +0.000 A 
ATOM     19  C   UNL     1      -0.899  13.852  22.213  0.00  0.00    +0.000 A 
ATOM     20  C   UNL     1      -1.251  12.789  23.033  0.00  0.00    +0.000 A 
ATOM     21  C   UNL     1      -0.939  11.484  22.657  0.00  0.00    +0.000 A 
ATOM     22  C   UNL     1      -0.280  11.194  21.446  0.00  0.00    +0.000 A 
BRANCH  17  23
ATOM     23  C   UNL     1       0.784  12.184  19.298  0.00  0.00    +0.000 C 
ATOM     24  O   UNL     1       1.059  11.117  18.765  0.00  0.00    +0.000 OA
BRANCH  23  26
ATOM     25  C   UNL     1       2.445  13.556  18.407  0.00  0.00    +0.000 C 
ATOM     26  O   UNL     1       1.068  13.403  18.768  0.00  0.00    +0.000 OA
ENDBRANCH  23  26
ENDBRANCH  17  23
ENDBRANCH  13  22
ENDBRANCH  12  14
ENDBRANCH  11  12
ENDBRANCH   1  11
BRANCH  10  27
ATOM     27  C   UNL     1       4.584   6.462  17.833  0.00  0.00    +0.000 C 
BRANCH  27  28
ATOM     28  C   UNL     1       5.364   5.736  16.752  0.00  0.00    +0.000 A 
ATOM     29  C   UNL     1       4.775   5.106  15.652  0.00  0.00    +0.000 A 
ATOM     30  C   UNL     1       5.573   4.618  14.607  0.00  0.00    +0.000 A 
ATOM     31  C   UNL     1       6.969   4.763  14.648  0.00  0.00    +0.000 A 
ATOM     32  C   UNL     1       7.567   5.397  15.714  0.00  0.00    +0.000 A 
ATOM     33  C   UNL     1       6.782   5.901  16.754  0.00  0.00    +0.000 A 
BRANCH  33  34
ATOM     34  O   UNL     1       7.300   6.657  17.785  0.00  0.00    +0.000 OA
ATOM     35  C   UNL     1       7.847   5.958  18.898  0.00  0.00    +0.000 C 
ENDBRANCH  33  34
ENDBRANCH  27  28
ENDBRANCH  10  27
TORSDOF 9
ENDMDL
