MODEL 1
REMARK VINA RESULT:      -7.5      0.000      0.000
REMARK  Name = 
REMARK  2 active torsions:
REMARK  status: ('A' for Active; 'I' for Inactive)
REMARK    1  A    between atoms: C_8  and  C_9
REMARK    2  A    between atoms: C_12  and  O_13
REMARK                            x       y       z     vdW  Elec       q    Type
REMARK                         _______ _______ _______ _____ _____    ______ ____
ROOT
ATOM      1  N   UNL     1       8.959   5.823  12.948  0.00  0.00    +0.000 N 
ATOM      2  C   UNL     1       7.884   5.327  13.651  0.00  0.00    +0.000 A 
ATOM      3  N   UNL     1       6.906   4.751  12.957  0.00  0.00    +0.000 NA
ATOM      4  C   UNL     1       5.883   4.253  13.665  0.00  0.00    +0.000 A 
ATOM      5  N   UNL     1       4.923   3.533  12.936  0.00  0.00    +0.000 N 
ATOM      6  C   UNL     1       5.783   4.330  15.048  0.00  0.00    +0.000 A 
ATOM      7  N   UNL     1       4.714   3.868  15.749  0.00  0.00    +0.000 NA
ATOM      8  C   UNL     1       4.738   4.047  17.090  0.00  0.00    +0.000 A 
ATOM      9  C   UNL     1       5.859   4.626  17.709  0.00  0.00    +0.000 A 
ATOM     10  N   UNL     1       5.963   4.822  19.086  0.00  0.00    +0.000 N 
ATOM     11  N   UNL     1       6.901   5.093  16.989  0.00  0.00    +0.000 NA
ATOM     12  C   UNL     1       6.873   4.967  15.657  0.00  0.00    +0.000 A 
ATOM     13  N   UNL     1       7.897   5.464  14.972  0.00  0.00    +0.000 NA
ATOM     14  H   UNL     1       8.721   6.016  11.987  0.00  0.00    +0.000 HD
ATOM     15  H   UNL     1       9.453   6.531  13.472  0.00  0.00    +0.000 HD
ATOM     16  H   UNL     1       5.037   3.701  11.942  0.00  0.00    +0.000 HD
ATOM     17  H   UNL     1       3.985   3.669  13.302  0.00  0.00    +0.000 HD
ATOM     18  H   UNL     1       5.699   3.998  19.617  0.00  0.00    +0.000 HD
ATOM     19  H   UNL     1       6.895   5.163  19.308  0.00  0.00    +0.000 HD
ENDROOT
BRANCH   8  20
ATOM     20  C   UNL     1       3.519   3.610  17.810  0.00  0.00    +0.000 A 
ATOM     21  C   UNL     1       3.333   2.259  18.157  0.00  0.00    +0.000 A 
ATOM     22  C   UNL     1       2.167   1.830  18.807  0.00  0.00    +0.000 A 
ATOM     23  C   UNL     1       1.179   2.757  19.116  0.00  0.00    +0.000 A 
ATOM     24  C   UNL     1       1.332   4.093  18.801  0.00  0.00    +0.000 A 
ATOM     25  C   UNL     1       2.491   4.511  18.143  0.00  0.00    +0.000 A 
BRANCH  23  26
ATOM     26  O   UNL     1       0.021   2.387  19.731  0.00  0.00    +0.000 OA
ATOM     27  H   UNL     1      -0.601   3.132  19.689  0.00  0.00    +0.000 HD
ENDBRANCH  23  26
ENDBRANCH   8  20
TORSDOF 2
ENDMDL
MODEL 2
REMARK VINA RESULT:      -7.4      0.244      1.091
REMARK  Name = 
REMARK  2 active torsions:
REMARK  status: ('A' for Active; 'I' for Inactive)
REMARK    1  A    between atoms: C_8  and  C_9
REMARK    2  A    between atoms: C_12  and  O_13
REMARK                            x       y       z     vdW  Elec       q    Type
REMARK                         _______ _______ _______ _____ _____    ______ ____
ROOT
ATOM      1  N   UNL     1       9.001   5.918  12.927  0.00  0.00    +0.000 N 
ATOM      2  C   UNL     1       7.923   5.388  13.600  0.00  0.00    +0.000 A 
ATOM      3  N   UNL     1       7.036   4.693  12.893  0.00  0.00    +0.000 NA
ATOM      4  C   UNL     1       6.009   4.164  13.574  0.00  0.00    +0.000 A 
ATOM      5  N   UNL     1       5.153   3.324  12.842  0.00  0.00    +0.000 N 
ATOM      6  C   UNL     1       5.816   4.326  14.939  0.00  0.00    +0.000 A 
ATOM      7  N   UNL     1       4.741   3.830  15.608  0.00  0.00    +0.000 NA
ATOM      8  C   UNL     1       4.666   4.099  16.931  0.00  0.00    +0.000 A 
ATOM      9  C   UNL     1       5.700   4.804  17.572  0.00  0.00    +0.000 A 
ATOM     10  N   UNL     1       5.701   5.098  18.935  0.00  0.00    +0.000 N 
ATOM     11  N   UNL     1       6.749   5.302  16.882  0.00  0.00    +0.000 NA
ATOM     12  C   UNL     1       6.814   5.085  15.564  0.00  0.00    +0.000 A 
ATOM     13  N   UNL     1       7.841   5.613  14.906  0.00  0.00    +0.000 NA
ATOM     14  H   UNL     1       8.811   6.027  11.943  0.00  0.00    +0.000 HD
ATOM     15  H   UNL     1       9.407   6.696  13.428  0.00  0.00    +0.000 HD
ATOM     16  H   UNL     1       5.318   3.434  11.848  0.00  0.00    +0.000 HD
ATOM     17  H   UNL     1       4.187   3.411  13.142  0.00  0.00    +0.000 HD
ATOM     18  H   UNL     1       5.465   4.294  19.507  0.00  0.00    +0.000 HD
ATOM     19  H   UNL     1       6.589   5.525  19.187  0.00  0.00    +0.000 HD
ENDROOT
BRANCH   8  20
ATOM     20  C   UNL     1       3.439   3.618  17.608  0.00  0.00    +0.000 A 
ATOM     21  C   UNL     1       2.303   4.442  17.711  0.00  0.00    +0.000 A 
ATOM     22  C   UNL     1       1.150   4.008  18.380  0.00  0.00    +0.000 A 
ATOM     23  C   UNL     1       1.127   2.740  18.948  0.00  0.00    +0.000 A 
ATOM     24  C   UNL     1       2.219   1.899  18.855  0.00  0.00    +0.000 A 
ATOM     25  C   UNL     1       3.369   2.343  18.199  0.00  0.00    +0.000 A 
BRANCH  23  26
ATOM     26  O   UNL     1       0.037   2.279  19.623  0.00  0.00    +0.000 OA
ATOM     27  H   UNL     1       0.045   1.308  19.592  0.00  0.00    +0.000 HD
ENDBRANCH  23  26
ENDBRANCH   8  20
TORSDOF 2
ENDMDL
MODEL 3
REMARK VINA RESULT:      -7.3      3.596      6.607
REMARK  Name = 
REMARK  2 active torsions:
REMARK  status: ('A' for Active; 'I' for Inactive)
REMARK    1  A    between atoms: C_8  and  C_9
REMARK    2  A    between atoms: C_12  and  O_13
REMARK                            x       y       z     vdW  Elec       q    Type
REMARK                         _______ _______ _______ _____ _____    ______ ____
ROOT
ATOM      1  N   UNL     1       2.143   3.237  22.069  0.00  0.00    +0.000 N 
ATOM      2  C   UNL     1       2.747   3.237  20.832  0.00  0.00    +0.000 A 
ATOM      3  N   UNL     1       3.075   2.060  20.306  0.00  0.00    +0.000 NA
ATOM      4  C   UNL     1       3.639   2.084  19.089  0.00  0.00    +0.000 A 
ATOM      5  N   UNL     1       3.859   0.833  18.489  0.00  0.00    +0.000 N 
ATOM      6  C   UNL     1       3.914   3.247  18.383  0.00  0.00    +0.000 A 
ATOM      7  N   UNL     1       4.536   3.259  17.173  0.00  0.00    +0.000 NA
ATOM      8  C   UNL     1       4.773   4.471  16.620  0.00  0.00    +0.000 A 
ATOM      9  C   UNL     1       4.328   5.642  17.257  0.00  0.00    +0.000 A 
ATOM     10  N   UNL     1       4.518   6.921  16.736  0.00  0.00    +0.000 N 
ATOM     11  N   UNL     1       3.729   5.604  18.467  0.00  0.00    +0.000 NA
ATOM     12  C   UNL     1       3.528   4.417  19.050  0.00  0.00    +0.000 A 
ATOM     13  N   UNL     1       2.965   4.412  20.253  0.00  0.00    +0.000 NA
ATOM     14  H   UNL     1       2.343   2.393  22.583  0.00  0.00    +0.000 HD
ATOM     15  H   UNL     1       2.254   4.124  22.538  0.00  0.00    +0.000 HD
ATOM     16  H   UNL     1       3.767   0.092  19.175  0.00  0.00    +0.000 HD
ATOM     17  H   UNL     1       4.713   0.821  17.938  0.00  0.00    +0.000 HD
ATOM     18  H   UNL     1       4.270   6.982  15.754  0.00  0.00    +0.000 HD
ATOM     19  H   UNL     1       4.029   7.598  17.317  0.00  0.00    +0.000 HD
ENDROOT
BRANCH   8  20
ATOM     20  C   UNL     1       5.528   4.448  15.345  0.00  0.00    +0.000 A 
ATOM     21  C   UNL     1       6.785   5.072  15.242  0.00  0.00    +0.000 A 
ATOM     22  C   UNL     1       7.491   5.087  14.030  0.00  0.00    +0.000 A 
ATOM     23  C   UNL     1       6.941   4.471  12.914  0.00  0.00    +0.000 A 
ATOM     24  C   UNL     1       5.715   3.838  12.981  0.00  0.00    +0.000 A 
ATOM     25  C   UNL     1       5.012   3.839  14.188  0.00  0.00    +0.000 A 
BRANCH  23  26
ATOM     26  O   UNL     1       7.579   4.472  11.710  0.00  0.00    +0.000 OA
ATOM     27  H   UNL     1       8.473   4.114  11.836  0.00  0.00    +0.000 HD
ENDBRANCH  23  26
ENDBRANCH   8  20
TORSDOF 2
ENDMDL
MODEL 4
REMARK VINA RESULT:      -7.3      3.598      6.574
REMARK  Name = 
REMARK  2 active torsions:
REMARK  status: ('A' for Active; 'I' for Inactive)
REMARK    1  A    between atoms: C_8  and  C_9
REMARK    2  A    between atoms: C_12  and  O_13
REMARK                            x       y       z     vdW  Elec       q    Type
REMARK                         _______ _______ _______ _____ _____    ______ ____
ROOT
ATOM      1  N   UNL     1       2.186   3.261  22.076  0.00  0.00    +0.000 N 
ATOM      2  C   UNL     1       2.771   3.265  20.829  0.00  0.00    +0.000 A 
ATOM      3  N   UNL     1       3.081   2.088  20.291  0.00  0.00    +0.000 NA
ATOM      4  C   UNL     1       3.626   2.116  19.066  0.00  0.00    +0.000 A 
ATOM      5  N   UNL     1       3.827   0.867  18.454  0.00  0.00    +0.000 N 
ATOM      6  C   UNL     1       3.900   3.281  18.363  0.00  0.00    +0.000 A 
ATOM      7  N   UNL     1       4.502   3.296  17.143  0.00  0.00    +0.000 NA
ATOM      8  C   UNL     1       4.741   4.509  16.594  0.00  0.00    +0.000 A 
ATOM      9  C   UNL     1       4.315   5.680  17.246  0.00  0.00    +0.000 A 
ATOM     10  N   UNL     1       4.507   6.961  16.730  0.00  0.00    +0.000 N 
ATOM     11  N   UNL     1       3.735   5.639  18.464  0.00  0.00    +0.000 NA
ATOM     12  C   UNL     1       3.533   4.450  19.043  0.00  0.00    +0.000 A 
ATOM     13  N   UNL     1       2.990   4.442  20.255  0.00  0.00    +0.000 NA
ATOM     14  H   UNL     1       2.387   2.412  22.582  0.00  0.00    +0.000 HD
ATOM     15  H   UNL     1       2.312   4.144  22.549  0.00  0.00    +0.000 HD
ATOM     16  H   UNL     1       3.739   0.122  19.137  0.00  0.00    +0.000 HD
ATOM     17  H   UNL     1       4.671   0.852  17.889  0.00  0.00    +0.000 HD
ATOM     18  H   UNL     1       4.244   7.030  15.752  0.00  0.00    +0.000 HD
ATOM     19  H   UNL     1       4.033   7.638  17.323  0.00  0.00    +0.000 HD
ENDROOT
BRANCH   8  20
ATOM     20  C   UNL     1       5.476   4.489  15.308  0.00  0.00    +0.000 A 
ATOM     21  C   UNL     1       4.919   3.875  14.171  0.00  0.00    +0.000 A 
ATOM     22  C   UNL     1       5.621   3.820  12.958  0.00  0.00    +0.000 A 
ATOM     23  C   UNL     1       6.888   4.385  12.878  0.00  0.00    +0.000 A 
ATOM     24  C   UNL     1       7.461   5.007  13.971  0.00  0.00    +0.000 A 
ATOM     25  C   UNL     1       6.761   5.046  15.178  0.00  0.00    +0.000 A 
BRANCH  23  26
ATOM     26  O   UNL     1       7.618   4.342  11.728  0.00  0.00    +0.000 OA
ATOM     27  H   UNL     1       8.093   5.184  11.634  0.00  0.00    +0.000 HD
ENDBRANCH  23  26
ENDBRANCH   8  20
TORSDOF 2
ENDMDL
MODEL 5
REMARK VINA RESULT:      -7.2      4.259      6.343
REMARK  Name = 
REMARK  2 active torsions:
REMARK  status: ('A' for Active; 'I' for Inactive)
REMARK    1  A    between atoms: C_8  and  C_9
REMARK    2  A    between atoms: C_12  and  O_13
REMARK                            x       y       z     vdW  Elec       q    Type
REMARK                         _______ _______ _______ _____ _____    ______ ____
ROOT
ATOM      1  N   UNL     1       3.995   0.592  18.342  0.00  0.00    +0.000 N 
ATOM      2  C   UNL     1       3.486   1.843  18.612  0.00  0.00    +0.000 A 
ATOM      3  N   UNL     1       2.415   1.915  19.397  0.00  0.00    +0.000 NA
ATOM      4  C   UNL     1       1.953   3.145  19.667  0.00  0.00    +0.000 A 
ATOM      5  N   UNL     1       0.906   3.218  20.600  0.00  0.00    +0.000 N 
ATOM      6  C   UNL     1       2.507   4.312  19.160  0.00  0.00    +0.000 A 
ATOM      7  N   UNL     1       1.996   5.550  19.398  0.00  0.00    +0.000 NA
ATOM      8  C   UNL     1       2.619   6.594  18.805  0.00  0.00    +0.000 A 
ATOM      9  C   UNL     1       3.779   6.386  18.038  0.00  0.00    +0.000 A 
ATOM     10  N   UNL     1       4.485   7.415  17.416  0.00  0.00    +0.000 N 
ATOM     11  N   UNL     1       4.256   5.145  17.801  0.00  0.00    +0.000 NA
ATOM     12  C   UNL     1       3.624   4.097  18.342  0.00  0.00    +0.000 A 
ATOM     13  N   UNL     1       4.098   2.887  18.066  0.00  0.00    +0.000 NA
ATOM     14  H   UNL     1       3.302  -0.129  18.467  0.00  0.00    +0.000 HD
ATOM     15  H   UNL     1       4.545   0.588  17.495  0.00  0.00    +0.000 HD
ATOM     16  H   UNL     1       0.505   2.299  20.752  0.00  0.00    +0.000 HD
ATOM     17  H   UNL     1       0.245   3.956  20.374  0.00  0.00    +0.000 HD
ATOM     18  H   UNL     1       4.652   8.202  18.036  0.00  0.00    +0.000 HD
ATOM     19  H   UNL     1       5.335   7.039  17.003  0.00  0.00    +0.000 HD
ENDROOT
BRANCH   8  20
ATOM     20  C   UNL     1       1.983   7.916  19.017  0.00  0.00    +0.000 A 
ATOM     21  C   UNL     1       1.555   8.311  20.298  0.00  0.00    +0.000 A 
ATOM     22  C   UNL     1       0.920   9.544  20.502  0.00  0.00    +0.000 A 
ATOM     23  C   UNL     1       0.714  10.392  19.422  0.00  0.00    +0.000 A 
ATOM     24  C   UNL     1       1.133  10.043  18.152  0.00  0.00    +0.000 A 
ATOM     25  C   UNL     1       1.752   8.807  17.954  0.00  0.00    +0.000 A 
BRANCH  23  26
ATOM     26  O   UNL     1       0.087  11.593  19.565  0.00  0.00    +0.000 OA
ATOM     27  H   UNL     1       0.727  12.299  19.372  0.00  0.00    +0.000 HD
ENDBRANCH  23  26
ENDBRANCH   8  20
TORSDOF 2
ENDMDL
MODEL 6
REMARK VINA RESULT:      -7.1      4.269      6.370
REMARK  Name = 
REMARK  2 active torsions:
REMARK  status: ('A' for Active; 'I' for Inactive)
REMARK    1  A    between atoms: C_8  and  C_9
REMARK    2  A    between atoms: C_12  and  O_13
REMARK                            x       y       z     vdW  Elec       q    Type
REMARK                         _______ _______ _______ _____ _____    ______ ____
ROOT
ATOM      1  N   UNL     1       4.030   0.598  18.358  0.00  0.00    +0.000 N 
ATOM      2  C   UNL     1       3.513   1.845  18.628  0.00  0.00    +0.000 A 
ATOM      3  N   UNL     1       2.450   1.912  19.426  0.00  0.00    +0.000 NA
ATOM      4  C   UNL     1       1.980   3.139  19.696  0.00  0.00    +0.000 A 
ATOM      5  N   UNL     1       0.944   3.206  20.641  0.00  0.00    +0.000 N 
ATOM      6  C   UNL     1       2.517   4.308  19.175  0.00  0.00    +0.000 A 
ATOM      7  N   UNL     1       1.998   5.543  19.414  0.00  0.00    +0.000 NA
ATOM      8  C   UNL     1       2.604   6.589  18.807  0.00  0.00    +0.000 A 
ATOM      9  C   UNL     1       3.755   6.388  18.026  0.00  0.00    +0.000 A 
ATOM     10  N   UNL     1       4.444   7.420  17.390  0.00  0.00    +0.000 N 
ATOM     11  N   UNL     1       4.241   5.150  17.790  0.00  0.00    +0.000 NA
ATOM     12  C   UNL     1       3.626   4.099  18.344  0.00  0.00    +0.000 A 
ATOM     13  N   UNL     1       4.107   2.892  18.069  0.00  0.00    +0.000 NA
ATOM     14  H   UNL     1       3.344  -0.130  18.496  0.00  0.00    +0.000 HD
ATOM     15  H   UNL     1       4.569   0.594  17.505  0.00  0.00    +0.000 HD
ATOM     16  H   UNL     1       0.554   2.285  20.803  0.00  0.00    +0.000 HD
ATOM     17  H   UNL     1       0.274   3.937  20.420  0.00  0.00    +0.000 HD
ATOM     18  H   UNL     1       4.612   8.211  18.003  0.00  0.00    +0.000 HD
ATOM     19  H   UNL     1       5.292   7.050  16.969  0.00  0.00    +0.000 HD
ENDROOT
BRANCH   8  20
ATOM     20  C   UNL     1       1.958   7.906  19.020  0.00  0.00    +0.000 A 
ATOM     21  C   UNL     1       1.760   8.792  17.946  0.00  0.00    +0.000 A 
ATOM     22  C   UNL     1       1.182  10.055  18.144  0.00  0.00    +0.000 A 
ATOM     23  C   UNL     1       0.796  10.434  19.423  0.00  0.00    +0.000 A 
ATOM     24  C   UNL     1       0.963   9.585  20.499  0.00  0.00    +0.000 A 
ATOM     25  C   UNL     1       1.552   8.335  20.297  0.00  0.00    +0.000 A 
BRANCH  23  26
ATOM     26  O   UNL     1       0.246  11.656  19.670  0.00  0.00    +0.000 OA
ATOM     27  H   UNL     1       0.247  12.166  18.843  0.00  0.00    +0.000 HD
ENDBRANCH  23  26
ENDBRANCH   8  20
TORSDOF 2
ENDMDL
MODEL 7
REMARK VINA RESULT:      -7.0      5.184      7.496
REMARK  Name = 
REMARK  2 active torsions:
REMARK  status: ('A' for Active; 'I' for Inactive)
REMARK    1  A    between atoms: C_8  and  C_9
REMARK    2  A    between atoms: C_12  and  O_13
REMARK                            x       y       z     vdW  Elec       q    Type
REMARK                         _______ _______ _______ _____ _____    ______ ____
ROOT
ATOM      1  N   UNL     1      -0.911  11.284  21.383  0.00  0.00    +0.000 N 
ATOM      2  C   UNL     1      -0.075  10.457  20.666  0.00  0.00    +0.000 A 
ATOM      3  N   UNL     1       0.379  10.904  19.498  0.00  0.00    +0.000 NA
ATOM      4  C   UNL     1       1.212  10.093  18.830  0.00  0.00    +0.000 A 
ATOM      5  N   UNL     1       1.789  10.627  17.666  0.00  0.00    +0.000 N 
ATOM      6  C   UNL     1       1.591   8.832  19.273  0.00  0.00    +0.000 A 
ATOM      7  N   UNL     1       2.394   7.998  18.559  0.00  0.00    +0.000 NA
ATOM      8  C   UNL     1       2.647   6.783  19.099  0.00  0.00    +0.000 A 
ATOM      9  C   UNL     1       2.145   6.453  20.369  0.00  0.00    +0.000 A 
ATOM     10  N   UNL     1       2.384   5.230  20.997  0.00  0.00    +0.000 N 
ATOM     11  N   UNL     1       1.336   7.292  21.050  0.00  0.00    +0.000 NA
ATOM     12  C   UNL     1       1.037   8.479  20.510  0.00  0.00    +0.000 A 
ATOM     13  N   UNL     1       0.213   9.271  21.187  0.00  0.00    +0.000 NA
ATOM     14  H   UNL     1      -1.364  11.963  20.791  0.00  0.00    +0.000 HD
ATOM     15  H   UNL     1      -1.478  10.764  22.038  0.00  0.00    +0.000 HD
ATOM     16  H   UNL     1       1.301  11.470  17.386  0.00  0.00    +0.000 HD
ATOM     17  H   UNL     1       1.906   9.924  16.942  0.00  0.00    +0.000 HD
ATOM     18  H   UNL     1       3.362   4.959  20.962  0.00  0.00    +0.000 HD
ATOM     19  H   UNL     1       2.006   5.256  21.940  0.00  0.00    +0.000 HD
ENDROOT
BRANCH   8  20
ATOM     20  C   UNL     1       3.453   5.870  18.254  0.00  0.00    +0.000 A 
ATOM     21  C   UNL     1       2.904   4.670  17.767  0.00  0.00    +0.000 A 
ATOM     22  C   UNL     1       3.670   3.782  16.997  0.00  0.00    +0.000 A 
ATOM     23  C   UNL     1       4.992   4.097  16.708  0.00  0.00    +0.000 A 
ATOM     24  C   UNL     1       5.559   5.273  17.159  0.00  0.00    +0.000 A 
ATOM     25  C   UNL     1       4.795   6.145  17.936  0.00  0.00    +0.000 A 
BRANCH  23  26
ATOM     26  O   UNL     1       5.782   3.260  15.978  0.00  0.00    +0.000 OA
ATOM     27  H   UNL     1       6.562   3.033  16.509  0.00  0.00    +0.000 HD
ENDBRANCH  23  26
ENDBRANCH   8  20
TORSDOF 2
ENDMDL
MODEL 8
REMARK VINA RESULT:      -7.0      3.378      6.493
REMARK  Name = 
REMARK  2 active torsions:
REMARK  status: ('A' for Active; 'I' for Inactive)
REMARK    1  A    between atoms: C_8  and  C_9
REMARK    2  A    between atoms: C_12  and  O_13
REMARK                            x       y       z     vdW  Elec       q    Type
REMARK                         _______ _______ _______ _____ _____    ______ ____
ROOT
ATOM      1  N   UNL     1       1.893   3.253  21.919  0.00  0.00    +0.000 N 
ATOM      2  C   UNL     1       2.417   3.478  20.666  0.00  0.00    +0.000 A 
ATOM      3  N   UNL     1       1.564   3.563  19.648  0.00  0.00    +0.000 NA
ATOM      4  C   UNL     1       2.096   3.808  18.441  0.00  0.00    +0.000 A 
ATOM      5  N   UNL     1       1.180   4.027  17.399  0.00  0.00    +0.000 N 
ATOM      6  C   UNL     1       3.457   3.946  18.205  0.00  0.00    +0.000 A 
ATOM      7  N   UNL     1       3.986   4.141  16.967  0.00  0.00    +0.000 NA
ATOM      8  C   UNL     1       5.334   4.219  16.884  0.00  0.00    +0.000 A 
ATOM      9  C   UNL     1       6.122   4.165  18.047  0.00  0.00    +0.000 A 
ATOM     10  N   UNL     1       7.513   4.260  18.040  0.00  0.00    +0.000 N 
ATOM     11  N   UNL     1       5.573   3.953  19.263  0.00  0.00    +0.000 NA
ATOM     12  C   UNL     1       4.245   3.826  19.357  0.00  0.00    +0.000 A 
ATOM     13  N   UNL     1       3.736   3.587  20.561  0.00  0.00    +0.000 NA
ATOM     14  H   UNL     1       0.980   2.826  21.873  0.00  0.00    +0.000 HD
ATOM     15  H   UNL     1       2.579   2.854  22.544  0.00  0.00    +0.000 HD
ATOM     16  H   UNL     1       0.250   3.735  17.680  0.00  0.00    +0.000 HD
ATOM     17  H   UNL     1       1.512   3.653  16.516  0.00  0.00    +0.000 HD
ATOM     18  H   UNL     1       7.847   5.029  17.467  0.00  0.00    +0.000 HD
ATOM     19  H   UNL     1       7.853   4.294  18.997  0.00  0.00    +0.000 HD
ENDROOT
BRANCH   8  20
ATOM     20  C   UNL     1       5.878   4.344  15.511  0.00  0.00    +0.000 A 
ATOM     21  C   UNL     1       5.318   3.615  14.446  0.00  0.00    +0.000 A 
ATOM     22  C   UNL     1       5.848   3.700  13.151  0.00  0.00    +0.000 A 
ATOM     23  C   UNL     1       6.943   4.521  12.915  0.00  0.00    +0.000 A 
ATOM     24  C   UNL     1       7.512   5.261  13.934  0.00  0.00    +0.000 A 
ATOM     25  C   UNL     1       6.986   5.161  15.224  0.00  0.00    +0.000 A 
BRANCH  23  26
ATOM     26  O   UNL     1       7.505   4.624  11.678  0.00  0.00    +0.000 OA
ATOM     27  H   UNL     1       6.794   4.722  11.024  0.00  0.00    +0.000 HD
ENDBRANCH  23  26
ENDBRANCH   8  20
TORSDOF 2
ENDMDL
MODEL 9
REMARK VINA RESULT:      -6.9      5.170      7.496
REMARK  Name = 
REMARK  2 active torsions:
REMARK  status: ('A' for Active; 'I' for Inactive)
REMARK    1  A    between atoms: C_8  and  C_9
REMARK    2  A    between atoms: C_12  and  O_13
REMARK                            x       y       z     vdW  Elec       q    Type
REMARK                         _______ _______ _______ _____ _____    ______ ____
ROOT
ATOM      1  N   UNL     1      -0.932  11.280  21.260  0.00  0.00    +0.000 N 
ATOM      2  C   UNL     1      -0.077  10.449  20.572  0.00  0.00    +0.000 A 
ATOM      3  N   UNL     1       0.409  10.887  19.414  0.00  0.00    +0.000 NA
ATOM      4  C   UNL     1       1.260  10.071  18.774  0.00  0.00    +0.000 A 
ATOM      5  N   UNL     1       1.867  10.596  17.622  0.00  0.00    +0.000 N 
ATOM      6  C   UNL     1       1.627   8.814  19.237  0.00  0.00    +0.000 A 
ATOM      7  N   UNL     1       2.449   7.975  18.552  0.00  0.00    +0.000 NA
ATOM      8  C   UNL     1       2.688   6.765  19.107  0.00  0.00    +0.000 A 
ATOM      9  C   UNL     1       2.153   6.443  20.366  0.00  0.00    +0.000 A 
ATOM     10  N   UNL     1       2.375   5.226  21.009  0.00  0.00    +0.000 N 
ATOM     11  N   UNL     1       1.325   7.287  21.019  0.00  0.00    +0.000 NA
ATOM     12  C   UNL     1       1.040   8.470  20.461  0.00  0.00    +0.000 A 
ATOM     13  N   UNL     1       0.198   9.266  21.111  0.00  0.00    +0.000 NA
ATOM     14  H   UNL     1      -1.369  11.955  20.651  0.00  0.00    +0.000 HD
ATOM     15  H   UNL     1      -1.515  10.765  21.904  0.00  0.00    +0.000 HD
ATOM     16  H   UNL     1       1.387  11.437  17.323  0.00  0.00    +0.000 HD
ATOM     17  H   UNL     1       2.004   9.888  16.907  0.00  0.00    +0.000 HD
ATOM     18  H   UNL     1       3.353   4.955  21.003  0.00  0.00    +0.000 HD
ATOM     19  H   UNL     1       1.972   5.259  21.942  0.00  0.00    +0.000 HD
ENDROOT
BRANCH   8  20
ATOM     20  C   UNL     1       3.517   5.846  18.292  0.00  0.00    +0.000 A 
ATOM     21  C   UNL     1       4.853   6.162  17.985  0.00  0.00    +0.000 A 
ATOM     22  C   UNL     1       5.634   5.316  17.184  0.00  0.00    +0.000 A 
ATOM     23  C   UNL     1       5.079   4.143  16.689  0.00  0.00    +0.000 A 
ATOM     24  C   UNL     1       3.774   3.793  16.981  0.00  0.00    +0.000 A 
ATOM     25  C   UNL     1       2.999   4.648  17.768  0.00  0.00    +0.000 A 
BRANCH  23  26
ATOM     26  O   UNL     1       5.791   3.296  15.894  0.00  0.00    +0.000 OA
ATOM     27  H   UNL     1       6.423   3.820  15.375  0.00  0.00    +0.000 HD
ENDBRANCH  23  26
ENDBRANCH   8  20
TORSDOF 2
ENDMDL
