MODEL 1
REMARK VINA RESULT:      -7.4      0.000      0.000
REMARK  Name = 
REMARK  16 active torsions:
REMARK  status: ('A' for Active; 'I' for Inactive)
REMARK    1  A    between atoms: C_1  and  N_2
REMARK    2  A    between atoms: C_3  and  C_5
REMARK    3  A    between atoms: C_5  and  C_6
REMARK    4  A    between atoms: C_5  and  N_14
REMARK    5  A    between atoms: C_6  and  C_7
REMARK    6  A    between atoms: C_10  and  O_11
REMARK    7  A    between atoms: C_15  and  C_17
REMARK    8  A    between atoms: C_17  and  C_18
REMARK    9  A    between atoms: C_17  and  C_22
REMARK   10  A    between atoms: C_18  and  C_19
REMARK   11  A    between atoms: C_19  and  C_20
REMARK   12  A    between atoms: C_19  and  C_21
REMARK   13  A    between atoms: C_22  and  P_23
REMARK   14  A    between atoms: P_23  and  O_25
REMARK   15  A    between atoms: P_23  and  C_26
REMARK   16  A    between atoms: C_26  and  C_27
REMARK                            x       y       z     vdW  Elec       q    Type
REMARK                         _______ _______ _______ _____ _____    ______ ____
ROOT
ATOM      1  N   UNL     1       2.112   7.504  20.133  0.00  0.00    +0.000 N 
ATOM      2  C   UNL     1       2.566   6.883  18.998  0.00  0.00    +0.000 C 
ATOM      3  O   UNL     1       2.301   7.307  17.866  0.00  0.00    +0.000 OA
ATOM      4  H   UNL     1       2.369   7.163  21.054  0.00  0.00    +0.000 HD
ENDROOT
BRANCH   1   5
ATOM      5  C   UNL     1       1.201   8.659  20.103  0.00  0.00    +0.000 C 
BRANCH   5   8
ATOM      6  C   UNL     1      -0.636   9.759  23.297  0.00  0.00    +0.000 C 
ATOM      7  N   UNL     1      -0.307   9.375  21.947  0.00  0.00    +0.000 N 
ATOM      8  C   UNL     1       1.010   9.196  21.536  0.00  0.00    +0.000 C 
ATOM      9  O   UNL     1       1.961   9.407  22.296  0.00  0.00    +0.000 OA
ATOM     10  H   UNL     1      -1.066   9.275  21.285  0.00  0.00    +0.000 HD
ENDBRANCH   5   8
BRANCH   5  11
ATOM     11  C   UNL     1       1.604   9.742  19.078  0.00  0.00    +0.000 C 
BRANCH  11  12
ATOM     12  C   UNL     1       0.780  11.003  19.140  0.00  0.00    +0.000 A 
ATOM     13  C   UNL     1       1.363  12.195  19.610  0.00  0.00    +0.000 A 
ATOM     14  C   UNL     1       0.609  13.351  19.726  0.00  0.00    +0.000 A 
ATOM     15  C   UNL     1      -0.722  13.359  19.354  0.00  0.00    +0.000 A 
ATOM     16  C   UNL     1      -1.319  12.190  18.849  0.00  0.00    +0.000 A 
ATOM     17  C   UNL     1      -0.561  11.025  18.754  0.00  0.00    +0.000 A 
BRANCH  15  18
ATOM     18  O   UNL     1      -1.498  14.471  19.468  0.00  0.00    +0.000 OA
ATOM     19  H   UNL     1      -2.151  14.317  20.165  0.00  0.00    +0.000 HD
ENDBRANCH  15  18
ENDBRANCH  11  12
ENDBRANCH   5  11
ENDBRANCH   1   5
BRANCH   2  20
ATOM     20  C   UNL     1       3.447   5.651  19.214  0.00  0.00    +0.000 C 
BRANCH  20  21
ATOM     21  C   UNL     1       2.958   4.932  20.500  0.00  0.00    +0.000 C 
BRANCH  21  22
ATOM     22  C   UNL     1       2.258   3.557  20.386  0.00  0.00    +0.000 C 
ATOM     23  C   UNL     1       2.397   2.656  21.615  0.00  0.00    +0.000 C 
ATOM     24  C   UNL     1       0.753   3.769  20.121  0.00  0.00    +0.000 C 
ENDBRANCH  21  22
ENDBRANCH  20  21
BRANCH  20  25
ATOM     25  C   UNL     1       3.394   4.798  17.910  0.00  0.00    +0.000 C 
BRANCH  25  26
ATOM     26  P   UNL     1       5.018   4.631  17.082  0.00  0.00    +0.000 P 
ATOM     27  O   UNL     1       4.757   5.967  16.371  0.00  0.00    +0.000 OA
BRANCH  26  28
ATOM     28  O   UNL     1       5.721   4.878  18.553  0.00  0.00    +0.000 OA
ATOM     29  H   UNL     1       6.579   5.355  18.610  0.00  0.00    +0.000 HD
ENDBRANCH  26  28
BRANCH  26  30
ATOM     30  C   UNL     1       6.641   4.463  16.254  0.00  0.00    +0.000 C 
BRANCH  30  31
ATOM     31  C   UNL     1       6.604   4.539  14.726  0.00  0.00    +0.000 A 
ATOM     32  C   UNL     1       5.816   3.634  13.997  0.00  0.00    +0.000 A 
ATOM     33  C   UNL     1       6.045   3.438  12.632  0.00  0.00    +0.000 A 
ATOM     34  C   UNL     1       7.027   4.176  11.976  0.00  0.00    +0.000 A 
ATOM     35  C   UNL     1       7.763   5.131  12.675  0.00  0.00    +0.000 A 
ATOM     36  C   UNL     1       7.552   5.311  14.045  0.00  0.00    +0.000 A 
ENDBRANCH  30  31
ENDBRANCH  26  30
ENDBRANCH  25  26
ENDBRANCH  20  25
ENDBRANCH   2  20
TORSDOF 13
ENDMDL
MODEL 2
REMARK VINA RESULT:      -7.3      3.116      9.836
REMARK  Name = 
REMARK  16 active torsions:
REMARK  status: ('A' for Active; 'I' for Inactive)
REMARK    1  A    between atoms: C_1  and  N_2
REMARK    2  A    between atoms: C_3  and  C_5
REMARK    3  A    between atoms: C_5  and  C_6
REMARK    4  A    between atoms: C_5  and  N_14
REMARK    5  A    between atoms: C_6  and  C_7
REMARK    6  A    between atoms: C_10  and  O_11
REMARK    7  A    between atoms: C_15  and  C_17
REMARK    8  A    between atoms: C_17  and  C_18
REMARK    9  A    between atoms: C_17  and  C_22
REMARK   10  A    between atoms: C_18  and  C_19
REMARK   11  A    between atoms: C_19  and  C_20
REMARK   12  A    between atoms: C_19  and  C_21
REMARK   13  A    between atoms: C_22  and  P_23
REMARK   14  A    between atoms: P_23  and  O_25
REMARK   15  A    between atoms: P_23  and  C_26
REMARK   16  A    between atoms: C_26  and  C_27
REMARK                            x       y       z     vdW  Elec       q    Type
REMARK                         _______ _______ _______ _____ _____    ______ ____
ROOT
ATOM      1  N   UNL     1       1.628   8.066  19.201  0.00  0.00    +0.000 N 
ATOM      2  C   UNL     1       1.218   8.586  20.401  0.00  0.00    +0.000 C 
ATOM      3  O   UNL     1       1.787   8.311  21.465  0.00  0.00    +0.000 OA
ATOM      4  H   UNL     1       1.171   8.330  18.333  0.00  0.00    +0.000 HD
ENDROOT
BRANCH   1   5
ATOM      5  C   UNL     1       2.706   7.071  19.086  0.00  0.00    +0.000 C 
BRANCH   5   8
ATOM      6  C   UNL     1       1.319   3.570  18.309  0.00  0.00    +0.000 C 
ATOM      7  N   UNL     1       1.760   4.940  18.221  0.00  0.00    +0.000 N 
ATOM      8  C   UNL     1       2.133   5.664  19.348  0.00  0.00    +0.000 C 
ATOM      9  O   UNL     1       2.054   5.183  20.484  0.00  0.00    +0.000 OA
ATOM     10  H   UNL     1       1.756   5.380  17.310  0.00  0.00    +0.000 HD
ENDBRANCH   5   8
BRANCH   5  11
ATOM     11  C   UNL     1       3.517   7.183  17.777  0.00  0.00    +0.000 C 
BRANCH  11  12
ATOM     12  C   UNL     1       4.750   6.316  17.724  0.00  0.00    +0.000 A 
ATOM     13  C   UNL     1       5.357   5.891  18.921  0.00  0.00    +0.000 A 
ATOM     14  C   UNL     1       6.520   5.140  18.894  0.00  0.00    +0.000 A 
ATOM     15  C   UNL     1       7.088   4.773  17.689  0.00  0.00    +0.000 A 
ATOM     16  C   UNL     1       6.483   5.155  16.480  0.00  0.00    +0.000 A 
ATOM     17  C   UNL     1       5.323   5.928  16.512  0.00  0.00    +0.000 A 
BRANCH  15  18
ATOM     18  O   UNL     1       8.238   4.049  17.624  0.00  0.00    +0.000 OA
ATOM     19  H   UNL     1       8.716   4.307  16.823  0.00  0.00    +0.000 HD
ENDBRANCH  15  18
ENDBRANCH  11  12
ENDBRANCH   5  11
ENDBRANCH   1   5
BRANCH   2  20
ATOM     20  C   UNL     1       0.034   9.553  20.344  0.00  0.00    +0.000 C 
BRANCH  20  21
ATOM     21  C   UNL     1      -0.025  10.317  21.695  0.00  0.00    +0.000 C 
BRANCH  21  22
ATOM     22  C   UNL     1      -0.972  11.532  21.842  0.00  0.00    +0.000 C 
ATOM     23  C   UNL     1      -1.813  11.544  23.121  0.00  0.00    +0.000 C 
ATOM     24  C   UNL     1      -0.145  12.834  21.806  0.00  0.00    +0.000 C 
ENDBRANCH  21  22
ENDBRANCH  20  21
BRANCH  20  25
ATOM     25  C   UNL     1       0.213  10.446  19.078  0.00  0.00    +0.000 C 
BRANCH  25  26
ATOM     26  P   UNL     1      -1.371  10.998  18.346  0.00  0.00    +0.000 P 
ATOM     27  O   UNL     1      -0.761  12.395  18.159  0.00  0.00    +0.000 OA
BRANCH  26  28
ATOM     28  O   UNL     1      -1.034  10.034  17.051  0.00  0.00    +0.000 OA
ATOM     29  H   UNL     1      -0.200  10.166  16.547  0.00  0.00    +0.000 HD
ENDBRANCH  26  28
BRANCH  26  30
ATOM     30  C   UNL     1      -2.956  11.549  17.615  0.00  0.00    +0.000 C 
BRANCH  30  31
ATOM     31  C   UNL     1      -4.167  11.464  18.546  0.00  0.00    +0.000 A 
ATOM     32  C   UNL     1      -5.315  10.764  18.143  0.00  0.00    +0.000 A 
ATOM     33  C   UNL     1      -6.536  10.978  18.789  0.00  0.00    +0.000 A 
ATOM     34  C   UNL     1      -6.610  11.853  19.869  0.00  0.00    +0.000 A 
ATOM     35  C   UNL     1      -5.460  12.496  20.324  0.00  0.00    +0.000 A 
ATOM     36  C   UNL     1      -4.243  12.301  19.665  0.00  0.00    +0.000 A 
ENDBRANCH  30  31
ENDBRANCH  26  30
ENDBRANCH  25  26
ENDBRANCH  20  25
ENDBRANCH   2  20
TORSDOF 13
ENDMDL
MODEL 3
REMARK VINA RESULT:      -7.3      3.280      9.146
REMARK  Name = 
REMARK  16 active torsions:
REMARK  status: ('A' for Active; 'I' for Inactive)
REMARK    1  A    between atoms: C_1  and  N_2
REMARK    2  A    between atoms: C_3  and  C_5
REMARK    3  A    between atoms: C_5  and  C_6
REMARK    4  A    between atoms: C_5  and  N_14
REMARK    5  A    between atoms: C_6  and  C_7
REMARK    6  A    between atoms: C_10  and  O_11
REMARK    7  A    between atoms: C_15  and  C_17
REMARK    8  A    between atoms: C_17  and  C_18
REMARK    9  A    between atoms: C_17  and  C_22
REMARK   10  A    between atoms: C_18  and  C_19
REMARK   11  A    between atoms: C_19  and  C_20
REMARK   12  A    between atoms: C_19  and  C_21
REMARK   13  A    between atoms: C_22  and  P_23
REMARK   14  A    between atoms: P_23  and  O_25
REMARK   15  A    between atoms: P_23  and  C_26
REMARK   16  A    between atoms: C_26  and  C_27
REMARK                            x       y       z     vdW  Elec       q    Type
REMARK                         _______ _______ _______ _____ _____    ______ ____
ROOT
ATOM      1  N   UNL     1       2.838   6.744  18.539  0.00  0.00    +0.000 N 
ATOM      2  C   UNL     1       2.342   7.968  18.170  0.00  0.00    +0.000 C 
ATOM      3  O   UNL     1       2.510   8.429  17.034  0.00  0.00    +0.000 OA
ATOM      4  H   UNL     1       2.660   6.365  19.464  0.00  0.00    +0.000 HD
ENDROOT
BRANCH   1   5
ATOM      5  C   UNL     1       3.685   5.925  17.658  0.00  0.00    +0.000 C 
BRANCH   5   8
ATOM      6  C   UNL     1       7.241   7.372  17.426  0.00  0.00    +0.000 C 
ATOM      7  N   UNL     1       5.882   6.977  17.151  0.00  0.00    +0.000 N 
ATOM      8  C   UNL     1       5.168   6.156  18.017  0.00  0.00    +0.000 C 
ATOM      9  O   UNL     1       5.682   5.684  19.037  0.00  0.00    +0.000 OA
ATOM     10  H   UNL     1       5.466   7.285  16.282  0.00  0.00    +0.000 HD
ENDBRANCH   5   8
BRANCH   5  11
ATOM     11  C   UNL     1       3.277   4.437  17.611  0.00  0.00    +0.000 C 
BRANCH  11  12
ATOM     12  C   UNL     1       2.711   3.898  18.901  0.00  0.00    +0.000 A 
ATOM     13  C   UNL     1       3.560   3.259  19.824  0.00  0.00    +0.000 A 
ATOM     14  C   UNL     1       3.050   2.709  20.988  0.00  0.00    +0.000 A 
ATOM     15  C   UNL     1       1.702   2.805  21.274  0.00  0.00    +0.000 A 
ATOM     16  C   UNL     1       0.838   3.467  20.385  0.00  0.00    +0.000 A 
ATOM     17  C   UNL     1       1.353   4.001  19.206  0.00  0.00    +0.000 A 
BRANCH  15  18
ATOM     18  O   UNL     1       1.162   2.264  22.401  0.00  0.00    +0.000 OA
ATOM     19  H   UNL     1       1.302   2.881  23.132  0.00  0.00    +0.000 HD
ENDBRANCH  15  18
ENDBRANCH  11  12
ENDBRANCH   5  11
ENDBRANCH   1   5
BRANCH   2  20
ATOM     20  C   UNL     1       1.540   8.716  19.236  0.00  0.00    +0.000 C 
BRANCH  20  21
ATOM     21  C   UNL     1       1.700   7.953  20.579  0.00  0.00    +0.000 C 
BRANCH  21  22
ATOM     22  C   UNL     1       0.788   8.315  21.775  0.00  0.00    +0.000 C 
ATOM     23  C   UNL     1       1.306   9.448  22.664  0.00  0.00    +0.000 C 
ATOM     24  C   UNL     1      -0.605   8.721  21.252  0.00  0.00    +0.000 C 
ENDBRANCH  21  22
ENDBRANCH  20  21
BRANCH  20  25
ATOM     25  C   UNL     1       2.032  10.196  19.246  0.00  0.00    +0.000 C 
BRANCH  25  26
ATOM     26  P   UNL     1       0.715  11.404  18.851  0.00  0.00    +0.000 P 
ATOM     27  O   UNL     1       1.797  12.372  18.350  0.00  0.00    +0.000 OA
BRANCH  26  28
ATOM     28  O   UNL     1       0.235  10.388  17.644  0.00  0.00    +0.000 OA
ATOM     29  H   UNL     1      -0.491   9.744  17.807  0.00  0.00    +0.000 HD
ENDBRANCH  26  28
BRANCH  26  30
ATOM     30  C   UNL     1      -0.602  12.612  18.456  0.00  0.00    +0.000 C 
BRANCH  30  31
ATOM     31  C   UNL     1      -1.994  12.250  18.977  0.00  0.00    +0.000 A 
ATOM     32  C   UNL     1      -2.907  11.587  18.140  0.00  0.00    +0.000 A 
ATOM     33  C   UNL     1      -4.270  11.578  18.448  0.00  0.00    +0.000 A 
ATOM     34  C   UNL     1      -4.726  12.188  19.614  0.00  0.00    +0.000 A 
ATOM     35  C   UNL     1      -3.819  12.783  20.488  0.00  0.00    +0.000 A 
ATOM     36  C   UNL     1      -2.458  12.814  20.171  0.00  0.00    +0.000 A 
ENDBRANCH  30  31
ENDBRANCH  26  30
ENDBRANCH  25  26
ENDBRANCH  20  25
ENDBRANCH   2  20
TORSDOF 13
ENDMDL
MODEL 4
REMARK VINA RESULT:      -7.2      3.062     10.187
REMARK  Name = 
REMARK  16 active torsions:
REMARK  status: ('A' for Active; 'I' for Inactive)
REMARK    1  A    between atoms: C_1  and  N_2
REMARK    2  A    between atoms: C_3  and  C_5
REMARK    3  A    between atoms: C_5  and  C_6
REMARK    4  A    between atoms: C_5  and  N_14
REMARK    5  A    between atoms: C_6  and  C_7
REMARK    6  A    between atoms: C_10  and  O_11
REMARK    7  A    between atoms: C_15  and  C_17
REMARK    8  A    between atoms: C_17  and  C_18
REMARK    9  A    between atoms: C_17  and  C_22
REMARK   10  A    between atoms: C_18  and  C_19
REMARK   11  A    between atoms: C_19  and  C_20
REMARK   12  A    between atoms: C_19  and  C_21
REMARK   13  A    between atoms: C_22  and  P_23
REMARK   14  A    between atoms: P_23  and  O_25
REMARK   15  A    between atoms: P_23  and  C_26
REMARK   16  A    between atoms: C_26  and  C_27
REMARK                            x       y       z     vdW  Elec       q    Type
REMARK                         _______ _______ _______ _____ _____    ______ ____
ROOT
ATOM      1  N   UNL     1       1.566   8.037  18.781  0.00  0.00    +0.000 N 
ATOM      2  C   UNL     1       1.509   9.314  18.287  0.00  0.00    +0.000 C 
ATOM      3  O   UNL     1       2.461   9.829  17.685  0.00  0.00    +0.000 OA
ATOM      4  H   UNL     1       0.763   7.618  19.241  0.00  0.00    +0.000 HD
ENDROOT
BRANCH   1   5
ATOM      5  C   UNL     1       2.782   7.210  18.724  0.00  0.00    +0.000 C 
BRANCH   5   8
ATOM      6  C   UNL     1       2.301   4.346  21.246  0.00  0.00    +0.000 C 
ATOM      7  N   UNL     1       2.668   5.583  20.603  0.00  0.00    +0.000 N 
ATOM      8  C   UNL     1       2.461   5.793  19.244  0.00  0.00    +0.000 C 
ATOM      9  O   UNL     1       2.000   4.909  18.513  0.00  0.00    +0.000 OA
ATOM     10  H   UNL     1       3.121   6.292  21.165  0.00  0.00    +0.000 HD
ENDBRANCH   5   8
BRANCH   5  11
ATOM     11  C   UNL     1       3.482   7.228  17.348  0.00  0.00    +0.000 C 
BRANCH  11  12
ATOM     12  C   UNL     1       4.751   6.417  17.277  0.00  0.00    +0.000 A 
ATOM     13  C   UNL     1       4.936   5.499  16.226  0.00  0.00    +0.000 A 
ATOM     14  C   UNL     1       6.070   4.706  16.173  0.00  0.00    +0.000 A 
ATOM     15  C   UNL     1       7.051   4.823  17.138  0.00  0.00    +0.000 A 
ATOM     16  C   UNL     1       6.907   5.756  18.180  0.00  0.00    +0.000 A 
ATOM     17  C   UNL     1       5.755   6.538  18.240  0.00  0.00    +0.000 A 
BRANCH  15  18
ATOM     18  O   UNL     1       8.172   4.051  17.128  0.00  0.00    +0.000 OA
ATOM     19  H   UNL     1       8.756   4.352  17.838  0.00  0.00    +0.000 HD
ENDBRANCH  15  18
ENDBRANCH  11  12
ENDBRANCH   5  11
ENDBRANCH   1   5
BRANCH   2  20
ATOM     20  C   UNL     1       0.189  10.057  18.496  0.00  0.00    +0.000 C 
BRANCH  20  21
ATOM     21  C   UNL     1      -0.820   9.548  17.430  0.00  0.00    +0.000 C 
BRANCH  21  22
ATOM     22  C   UNL     1      -2.103  10.364  17.144  0.00  0.00    +0.000 C 
ATOM     23  C   UNL     1      -3.365   9.850  17.840  0.00  0.00    +0.000 C 
ATOM     24  C   UNL     1      -1.886  11.828  17.578  0.00  0.00    +0.000 C 
ENDBRANCH  21  22
ENDBRANCH  20  21
BRANCH  20  25
ATOM     25  C   UNL     1      -0.243   9.845  19.980  0.00  0.00    +0.000 C 
BRANCH  25  26
ATOM     26  P   UNL     1      -0.208  11.382  20.974  0.00  0.00    +0.000 P 
ATOM     27  O   UNL     1       0.739  10.684  21.961  0.00  0.00    +0.000 OA
BRANCH  26  28
ATOM     28  O   UNL     1       0.639  12.082  19.745  0.00  0.00    +0.000 OA
ATOM     29  H   UNL     1       1.150  12.906  19.911  0.00  0.00    +0.000 HD
ENDBRANCH  26  28
BRANCH  26  30
ATOM     30  C   UNL     1      -0.175  12.918  21.968  0.00  0.00    +0.000 C 
BRANCH  30  31
ATOM     31  C   UNL     1      -1.285  13.040  23.014  0.00  0.00    +0.000 A 
ATOM     32  C   UNL     1      -2.334  12.109  23.038  0.00  0.00    +0.000 A 
ATOM     33  C   UNL     1      -3.522  12.400  23.715  0.00  0.00    +0.000 A 
ATOM     34  C   UNL     1      -3.653  13.598  24.412  0.00  0.00    +0.000 A 
ATOM     35  C   UNL     1      -2.588  14.496  24.457  0.00  0.00    +0.000 A 
ATOM     36  C   UNL     1      -1.408  14.218  23.761  0.00  0.00    +0.000 A 
ENDBRANCH  30  31
ENDBRANCH  26  30
ENDBRANCH  25  26
ENDBRANCH  20  25
ENDBRANCH   2  20
TORSDOF 13
ENDMDL
MODEL 5
REMARK VINA RESULT:      -7.2      3.023      9.760
REMARK  Name = 
REMARK  16 active torsions:
REMARK  status: ('A' for Active; 'I' for Inactive)
REMARK    1  A    between atoms: C_1  and  N_2
REMARK    2  A    between atoms: C_3  and  C_5
REMARK    3  A    between atoms: C_5  and  C_6
REMARK    4  A    between atoms: C_5  and  N_14
REMARK    5  A    between atoms: C_6  and  C_7
REMARK    6  A    between atoms: C_10  and  O_11
REMARK    7  A    between atoms: C_15  and  C_17
REMARK    8  A    between atoms: C_17  and  C_18
REMARK    9  A    between atoms: C_17  and  C_22
REMARK   10  A    between atoms: C_18  and  C_19
REMARK   11  A    between atoms: C_19  and  C_20
REMARK   12  A    between atoms: C_19  and  C_21
REMARK   13  A    between atoms: C_22  and  P_23
REMARK   14  A    between atoms: P_23  and  O_25
REMARK   15  A    between atoms: P_23  and  C_26
REMARK   16  A    between atoms: C_26  and  C_27
REMARK                            x       y       z     vdW  Elec       q    Type
REMARK                         _______ _______ _______ _____ _____    ______ ____
ROOT
ATOM      1  N   UNL     1       2.527   7.585  18.815  0.00  0.00    +0.000 N 
ATOM      2  C   UNL     1       1.713   8.639  18.489  0.00  0.00    +0.000 C 
ATOM      3  O   UNL     1       1.195   8.748  17.370  0.00  0.00    +0.000 OA
ATOM      4  H   UNL     1       2.915   7.493  19.749  0.00  0.00    +0.000 HD
ENDROOT
BRANCH   1   5
ATOM      5  C   UNL     1       2.929   6.555  17.844  0.00  0.00    +0.000 C 
BRANCH   5   8
ATOM      6  C   UNL     1       6.636   5.817  17.135  0.00  0.00    +0.000 C 
ATOM      7  N   UNL     1       5.224   6.081  17.010  0.00  0.00    +0.000 N 
ATOM      8  C   UNL     1       4.388   6.135  18.120  0.00  0.00    +0.000 C 
ATOM      9  O   UNL     1       4.806   5.908  19.260  0.00  0.00    +0.000 OA
ATOM     10  H   UNL     1       4.844   6.190  16.079  0.00  0.00    +0.000 HD
ENDBRANCH   5   8
BRANCH   5  11
ATOM     11  C   UNL     1       1.943   5.370  17.752  0.00  0.00    +0.000 C 
BRANCH  11  12
ATOM     12  C   UNL     1       1.921   4.474  18.964  0.00  0.00    +0.000 A 
ATOM     13  C   UNL     1       2.076   3.084  18.808  0.00  0.00    +0.000 A 
ATOM     14  C   UNL     1       2.003   2.239  19.903  0.00  0.00    +0.000 A 
ATOM     15  C   UNL     1       1.804   2.751  21.170  0.00  0.00    +0.000 A 
ATOM     16  C   UNL     1       1.680   4.139  21.358  0.00  0.00    +0.000 A 
ATOM     17  C   UNL     1       1.734   4.983  20.250  0.00  0.00    +0.000 A 
BRANCH  15  18
ATOM     18  O   UNL     1       1.712   1.951  22.267  0.00  0.00    +0.000 OA
ATOM     19  H   UNL     1       1.130   2.380  22.910  0.00  0.00    +0.000 HD
ENDBRANCH  15  18
ENDBRANCH  11  12
ENDBRANCH   5  11
ENDBRANCH   1   5
BRANCH   2  20
ATOM     20  C   UNL     1       1.457   9.657  19.601  0.00  0.00    +0.000 C 
BRANCH  20  21
ATOM     21  C   UNL     1       0.322  10.607  19.129  0.00  0.00    +0.000 C 
BRANCH  21  22
ATOM     22  C   UNL     1       0.538  12.138  19.179  0.00  0.00    +0.000 C 
ATOM     23  C   UNL     1       1.909  12.613  18.693  0.00  0.00    +0.000 C 
ATOM     24  C   UNL     1      -0.537  12.836  18.322  0.00  0.00    +0.000 C 
ENDBRANCH  21  22
ENDBRANCH  20  21
BRANCH  20  25
ATOM     25  C   UNL     1       1.162   8.863  20.911  0.00  0.00    +0.000 C 
BRANCH  25  26
ATOM     26  P   UNL     1       0.023   9.733  22.049  0.00  0.00    +0.000 P 
ATOM     27  O   UNL     1      -0.859   8.476  22.076  0.00  0.00    +0.000 OA
BRANCH  26  28
ATOM     28  O   UNL     1       1.205   9.644  23.197  0.00  0.00    +0.000 OA
ATOM     29  H   UNL     1       1.947  10.289  23.185  0.00  0.00    +0.000 HD
ENDBRANCH  26  28
BRANCH  26  30
ATOM     30  C   UNL     1      -1.115  10.604  23.187  0.00  0.00    +0.000 C 
BRANCH  30  31
ATOM     31  C   UNL     1      -1.528  12.010  22.746  0.00  0.00    +0.000 A 
ATOM     32  C   UNL     1      -2.790  12.223  22.169  0.00  0.00    +0.000 A 
ATOM     33  C   UNL     1      -3.044  13.385  21.434  0.00  0.00    +0.000 A 
ATOM     34  C   UNL     1      -2.059  14.361  21.311  0.00  0.00    +0.000 A 
ATOM     35  C   UNL     1      -0.829  14.192  21.943  0.00  0.00    +0.000 A 
ATOM     36  C   UNL     1      -0.564  13.021  22.658  0.00  0.00    +0.000 A 
ENDBRANCH  30  31
ENDBRANCH  26  30
ENDBRANCH  25  26
ENDBRANCH  20  25
ENDBRANCH   2  20
TORSDOF 13
ENDMDL
MODEL 6
REMARK VINA RESULT:      -7.2      2.699      6.468
REMARK  Name = 
REMARK  16 active torsions:
REMARK  status: ('A' for Active; 'I' for Inactive)
REMARK    1  A    between atoms: C_1  and  N_2
REMARK    2  A    between atoms: C_3  and  C_5
REMARK    3  A    between atoms: C_5  and  C_6
REMARK    4  A    between atoms: C_5  and  N_14
REMARK    5  A    between atoms: C_6  and  C_7
REMARK    6  A    between atoms: C_10  and  O_11
REMARK    7  A    between atoms: C_15  and  C_17
REMARK    8  A    between atoms: C_17  and  C_18
REMARK    9  A    between atoms: C_17  and  C_22
REMARK   10  A    between atoms: C_18  and  C_19
REMARK   11  A    between atoms: C_19  and  C_20
REMARK   12  A    between atoms: C_19  and  C_21
REMARK   13  A    between atoms: C_22  and  P_23
REMARK   14  A    between atoms: P_23  and  O_25
REMARK   15  A    between atoms: P_23  and  C_26
REMARK   16  A    between atoms: C_26  and  C_27
REMARK                            x       y       z     vdW  Elec       q    Type
REMARK                         _______ _______ _______ _____ _____    ______ ____
ROOT
ATOM      1  N   UNL     1       3.743   6.448  18.316  0.00  0.00    +0.000 N 
ATOM      2  C   UNL     1       5.036   6.033  18.505  0.00  0.00    +0.000 C 
ATOM      3  O   UNL     1       5.435   5.600  19.593  0.00  0.00    +0.000 OA
ATOM      4  H   UNL     1       3.424   6.768  17.406  0.00  0.00    +0.000 HD
ENDROOT
BRANCH   1   5
ATOM      5  C   UNL     1       2.754   6.504  19.403  0.00  0.00    +0.000 C 
BRANCH   5   8
ATOM      6  C   UNL     1       1.469   9.870  18.059  0.00  0.00    +0.000 C 
ATOM      7  N   UNL     1       2.148   8.609  18.225  0.00  0.00    +0.000 N 
ATOM      8  C   UNL     1       2.087   7.895  19.417  0.00  0.00    +0.000 C 
ATOM      9  O   UNL     1       1.490   8.332  20.406  0.00  0.00    +0.000 OA
ATOM     10  H   UNL     1       2.710   8.270  17.455  0.00  0.00    +0.000 HD
ENDBRANCH   5   8
BRANCH   5  11
ATOM     11  C   UNL     1       1.751   5.329  19.392  0.00  0.00    +0.000 C 
BRANCH  11  12
ATOM     12  C   UNL     1       2.362   3.984  19.090  0.00  0.00    +0.000 A 
ATOM     13  C   UNL     1       3.139   3.334  20.066  0.00  0.00    +0.000 A 
ATOM     14  C   UNL     1       3.753   2.124  19.788  0.00  0.00    +0.000 A 
ATOM     15  C   UNL     1       3.589   1.522  18.556  0.00  0.00    +0.000 A 
ATOM     16  C   UNL     1       2.789   2.134  17.575  0.00  0.00    +0.000 A 
ATOM     17  C   UNL     1       2.190   3.362  17.852  0.00  0.00    +0.000 A 
BRANCH  15  18
ATOM     18  O   UNL     1       4.188   0.342  18.242  0.00  0.00    +0.000 OA
ATOM     19  H   UNL     1       5.131   0.414  18.448  0.00  0.00    +0.000 HD
ENDBRANCH  15  18
ENDBRANCH  11  12
ENDBRANCH   5  11
ENDBRANCH   1   5
BRANCH   2  20
ATOM     20  C   UNL     1       5.951   6.109  17.281  0.00  0.00    +0.000 C 
BRANCH  20  21
ATOM     21  C   UNL     1       7.383   6.452  17.774  0.00  0.00    +0.000 C 
BRANCH  21  22
ATOM     22  C   UNL     1       7.920   7.894  17.611  0.00  0.00    +0.000 C 
ATOM     23  C   UNL     1       6.851   8.954  17.334  0.00  0.00    +0.000 C 
ATOM     24  C   UNL     1       8.676   8.306  18.890  0.00  0.00    +0.000 C 
ENDBRANCH  21  22
ENDBRANCH  20  21
BRANCH  20  25
ATOM     25  C   UNL     1       5.815   4.762  16.506  0.00  0.00    +0.000 C 
BRANCH  25  26
ATOM     26  P   UNL     1       6.421   4.851  14.781  0.00  0.00    +0.000 P 
ATOM     27  O   UNL     1       7.781   5.324  15.317  0.00  0.00    +0.000 OA
BRANCH  26  28
ATOM     28  O   UNL     1       6.349   3.203  14.739  0.00  0.00    +0.000 OA
ATOM     29  H   UNL     1       5.485   2.756  14.595  0.00  0.00    +0.000 HD
ENDBRANCH  26  28
BRANCH  26  30
ATOM     30  C   UNL     1       7.026   4.940  13.056  0.00  0.00    +0.000 C 
BRANCH  30  31
ATOM     31  C   UNL     1       6.561   3.803  12.143  0.00  0.00    +0.000 A 
ATOM     32  C   UNL     1       5.191   3.546  11.983  0.00  0.00    +0.000 A 
ATOM     33  C   UNL     1       4.757   2.319  11.473  0.00  0.00    +0.000 A 
ATOM     34  C   UNL     1       5.685   1.362  11.074  0.00  0.00    +0.000 A 
ATOM     35  C   UNL     1       7.049   1.637  11.159  0.00  0.00    +0.000 A 
ATOM     36  C   UNL     1       7.485   2.853  11.692  0.00  0.00    +0.000 A 
ENDBRANCH  30  31
ENDBRANCH  26  30
ENDBRANCH  25  26
ENDBRANCH  20  25
ENDBRANCH   2  20
TORSDOF 13
ENDMDL
MODEL 7
REMARK VINA RESULT:      -7.2      4.349      7.621
REMARK  Name = 
REMARK  16 active torsions:
REMARK  status: ('A' for Active; 'I' for Inactive)
REMARK    1  A    between atoms: C_1  and  N_2
REMARK    2  A    between atoms: C_3  and  C_5
REMARK    3  A    between atoms: C_5  and  C_6
REMARK    4  A    between atoms: C_5  and  N_14
REMARK    5  A    between atoms: C_6  and  C_7
REMARK    6  A    between atoms: C_10  and  O_11
REMARK    7  A    between atoms: C_15  and  C_17
REMARK    8  A    between atoms: C_17  and  C_18
REMARK    9  A    between atoms: C_17  and  C_22
REMARK   10  A    between atoms: C_18  and  C_19
REMARK   11  A    between atoms: C_19  and  C_20
REMARK   12  A    between atoms: C_19  and  C_21
REMARK   13  A    between atoms: C_22  and  P_23
REMARK   14  A    between atoms: P_23  and  O_25
REMARK   15  A    between atoms: P_23  and  C_26
REMARK   16  A    between atoms: C_26  and  C_27
REMARK                            x       y       z     vdW  Elec       q    Type
REMARK                         _______ _______ _______ _____ _____    ______ ____
ROOT
ATOM      1  N   UNL     1       5.045   6.113  17.586  0.00  0.00    +0.000 N 
ATOM      2  C   UNL     1       6.217   5.670  18.143  0.00  0.00    +0.000 C 
ATOM      3  O   UNL     1       6.254   5.136  19.258  0.00  0.00    +0.000 OA
ATOM      4  H   UNL     1       5.028   6.517  16.654  0.00  0.00    +0.000 HD
ENDROOT
BRANCH   1   5
ATOM      5  C   UNL     1       3.758   6.080  18.298  0.00  0.00    +0.000 C 
BRANCH   5   8
ATOM      6  C   UNL     1       1.504   9.106  19.042  0.00  0.00    +0.000 C 
ATOM      7  N   UNL     1       2.178   7.831  19.086  0.00  0.00    +0.000 N 
ATOM      8  C   UNL     1       3.004   7.403  18.053  0.00  0.00    +0.000 C 
ATOM      9  O   UNL     1       3.159   8.072  17.026  0.00  0.00    +0.000 OA
ATOM     10  H   UNL     1       2.002   7.231  19.882  0.00  0.00    +0.000 HD
ENDBRANCH   5   8
BRANCH   5  11
ATOM     11  C   UNL     1       2.918   4.818  18.005  0.00  0.00    +0.000 C 
BRANCH  11  12
ATOM     12  C   UNL     1       2.440   4.081  19.231  0.00  0.00    +0.000 A 
ATOM     13  C   UNL     1       3.366   3.391  20.036  0.00  0.00    +0.000 A 
ATOM     14  C   UNL     1       2.940   2.663  21.135  0.00  0.00    +0.000 A 
ATOM     15  C   UNL     1       1.601   2.626  21.473  0.00  0.00    +0.000 A 
ATOM     16  C   UNL     1       0.661   3.334  20.706  0.00  0.00    +0.000 A 
ATOM     17  C   UNL     1       1.092   4.049  19.589  0.00  0.00    +0.000 A 
BRANCH  15  18
ATOM     18  O   UNL     1       1.144   1.909  22.536  0.00  0.00    +0.000 OA
ATOM     19  H   UNL     1       1.899   1.476  22.959  0.00  0.00    +0.000 HD
ENDBRANCH  15  18
ENDBRANCH  11  12
ENDBRANCH   5  11
ENDBRANCH   1   5
BRANCH   2  20
ATOM     20  C   UNL     1       7.474   5.847  17.289  0.00  0.00    +0.000 C 
BRANCH  20  21
ATOM     21  C   UNL     1       7.493   4.716  16.225  0.00  0.00    +0.000 C 
BRANCH  21  22
ATOM     22  C   UNL     1       6.791   4.938  14.864  0.00  0.00    +0.000 C 
ATOM     23  C   UNL     1       7.731   5.051  13.662  0.00  0.00    +0.000 C 
ATOM     24  C   UNL     1       5.815   3.774  14.595  0.00  0.00    +0.000 C 
ENDBRANCH  21  22
ENDBRANCH  20  21
BRANCH  20  25
ATOM     25  C   UNL     1       7.460   7.299  16.721  0.00  0.00    +0.000 C 
BRANCH  25  26
ATOM     26  P   UNL     1       8.282   8.517  17.813  0.00  0.00    +0.000 P 
ATOM     27  O   UNL     1       6.929   9.219  17.996  0.00  0.00    +0.000 OA
BRANCH  26  28
ATOM     28  O   UNL     1       8.467   7.305  18.917  0.00  0.00    +0.000 OA
ATOM     29  H   UNL     1       8.429   6.368  18.623  0.00  0.00    +0.000 HD
ENDBRANCH  26  28
BRANCH  26  30
ATOM     30  C   UNL     1       9.106   9.734  18.903  0.00  0.00    +0.000 C 
BRANCH  30  31
ATOM     31  C   UNL     1       9.595  11.005  18.207  0.00  0.00    +0.000 A 
ATOM     32  C   UNL     1      10.969  11.286  18.142  0.00  0.00    +0.000 A 
ATOM     33  C   UNL     1      11.413  12.581  17.857  0.00  0.00    +0.000 A 
ATOM     34  C   UNL     1      10.493  13.590  17.586  0.00  0.00    +0.000 A 
ATOM     35  C   UNL     1       9.129  13.303  17.574  0.00  0.00    +0.000 A 
ATOM     36  C   UNL     1       8.682  12.016  17.883  0.00  0.00    +0.000 A 
ENDBRANCH  30  31
ENDBRANCH  26  30
ENDBRANCH  25  26
ENDBRANCH  20  25
ENDBRANCH   2  20
TORSDOF 13
ENDMDL
MODEL 8
REMARK VINA RESULT:      -7.1      3.254     10.370
REMARK  Name = 
REMARK  16 active torsions:
REMARK  status: ('A' for Active; 'I' for Inactive)
REMARK    1  A    between atoms: C_1  and  N_2
REMARK    2  A    between atoms: C_3  and  C_5
REMARK    3  A    between atoms: C_5  and  C_6
REMARK    4  A    between atoms: C_5  and  N_14
REMARK    5  A    between atoms: C_6  and  C_7
REMARK    6  A    between atoms: C_10  and  O_11
REMARK    7  A    between atoms: C_15  and  C_17
REMARK    8  A    between atoms: C_17  and  C_18
REMARK    9  A    between atoms: C_17  and  C_22
REMARK   10  A    between atoms: C_18  and  C_19
REMARK   11  A    between atoms: C_19  and  C_20
REMARK   12  A    between atoms: C_19  and  C_21
REMARK   13  A    between atoms: C_22  and  P_23
REMARK   14  A    between atoms: P_23  and  O_25
REMARK   15  A    between atoms: P_23  and  C_26
REMARK   16  A    between atoms: C_26  and  C_27
REMARK                            x       y       z     vdW  Elec       q    Type
REMARK                         _______ _______ _______ _____ _____    ______ ____
ROOT
ATOM      1  N   UNL     1       1.532   8.105  18.744  0.00  0.00    +0.000 N 
ATOM      2  C   UNL     1       1.488   9.399  18.293  0.00  0.00    +0.000 C 
ATOM      3  O   UNL     1       2.434   9.916  17.685  0.00  0.00    +0.000 OA
ATOM      4  H   UNL     1       0.733   7.686  19.210  0.00  0.00    +0.000 HD
ENDROOT
BRANCH   1   5
ATOM      5  C   UNL     1       2.730   7.259  18.631  0.00  0.00    +0.000 C 
BRANCH   5   8
ATOM      6  C   UNL     1       2.375   4.429  21.211  0.00  0.00    +0.000 C 
ATOM      7  N   UNL     1       2.720   5.653  20.530  0.00  0.00    +0.000 N 
ATOM      8  C   UNL     1       2.418   5.855  19.188  0.00  0.00    +0.000 C 
ATOM      9  O   UNL     1       1.886   4.974  18.502  0.00  0.00    +0.000 OA
ATOM     10  H   UNL     1       3.229   6.356  21.050  0.00  0.00    +0.000 HD
ENDBRANCH   5   8
BRANCH   5  11
ATOM     11  C   UNL     1       3.351   7.247  17.217  0.00  0.00    +0.000 C 
BRANCH  11  12
ATOM     12  C   UNL     1       4.610   6.427  17.090  0.00  0.00    +0.000 A 
ATOM     13  C   UNL     1       5.825   6.930  17.593  0.00  0.00    +0.000 A 
ATOM     14  C   UNL     1       7.002   6.217  17.437  0.00  0.00    +0.000 A 
ATOM     15  C   UNL     1       6.997   4.987  16.809  0.00  0.00    +0.000 A 
ATOM     16  C   UNL     1       5.792   4.447  16.328  0.00  0.00    +0.000 A 
ATOM     17  C   UNL     1       4.613   5.178  16.469  0.00  0.00    +0.000 A 
BRANCH  15  18
ATOM     18  O   UNL     1       8.136   4.265  16.624  0.00  0.00    +0.000 OA
ATOM     19  H   UNL     1       8.535   4.535  15.785  0.00  0.00    +0.000 HD
ENDBRANCH  15  18
ENDBRANCH  11  12
ENDBRANCH   5  11
ENDBRANCH   1   5
BRANCH   2  20
ATOM     20  C   UNL     1       0.187  10.158  18.558  0.00  0.00    +0.000 C 
BRANCH  20  21
ATOM     21  C   UNL     1      -0.893   9.613  17.584  0.00  0.00    +0.000 C 
BRANCH  21  22
ATOM     22  C   UNL     1      -2.001  10.561  17.067  0.00  0.00    +0.000 C 
ATOM     23  C   UNL     1      -2.517  10.245  15.661  0.00  0.00    +0.000 C 
ATOM     24  C   UNL     1      -3.202  10.520  18.034  0.00  0.00    +0.000 C 
ENDBRANCH  21  22
ENDBRANCH  20  21
BRANCH  20  25
ATOM     25  C   UNL     1      -0.146  10.011  20.075  0.00  0.00    +0.000 C 
BRANCH  25  26
ATOM     26  P   UNL     1      -0.940  11.495  20.794  0.00  0.00    +0.000 P 
ATOM     27  O   UNL     1      -0.025  11.352  22.019  0.00  0.00    +0.000 OA
BRANCH  26  28
ATOM     28  O   UNL     1      -0.203  12.382  19.614  0.00  0.00    +0.000 OA
ATOM     29  H   UNL     1      -0.652  12.511  18.749  0.00  0.00    +0.000 HD
ENDBRANCH  26  28
BRANCH  26  30
ATOM     30  C   UNL     1      -1.734  12.979  21.513  0.00  0.00    +0.000 C 
BRANCH  30  31
ATOM     31  C   UNL     1      -3.031  12.715  22.282  0.00  0.00    +0.000 A 
ATOM     32  C   UNL     1      -4.270  12.998  21.687  0.00  0.00    +0.000 A 
ATOM     33  C   UNL     1      -5.420  13.121  22.473  0.00  0.00    +0.000 A 
ATOM     34  C   UNL     1      -5.350  12.915  23.848  0.00  0.00    +0.000 A 
ATOM     35  C   UNL     1      -4.138  12.560  24.437  0.00  0.00    +0.000 A 
ATOM     36  C   UNL     1      -2.983  12.460  23.657  0.00  0.00    +0.000 A 
ENDBRANCH  30  31
ENDBRANCH  26  30
ENDBRANCH  25  26
ENDBRANCH  20  25
ENDBRANCH   2  20
TORSDOF 13
ENDMDL
MODEL 9
REMARK VINA RESULT:      -7.1      3.315      9.748
REMARK  Name = 
REMARK  16 active torsions:
REMARK  status: ('A' for Active; 'I' for Inactive)
REMARK    1  A    between atoms: C_1  and  N_2
REMARK    2  A    between atoms: C_3  and  C_5
REMARK    3  A    between atoms: C_5  and  C_6
REMARK    4  A    between atoms: C_5  and  N_14
REMARK    5  A    between atoms: C_6  and  C_7
REMARK    6  A    between atoms: C_10  and  O_11
REMARK    7  A    between atoms: C_15  and  C_17
REMARK    8  A    between atoms: C_17  and  C_18
REMARK    9  A    between atoms: C_17  and  C_22
REMARK   10  A    between atoms: C_18  and  C_19
REMARK   11  A    between atoms: C_19  and  C_20
REMARK   12  A    between atoms: C_19  and  C_21
REMARK   13  A    between atoms: C_22  and  P_23
REMARK   14  A    between atoms: P_23  and  O_25
REMARK   15  A    between atoms: P_23  and  C_26
REMARK   16  A    between atoms: C_26  and  C_27
REMARK                            x       y       z     vdW  Elec       q    Type
REMARK                         _______ _______ _______ _____ _____    ______ ____
ROOT
ATOM      1  N   UNL     1       1.425   8.041  19.448  0.00  0.00    +0.000 N 
ATOM      2  C   UNL     1       1.296   9.347  19.053  0.00  0.00    +0.000 C 
ATOM      3  O   UNL     1       2.148   9.909  18.352  0.00  0.00    +0.000 OA
ATOM      4  H   UNL     1       0.700   7.585  19.993  0.00  0.00    +0.000 HD
ENDROOT
BRANCH   1   5
ATOM      5  C   UNL     1       2.620   7.231  19.159  0.00  0.00    +0.000 C 
BRANCH   5   8
ATOM      6  C   UNL     1       2.212   4.076  21.320  0.00  0.00    +0.000 C 
ATOM      7  N   UNL     1       2.549   5.390  20.830  0.00  0.00    +0.000 N 
ATOM      8  C   UNL     1       2.333   5.756  19.506  0.00  0.00    +0.000 C 
ATOM      9  O   UNL     1       1.891   4.955  18.674  0.00  0.00    +0.000 OA
ATOM     10  H   UNL     1       2.987   6.037  21.473  0.00  0.00    +0.000 HD
ENDBRANCH   5   8
BRANCH   5  11
ATOM     11  C   UNL     1       3.184   7.442  17.737  0.00  0.00    +0.000 C 
BRANCH  11  12
ATOM     12  C   UNL     1       4.453   6.683  17.445  0.00  0.00    +0.000 A 
ATOM     13  C   UNL     1       4.837   6.451  16.111  0.00  0.00    +0.000 A 
ATOM     14  C   UNL     1       5.970   5.709  15.821  0.00  0.00    +0.000 A 
ATOM     15  C   UNL     1       6.757   5.208  16.840  0.00  0.00    +0.000 A 
ATOM     16  C   UNL     1       6.415   5.454  18.181  0.00  0.00    +0.000 A 
ATOM     17  C   UNL     1       5.263   6.184  18.467  0.00  0.00    +0.000 A 
BRANCH  15  18
ATOM     18  O   UNL     1       7.869   4.462  16.595  0.00  0.00    +0.000 OA
ATOM     19  H   UNL     1       8.640   5.046  16.622  0.00  0.00    +0.000 HD
ENDBRANCH  15  18
ENDBRANCH  11  12
ENDBRANCH   5  11
ENDBRANCH   1   5
BRANCH   2  20
ATOM     20  C   UNL     1       0.021  10.061  19.502  0.00  0.00    +0.000 C 
BRANCH  20  21
ATOM     21  C   UNL     1       0.304  10.728  20.876  0.00  0.00    +0.000 C 
BRANCH  21  22
ATOM     22  C   UNL     1      -0.567  10.354  22.099  0.00  0.00    +0.000 C 
ATOM     23  C   UNL     1       0.129   9.480  23.145  0.00  0.00    +0.000 C 
ATOM     24  C   UNL     1      -1.045  11.643  22.800  0.00  0.00    +0.000 C 
ENDBRANCH  21  22
ENDBRANCH  20  21
BRANCH  20  25
ATOM     25  C   UNL     1      -0.403  11.036  18.361  0.00  0.00    +0.000 C 
BRANCH  25  26
ATOM     26  P   UNL     1      -2.061  10.677  17.675  0.00  0.00    +0.000 P 
ATOM     27  O   UNL     1      -2.680  11.228  18.968  0.00  0.00    +0.000 OA
BRANCH  26  28
ATOM     28  O   UNL     1      -1.803  11.889  16.586  0.00  0.00    +0.000 OA
ATOM     29  H   UNL     1      -2.492  12.577  16.449  0.00  0.00    +0.000 HD
ENDBRANCH  26  28
BRANCH  26  30
ATOM     30  C   UNL     1      -3.719  10.317  16.989  0.00  0.00    +0.000 C 
BRANCH  30  31
ATOM     31  C   UNL     1      -4.865  11.129  17.595  0.00  0.00    +0.000 A 
ATOM     32  C   UNL     1      -5.692  10.555  18.573  0.00  0.00    +0.000 A 
ATOM     33  C   UNL     1      -6.938  11.119  18.864  0.00  0.00    +0.000 A 
ATOM     34  C   UNL     1      -7.346  12.283  18.218  0.00  0.00    +0.000 A 
ATOM     35  C   UNL     1      -6.499  12.902  17.300  0.00  0.00    +0.000 A 
ATOM     36  C   UNL     1      -5.264  12.327  16.990  0.00  0.00    +0.000 A 
ENDBRANCH  30  31
ENDBRANCH  26  30
ENDBRANCH  25  26
ENDBRANCH  20  25
ENDBRANCH   2  20
TORSDOF 13
ENDMDL
