MODEL 1
REMARK VINA RESULT:      -6.8      0.000      0.000
REMARK  Name = 
REMARK  12 active torsions:
REMARK  status: ('A' for Active; 'I' for Inactive)
REMARK    1  A    between atoms: C_1  and  C_2
REMARK    2  A    between atoms: C_2  and  O_3
REMARK    3  A    between atoms: O_3  and  C_4
REMARK    4  A    between atoms: C_4  and  C_6
REMARK    5  A    between atoms: C_6  and  C_7
REMARK    6  A    between atoms: C_6  and  N_11
REMARK    7  A    between atoms: C_7  and  C_8
REMARK    8  A    between atoms: C_8  and  S_9
REMARK    9  A    between atoms: S_9  and  C_10
REMARK   10  A    between atoms: N_14  and  C_15
REMARK   11  A    between atoms: C_15  and  C_16
REMARK   12  A    between atoms: C_19  and  N_20
REMARK                            x       y       z     vdW  Elec       q    Type
REMARK                         _______ _______ _______ _____ _____    ______ ____
ROOT
ATOM      1  N   UNL     1       6.575   6.962  16.590  0.00  0.00    +0.000 N 
ATOM      2  C   UNL     1       7.438   7.327  17.588  0.00  0.00    +0.000 C 
ATOM      3  O   UNL     1       7.830   6.563  18.460  0.00  0.00    +0.000 OA
ATOM      4  N   UNL     1       7.830   8.634  17.490  0.00  0.00    +0.000 N 
ATOM      5  H   UNL     1       6.618   7.524  15.749  0.00  0.00    +0.000 HD
ATOM      6  H   UNL     1       7.214   9.263  16.999  0.00  0.00    +0.000 HD
ENDROOT
BRANCH   1   7
ATOM      7  C   UNL     1       6.250   5.534  16.376  0.00  0.00    +0.000 C 
BRANCH   7   8
ATOM      8  C   UNL     1       6.846   5.016  15.051  0.00  0.00    +0.000 C 
ATOM      9  O   UNL     1       7.881   5.433  14.532  0.00  0.00    +0.000 OA
BRANCH   8  10
ATOM     10  O   UNL     1       6.007   4.117  14.457  0.00  0.00    +0.000 OA
BRANCH  10  12
ATOM     11  C   UNL     1       5.100   3.493  12.352  0.00  0.00    +0.000 C 
ATOM     12  C   UNL     1       6.382   3.734  13.126  0.00  0.00    +0.000 C 
ENDBRANCH  10  12
ENDBRANCH   8  10
ENDBRANCH   7   8
BRANCH   7  13
ATOM     13  C   UNL     1       4.735   5.295  16.477  0.00  0.00    +0.000 C 
BRANCH  13  14
ATOM     14  C   UNL     1       4.205   4.802  17.826  0.00  0.00    +0.000 C 
BRANCH  14  15
ATOM     15  S   UNL     1       3.773   3.032  17.819  0.00  0.00    +0.000 S 
ATOM     16  C   UNL     1       4.192   2.644  19.535  0.00  0.00    +0.000 C 
ENDBRANCH  14  15
ENDBRANCH  13  14
ENDBRANCH   7  13
ENDBRANCH   1   7
BRANCH   4  17
ATOM     17  C   UNL     1       8.662   9.212  18.527  0.00  0.00    +0.000 C 
BRANCH  17  18
ATOM     18  C   UNL     1       9.092  10.615  18.189  0.00  0.00    +0.000 A 
ATOM     19  C   UNL     1       8.163  11.577  17.776  0.00  0.00    +0.000 A 
ATOM     20  C   UNL     1       8.574  12.884  17.489  0.00  0.00    +0.000 A 
ATOM     21  C   UNL     1       9.907  13.269  17.650  0.00  0.00    +0.000 A 
ATOM     22  C   UNL     1      10.840  12.298  18.019  0.00  0.00    +0.000 A 
ATOM     23  C   UNL     1      10.436  10.991  18.311  0.00  0.00    +0.000 A 
BRANCH  21  24
ATOM     24  N   UNL     1      10.333  14.533  17.225  0.00  0.00    +0.000 N 
ATOM     25  H   UNL     1      10.892  15.030  17.912  0.00  0.00    +0.000 HD
ATOM     26  H   UNL     1      10.768  14.530  16.307  0.00  0.00    +0.000 HD
ENDBRANCH  21  24
ENDBRANCH  17  18
ENDBRANCH   4  17
TORSDOF 10
ENDMDL
MODEL 2
REMARK VINA RESULT:      -6.7      0.857      1.400
REMARK  Name = 
REMARK  12 active torsions:
REMARK  status: ('A' for Active; 'I' for Inactive)
REMARK    1  A    between atoms: C_1  and  C_2
REMARK    2  A    between atoms: C_2  and  O_3
REMARK    3  A    between atoms: O_3  and  C_4
REMARK    4  A    between atoms: C_4  and  C_6
REMARK    5  A    between atoms: C_6  and  C_7
REMARK    6  A    between atoms: C_6  and  N_11
REMARK    7  A    between atoms: C_7  and  C_8
REMARK    8  A    between atoms: C_8  and  S_9
REMARK    9  A    between atoms: S_9  and  C_10
REMARK   10  A    between atoms: N_14  and  C_15
REMARK   11  A    between atoms: C_15  and  C_16
REMARK   12  A    between atoms: C_19  and  N_20
REMARK                            x       y       z     vdW  Elec       q    Type
REMARK                         _______ _______ _______ _____ _____    ______ ____
ROOT
ATOM      1  N   UNL     1       6.618   7.477  17.156  0.00  0.00    +0.000 N 
ATOM      2  C   UNL     1       7.660   7.803  17.981  0.00  0.00    +0.000 C 
ATOM      3  O   UNL     1       8.155   7.028  18.789  0.00  0.00    +0.000 OA
ATOM      4  N   UNL     1       8.100   9.084  17.789  0.00  0.00    +0.000 N 
ATOM      5  H   UNL     1       6.545   8.026  16.307  0.00  0.00    +0.000 HD
ATOM      6  H   UNL     1       7.444   9.741  17.398  0.00  0.00    +0.000 HD
ENDROOT
BRANCH   1   7
ATOM      7  C   UNL     1       6.183   6.068  17.032  0.00  0.00    +0.000 C 
BRANCH   7   8
ATOM      8  C   UNL     1       7.088   5.285  16.059  0.00  0.00    +0.000 C 
ATOM      9  O   UNL     1       7.955   4.479  16.395  0.00  0.00    +0.000 OA
BRANCH   8  10
ATOM     10  O   UNL     1       6.890   5.696  14.771  0.00  0.00    +0.000 OA
BRANCH  10  12
ATOM     11  C   UNL     1       5.753   3.901  13.709  0.00  0.00    +0.000 C 
ATOM     12  C   UNL     1       7.058   4.670  13.781  0.00  0.00    +0.000 C 
ENDBRANCH  10  12
ENDBRANCH   8  10
ENDBRANCH   7   8
BRANCH   7  13
ATOM     13  C   UNL     1       4.695   5.985  16.653  0.00  0.00    +0.000 C 
BRANCH  13  14
ATOM     14  C   UNL     1       3.785   5.210  17.609  0.00  0.00    +0.000 C 
BRANCH  14  15
ATOM     15  S   UNL     1       4.051   3.408  17.545  0.00  0.00    +0.000 S 
ATOM     16  C   UNL     1       4.109   3.079  19.322  0.00  0.00    +0.000 C 
ENDBRANCH  14  15
ENDBRANCH  13  14
ENDBRANCH   7  13
ENDBRANCH   1   7
BRANCH   4  17
ATOM     17  C   UNL     1       9.131   9.624  18.653  0.00  0.00    +0.000 C 
BRANCH  17  18
ATOM     18  C   UNL     1       9.582  10.991  18.208  0.00  0.00    +0.000 A 
ATOM     19  C   UNL     1      10.940  11.282  18.033  0.00  0.00    +0.000 A 
ATOM     20  C   UNL     1      11.344  12.549  17.595  0.00  0.00    +0.000 A 
ATOM     21  C   UNL     1      10.403  13.532  17.280  0.00  0.00    +0.000 A 
ATOM     22  C   UNL     1       9.052  13.255  17.495  0.00  0.00    +0.000 A 
ATOM     23  C   UNL     1       8.642  11.990  17.930  0.00  0.00    +0.000 A 
BRANCH  21  24
ATOM     24  N   UNL     1      10.818  14.836  16.981  0.00  0.00    +0.000 N 
ATOM     25  H   UNL     1      11.325  15.288  17.735  0.00  0.00    +0.000 HD
ATOM     26  H   UNL     1      11.301  14.917  16.091  0.00  0.00    +0.000 HD
ENDBRANCH  21  24
ENDBRANCH  17  18
ENDBRANCH   4  17
TORSDOF 10
ENDMDL
MODEL 3
REMARK VINA RESULT:      -6.7      0.825      1.376
REMARK  Name = 
REMARK  12 active torsions:
REMARK  status: ('A' for Active; 'I' for Inactive)
REMARK    1  A    between atoms: C_1  and  C_2
REMARK    2  A    between atoms: C_2  and  O_3
REMARK    3  A    between atoms: O_3  and  C_4
REMARK    4  A    between atoms: C_4  and  C_6
REMARK    5  A    between atoms: C_6  and  C_7
REMARK    6  A    between atoms: C_6  and  N_11
REMARK    7  A    between atoms: C_7  and  C_8
REMARK    8  A    between atoms: C_8  and  S_9
REMARK    9  A    between atoms: S_9  and  C_10
REMARK   10  A    between atoms: N_14  and  C_15
REMARK   11  A    between atoms: C_15  and  C_16
REMARK   12  A    between atoms: C_19  and  N_20
REMARK                            x       y       z     vdW  Elec       q    Type
REMARK                         _______ _______ _______ _____ _____    ______ ____
ROOT
ATOM      1  N   UNL     1       6.961   6.943  16.847  0.00  0.00    +0.000 N 
ATOM      2  C   UNL     1       7.747   7.417  17.862  0.00  0.00    +0.000 C 
ATOM      3  O   UNL     1       8.150   6.727  18.789  0.00  0.00    +0.000 OA
ATOM      4  N   UNL     1       8.052   8.743  17.714  0.00  0.00    +0.000 N 
ATOM      5  H   UNL     1       7.005   7.466  15.981  0.00  0.00    +0.000 HD
ATOM      6  H   UNL     1       7.417   9.301  17.165  0.00  0.00    +0.000 HD
ENDROOT
BRANCH   1   7
ATOM      7  C   UNL     1       6.747   5.487  16.693  0.00  0.00    +0.000 C 
BRANCH   7   8
ATOM      8  C   UNL     1       7.105   5.016  15.268  0.00  0.00    +0.000 C 
ATOM      9  O   UNL     1       7.875   5.598  14.505  0.00  0.00    +0.000 OA
BRANCH   8  10
ATOM     10  O   UNL     1       6.356   3.930  14.911  0.00  0.00    +0.000 OA
BRANCH  10  12
ATOM     11  C   UNL     1       6.167   3.401  12.604  0.00  0.00    +0.000 C 
ATOM     12  C   UNL     1       5.518   4.131  13.763  0.00  0.00    +0.000 C 
ENDBRANCH  10  12
ENDBRANCH   8  10
ENDBRANCH   7   8
BRANCH   7  13
ATOM     13  C   UNL     1       5.319   5.096  17.105  0.00  0.00    +0.000 C 
BRANCH  13  14
ATOM     14  C   UNL     1       5.179   4.207  18.343  0.00  0.00    +0.000 C 
BRANCH  14  15
ATOM     15  S   UNL     1       3.546   4.344  19.139  0.00  0.00    +0.000 S 
ATOM     16  C   UNL     1       2.515   3.900  17.721  0.00  0.00    +0.000 C 
ENDBRANCH  14  15
ENDBRANCH  13  14
ENDBRANCH   7  13
ENDBRANCH   1   7
BRANCH   4  17
ATOM     17  C   UNL     1       8.791   9.428  18.756  0.00  0.00    +0.000 C 
BRANCH  17  18
ATOM     18  C   UNL     1       9.305  10.767  18.296  0.00  0.00    +0.000 A 
ATOM     19  C   UNL     1      10.679  11.027  18.216  0.00  0.00    +0.000 A 
ATOM     20  C   UNL     1      11.142  12.267  17.763  0.00  0.00    +0.000 A 
ATOM     21  C   UNL     1      10.249  13.255  17.340  0.00  0.00    +0.000 A 
ATOM     22  C   UNL     1       8.880  13.012  17.460  0.00  0.00    +0.000 A 
ATOM     23  C   UNL     1       8.411  11.773  17.909  0.00  0.00    +0.000 A 
BRANCH  21  24
ATOM     24  N   UNL     1      10.714  14.538  17.025  0.00  0.00    +0.000 N 
ATOM     25  H   UNL     1      11.031  15.068  17.830  0.00  0.00    +0.000 HD
ATOM     26  H   UNL     1      11.388  14.554  16.266  0.00  0.00    +0.000 HD
ENDBRANCH  21  24
ENDBRANCH  17  18
ENDBRANCH   4  17
TORSDOF 10
ENDMDL
MODEL 4
REMARK VINA RESULT:      -6.3      1.218      1.455
REMARK  Name = 
REMARK  12 active torsions:
REMARK  status: ('A' for Active; 'I' for Inactive)
REMARK    1  A    between atoms: C_1  and  C_2
REMARK    2  A    between atoms: C_2  and  O_3
REMARK    3  A    between atoms: O_3  and  C_4
REMARK    4  A    between atoms: C_4  and  C_6
REMARK    5  A    between atoms: C_6  and  C_7
REMARK    6  A    between atoms: C_6  and  N_11
REMARK    7  A    between atoms: C_7  and  C_8
REMARK    8  A    between atoms: C_8  and  S_9
REMARK    9  A    between atoms: S_9  and  C_10
REMARK   10  A    between atoms: N_14  and  C_15
REMARK   11  A    between atoms: C_15  and  C_16
REMARK   12  A    between atoms: C_19  and  N_20
REMARK                            x       y       z     vdW  Elec       q    Type
REMARK                         _______ _______ _______ _____ _____    ______ ____
ROOT
ATOM      1  N   UNL     1       7.061   7.577  17.180  0.00  0.00    +0.000 N 
ATOM      2  C   UNL     1       7.983   8.057  18.070  0.00  0.00    +0.000 C 
ATOM      3  O   UNL     1       8.548   7.364  18.905  0.00  0.00    +0.000 OA
ATOM      4  N   UNL     1       8.220   9.395  17.907  0.00  0.00    +0.000 N 
ATOM      5  H   UNL     1       6.952   8.116  16.330  0.00  0.00    +0.000 HD
ATOM      6  H   UNL     1       7.490   9.942  17.478  0.00  0.00    +0.000 HD
ENDROOT
BRANCH   1   7
ATOM      7  C   UNL     1       6.870   6.117  17.027  0.00  0.00    +0.000 C 
BRANCH   7   8
ATOM      8  C   UNL     1       6.259   5.774  15.653  0.00  0.00    +0.000 C 
ATOM      9  O   UNL     1       5.226   6.263  15.197  0.00  0.00    +0.000 OA
BRANCH   8  10
ATOM     10  O   UNL     1       6.946   4.755  15.054  0.00  0.00    +0.000 OA
BRANCH  10  12
ATOM     11  C   UNL     1       6.531   3.861  12.893  0.00  0.00    +0.000 C 
ATOM     12  C   UNL     1       6.126   3.809  14.354  0.00  0.00    +0.000 C 
ENDBRANCH  10  12
ENDBRANCH   8  10
ENDBRANCH   7   8
BRANCH   7  13
ATOM     13  C   UNL     1       6.055   5.544  18.197  0.00  0.00    +0.000 C 
BRANCH  13  14
ATOM     14  C   UNL     1       5.318   4.227  17.942  0.00  0.00    +0.000 C 
BRANCH  14  15
ATOM     15  S   UNL     1       3.811   4.045  18.951  0.00  0.00    +0.000 S 
ATOM     16  C   UNL     1       2.586   4.114  17.623  0.00  0.00    +0.000 C 
ENDBRANCH  14  15
ENDBRANCH  13  14
ENDBRANCH   7  13
ENDBRANCH   1   7
BRANCH   4  17
ATOM     17  C   UNL     1       9.093  10.086  18.836  0.00  0.00    +0.000 C 
BRANCH  17  18
ATOM     18  C   UNL     1       9.640  11.363  18.252  0.00  0.00    +0.000 A 
ATOM     19  C   UNL     1       8.850  12.515  18.166  0.00  0.00    +0.000 A 
ATOM     20  C   UNL     1       9.380  13.701  17.644  0.00  0.00    +0.000 A 
ATOM     21  C   UNL     1      10.715  13.775  17.242  0.00  0.00    +0.000 A 
ATOM     22  C   UNL     1      11.490  12.614  17.288  0.00  0.00    +0.000 A 
ATOM     23  C   UNL     1      10.968  11.426  17.811  0.00  0.00    +0.000 A 
BRANCH  21  24
ATOM     24  N   UNL     1      11.195  14.919  16.591  0.00  0.00    +0.000 N 
ATOM     25  H   UNL     1      11.904  14.725  15.892  0.00  0.00    +0.000 HD
ATOM     26  H   UNL     1      10.461  15.524  16.236  0.00  0.00    +0.000 HD
ENDBRANCH  21  24
ENDBRANCH  17  18
ENDBRANCH   4  17
TORSDOF 10
ENDMDL
MODEL 5
REMARK VINA RESULT:      -6.2      5.971      8.052
REMARK  Name = 
REMARK  12 active torsions:
REMARK  status: ('A' for Active; 'I' for Inactive)
REMARK    1  A    between atoms: C_1  and  C_2
REMARK    2  A    between atoms: C_2  and  O_3
REMARK    3  A    between atoms: O_3  and  C_4
REMARK    4  A    between atoms: C_4  and  C_6
REMARK    5  A    between atoms: C_6  and  C_7
REMARK    6  A    between atoms: C_6  and  N_11
REMARK    7  A    between atoms: C_7  and  C_8
REMARK    8  A    between atoms: C_8  and  S_9
REMARK    9  A    between atoms: S_9  and  C_10
REMARK   10  A    between atoms: N_14  and  C_15
REMARK   11  A    between atoms: C_15  and  C_16
REMARK   12  A    between atoms: C_19  and  N_20
REMARK                            x       y       z     vdW  Elec       q    Type
REMARK                         _______ _______ _______ _____ _____    ______ ____
ROOT
ATOM      1  N   UNL     1       2.382   6.436  19.155  0.00  0.00    +0.000 N 
ATOM      2  C   UNL     1       2.438   7.664  18.555  0.00  0.00    +0.000 C 
ATOM      3  O   UNL     1       3.131   7.912  17.577  0.00  0.00    +0.000 OA
ATOM      4  N   UNL     1       1.615   8.578  19.154  0.00  0.00    +0.000 N 
ATOM      5  H   UNL     1       1.537   6.243  19.680  0.00  0.00    +0.000 HD
ATOM      6  H   UNL     1       1.375   8.416  20.120  0.00  0.00    +0.000 HD
ENDROOT
BRANCH   1   7
ATOM      7  C   UNL     1       2.994   5.260  18.497  0.00  0.00    +0.000 C 
BRANCH   7   8
ATOM      8  C   UNL     1       1.937   4.182  18.181  0.00  0.00    +0.000 C 
ATOM      9  O   UNL     1       1.096   4.259  17.286  0.00  0.00    +0.000 OA
BRANCH   8  10
ATOM     10  O   UNL     1       1.971   3.178  19.107  0.00  0.00    +0.000 OA
BRANCH  10  12
ATOM     11  C   UNL     1       1.437   2.788  21.388  0.00  0.00    +0.000 C 
ATOM     12  C   UNL     1       0.876   3.180  20.034  0.00  0.00    +0.000 C 
ENDBRANCH  10  12
ENDBRANCH   8  10
ENDBRANCH   7   8
BRANCH   7  13
ATOM     13  C   UNL     1       4.166   4.713  19.328  0.00  0.00    +0.000 C 
BRANCH  13  14
ATOM     14  C   UNL     1       5.506   5.440  19.189  0.00  0.00    +0.000 C 
BRANCH  14  15
ATOM     15  S   UNL     1       6.013   5.676  17.455  0.00  0.00    +0.000 S 
ATOM     16  C   UNL     1       7.476   4.613  17.454  0.00  0.00    +0.000 C 
ENDBRANCH  14  15
ENDBRANCH  13  14
ENDBRANCH   7  13
ENDBRANCH   1   7
BRANCH   4  17
ATOM     17  C   UNL     1       1.630   9.956  18.706  0.00  0.00    +0.000 C 
BRANCH  17  18
ATOM     18  C   UNL     1       0.248  10.459  18.379  0.00  0.00    +0.000 A 
ATOM     19  C   UNL     1      -0.670   9.656  17.692  0.00  0.00    +0.000 A 
ATOM     20  C   UNL     1      -1.959  10.127  17.416  0.00  0.00    +0.000 A 
ATOM     21  C   UNL     1      -2.372  11.386  17.858  0.00  0.00    +0.000 A 
ATOM     22  C   UNL     1      -1.443  12.203  18.504  0.00  0.00    +0.000 A 
ATOM     23  C   UNL     1      -0.154  11.737  18.785  0.00  0.00    +0.000 A 
BRANCH  21  24
ATOM     24  N   UNL     1      -3.609  11.905  17.455  0.00  0.00    +0.000 N 
ATOM     25  H   UNL     1      -4.138  11.282  16.853  0.00  0.00    +0.000 HD
ATOM     26  H   UNL     1      -4.170  12.265  18.221  0.00  0.00    +0.000 HD
ENDBRANCH  21  24
ENDBRANCH  17  18
ENDBRANCH   4  17
TORSDOF 10
ENDMDL
MODEL 6
REMARK VINA RESULT:      -6.1      6.194      8.285
REMARK  Name = 
REMARK  12 active torsions:
REMARK  status: ('A' for Active; 'I' for Inactive)
REMARK    1  A    between atoms: C_1  and  C_2
REMARK    2  A    between atoms: C_2  and  O_3
REMARK    3  A    between atoms: O_3  and  C_4
REMARK    4  A    between atoms: C_4  and  C_6
REMARK    5  A    between atoms: C_6  and  C_7
REMARK    6  A    between atoms: C_6  and  N_11
REMARK    7  A    between atoms: C_7  and  C_8
REMARK    8  A    between atoms: C_8  and  S_9
REMARK    9  A    between atoms: S_9  and  C_10
REMARK   10  A    between atoms: N_14  and  C_15
REMARK   11  A    between atoms: C_15  and  C_16
REMARK   12  A    between atoms: C_19  and  N_20
REMARK                            x       y       z     vdW  Elec       q    Type
REMARK                         _______ _______ _______ _____ _____    ______ ____
ROOT
ATOM      1  N   UNL     1       2.342   6.739  19.137  0.00  0.00    +0.000 N 
ATOM      2  C   UNL     1       2.299   7.962  18.524  0.00  0.00    +0.000 C 
ATOM      3  O   UNL     1       2.946   8.245  17.525  0.00  0.00    +0.000 OA
ATOM      4  N   UNL     1       1.434   8.826  19.139  0.00  0.00    +0.000 N 
ATOM      5  H   UNL     1       1.527   6.497  19.688  0.00  0.00    +0.000 HD
ATOM      6  H   UNL     1       1.233   8.659  20.113  0.00  0.00    +0.000 HD
ENDROOT
BRANCH   1   7
ATOM      7  C   UNL     1       3.012   5.600  18.472  0.00  0.00    +0.000 C 
BRANCH   7   8
ATOM      8  C   UNL     1       2.053   4.402  18.311  0.00  0.00    +0.000 C 
ATOM      9  O   UNL     1       1.204   4.292  17.427  0.00  0.00    +0.000 OA
BRANCH   8  10
ATOM     10  O   UNL     1       2.181   3.530  19.355  0.00  0.00    +0.000 OA
BRANCH  10  12
ATOM     11  C   UNL     1       1.522   2.784  21.512  0.00  0.00    +0.000 C 
ATOM     12  C   UNL     1       1.068   3.512  20.261  0.00  0.00    +0.000 C 
ENDBRANCH  10  12
ENDBRANCH   8  10
ENDBRANCH   7   8
BRANCH   7  13
ATOM     13  C   UNL     1       4.311   5.223  19.203  0.00  0.00    +0.000 C 
BRANCH  13  14
ATOM     14  C   UNL     1       5.531   4.923  18.328  0.00  0.00    +0.000 C 
BRANCH  14  15
ATOM     15  S   UNL     1       6.049   6.346  17.315  0.00  0.00    +0.000 S 
ATOM     16  C   UNL     1       5.475   5.754  15.705  0.00  0.00    +0.000 C 
ENDBRANCH  14  15
ENDBRANCH  13  14
ENDBRANCH   7  13
ENDBRANCH   1   7
BRANCH   4  17
ATOM     17  C   UNL     1       1.344  10.197  18.679  0.00  0.00    +0.000 C 
BRANCH  17  18
ATOM     18  C   UNL     1      -0.085  10.654  18.540  0.00  0.00    +0.000 A 
ATOM     19  C   UNL     1      -0.544  11.803  19.194  0.00  0.00    +0.000 A 
ATOM     20  C   UNL     1      -1.868  12.228  19.036  0.00  0.00    +0.000 A 
ATOM     21  C   UNL     1      -2.745  11.546  18.190  0.00  0.00    +0.000 A 
ATOM     22  C   UNL     1      -2.299  10.377  17.571  0.00  0.00    +0.000 A 
ATOM     23  C   UNL     1      -0.976   9.947  17.723  0.00  0.00    +0.000 A 
BRANCH  21  24
ATOM     24  N   UNL     1      -4.101  11.894  18.149  0.00  0.00    +0.000 N 
ATOM     25  H   UNL     1      -4.279  12.802  17.734  0.00  0.00    +0.000 HD
ATOM     26  H   UNL     1      -4.696  11.170  17.758  0.00  0.00    +0.000 HD
ENDBRANCH  21  24
ENDBRANCH  17  18
ENDBRANCH   4  17
TORSDOF 10
ENDMDL
MODEL 7
REMARK VINA RESULT:      -6.1      1.228      1.402
REMARK  Name = 
REMARK  12 active torsions:
REMARK  status: ('A' for Active; 'I' for Inactive)
REMARK    1  A    between atoms: C_1  and  C_2
REMARK    2  A    between atoms: C_2  and  O_3
REMARK    3  A    between atoms: O_3  and  C_4
REMARK    4  A    between atoms: C_4  and  C_6
REMARK    5  A    between atoms: C_6  and  C_7
REMARK    6  A    between atoms: C_6  and  N_11
REMARK    7  A    between atoms: C_7  and  C_8
REMARK    8  A    between atoms: C_8  and  S_9
REMARK    9  A    between atoms: S_9  and  C_10
REMARK   10  A    between atoms: N_14  and  C_15
REMARK   11  A    between atoms: C_15  and  C_16
REMARK   12  A    between atoms: C_19  and  N_20
REMARK                            x       y       z     vdW  Elec       q    Type
REMARK                         _______ _______ _______ _____ _____    ______ ____
ROOT
ATOM      1  N   UNL     1       6.671   7.181  16.861  0.00  0.00    +0.000 N 
ATOM      2  C   UNL     1       7.596   7.379  17.849  0.00  0.00    +0.000 C 
ATOM      3  O   UNL     1       7.949   6.509  18.634  0.00  0.00    +0.000 OA
ATOM      4  N   UNL     1       8.101   8.651  17.848  0.00  0.00    +0.000 N 
ATOM      5  H   UNL     1       6.735   7.810  16.070  0.00  0.00    +0.000 HD
ATOM      6  H   UNL     1       7.526   9.372  17.439  0.00  0.00    +0.000 HD
ENDROOT
BRANCH   1   7
ATOM      7  C   UNL     1       6.212   5.811  16.538  0.00  0.00    +0.000 C 
BRANCH   7   8
ATOM      8  C   UNL     1       6.738   5.354  15.162  0.00  0.00    +0.000 C 
ATOM      9  O   UNL     1       7.867   5.580  14.727  0.00  0.00    +0.000 OA
BRANCH   8  10
ATOM     10  O   UNL     1       5.744   4.769  14.430  0.00  0.00    +0.000 OA
BRANCH  10  12
ATOM     11  C   UNL     1       5.944   3.573  12.388  0.00  0.00    +0.000 C 
ATOM     12  C   UNL     1       6.072   3.478  13.896  0.00  0.00    +0.000 C 
ENDBRANCH  10  12
ENDBRANCH   8  10
ENDBRANCH   7   8
BRANCH   7  13
ATOM     13  C   UNL     1       4.683   5.703  16.653  0.00  0.00    +0.000 C 
BRANCH  13  14
ATOM     14  C   UNL     1       4.101   5.654  18.068  0.00  0.00    +0.000 C 
BRANCH  14  15
ATOM     15  S   UNL     1       2.736   4.459  18.237  0.00  0.00    +0.000 S 
ATOM     16  C   UNL     1       2.829   4.190  20.022  0.00  0.00    +0.000 C 
ENDBRANCH  14  15
ENDBRANCH  13  14
ENDBRANCH   7  13
ENDBRANCH   1   7
BRANCH   4  17
ATOM     17  C   UNL     1       9.016   9.059  18.894  0.00  0.00    +0.000 C 
BRANCH  17  18
ATOM     18  C   UNL     1       9.112  10.558  19.008  0.00  0.00    +0.000 A 
ATOM     19  C   UNL     1       9.415  11.174  20.228  0.00  0.00    +0.000 A 
ATOM     20  C   UNL     1       9.524  12.567  20.313  0.00  0.00    +0.000 A 
ATOM     21  C   UNL     1       9.378  13.368  19.179  0.00  0.00    +0.000 A 
ATOM     22  C   UNL     1       9.034  12.758  17.972  0.00  0.00    +0.000 A 
ATOM     23  C   UNL     1       8.926  11.366  17.879  0.00  0.00    +0.000 A 
BRANCH  21  24
ATOM     24  N   UNL     1       9.348  14.763  19.299  0.00  0.00    +0.000 N 
ATOM     25  H   UNL     1       8.411  15.148  19.365  0.00  0.00    +0.000 HD
ATOM     26  H   UNL     1       9.963  15.124  20.022  0.00  0.00    +0.000 HD
ENDBRANCH  21  24
ENDBRANCH  17  18
ENDBRANCH   4  17
TORSDOF 10
ENDMDL
MODEL 8
REMARK VINA RESULT:      -6.1      5.462      7.827
REMARK  Name = 
REMARK  12 active torsions:
REMARK  status: ('A' for Active; 'I' for Inactive)
REMARK    1  A    between atoms: C_1  and  C_2
REMARK    2  A    between atoms: C_2  and  O_3
REMARK    3  A    between atoms: O_3  and  C_4
REMARK    4  A    between atoms: C_4  and  C_6
REMARK    5  A    between atoms: C_6  and  C_7
REMARK    6  A    between atoms: C_6  and  N_11
REMARK    7  A    between atoms: C_7  and  C_8
REMARK    8  A    between atoms: C_8  and  S_9
REMARK    9  A    between atoms: S_9  and  C_10
REMARK   10  A    between atoms: N_14  and  C_15
REMARK   11  A    between atoms: C_15  and  C_16
REMARK   12  A    between atoms: C_19  and  N_20
REMARK                            x       y       z     vdW  Elec       q    Type
REMARK                         _______ _______ _______ _____ _____    ______ ____
ROOT
ATOM      1  N   UNL     1       3.678   5.205  19.553  0.00  0.00    +0.000 N 
ATOM      2  C   UNL     1       2.983   6.205  18.930  0.00  0.00    +0.000 C 
ATOM      3  O   UNL     1       2.756   6.229  17.728  0.00  0.00    +0.000 OA
ATOM      4  N   UNL     1       2.550   7.165  19.804  0.00  0.00    +0.000 N 
ATOM      5  H   UNL     1       3.486   5.088  20.540  0.00  0.00    +0.000 HD
ATOM      6  H   UNL     1       3.063   7.266  20.666  0.00  0.00    +0.000 HD
ENDROOT
BRANCH   1   7
ATOM      7  C   UNL     1       3.997   3.958  18.823  0.00  0.00    +0.000 C 
BRANCH   7   8
ATOM      8  C   UNL     1       3.887   2.725  19.744  0.00  0.00    +0.000 C 
ATOM      9  O   UNL     1       4.796   2.286  20.448  0.00  0.00    +0.000 OA
BRANCH   8  10
ATOM     10  O   UNL     1       2.681   2.103  19.584  0.00  0.00    +0.000 OA
BRANCH  10  12
ATOM     11  C   UNL     1       1.571   2.692  21.600  0.00  0.00    +0.000 C 
ATOM     12  C   UNL     1       1.556   2.837  20.090  0.00  0.00    +0.000 C 
ENDBRANCH  10  12
ENDBRANCH   8  10
ENDBRANCH   7   8
BRANCH   7  13
ATOM     13  C   UNL     1       5.367   4.060  18.132  0.00  0.00    +0.000 C 
BRANCH  13  14
ATOM     14  C   UNL     1       5.366   4.077  16.601  0.00  0.00    +0.000 C 
BRANCH  14  15
ATOM     15  S   UNL     1       6.858   4.848  15.896  0.00  0.00    +0.000 S 
ATOM     16  C   UNL     1       7.067   6.184  17.097  0.00  0.00    +0.000 C 
ENDBRANCH  14  15
ENDBRANCH  13  14
ENDBRANCH   7  13
ENDBRANCH   1   7
BRANCH   4  17
ATOM     17  C   UNL     1       1.886   8.349  19.296  0.00  0.00    +0.000 C 
BRANCH  17  18
ATOM     18  C   UNL     1       1.043   9.020  20.349  0.00  0.00    +0.000 A 
ATOM     19  C   UNL     1       1.061   8.580  21.678  0.00  0.00    +0.000 A 
ATOM     20  C   UNL     1       0.291   9.227  22.651  0.00  0.00    +0.000 A 
ATOM     21  C   UNL     1      -0.474  10.351  22.329  0.00  0.00    +0.000 A 
ATOM     22  C   UNL     1      -0.525  10.763  20.997  0.00  0.00    +0.000 A 
ATOM     23  C   UNL     1       0.244  10.121  20.020  0.00  0.00    +0.000 A 
BRANCH  21  24
ATOM     24  N   UNL     1      -1.348  10.904  23.274  0.00  0.00    +0.000 N 
ATOM     25  H   UNL     1      -1.720  10.228  23.933  0.00  0.00    +0.000 HD
ATOM     26  H   UNL     1      -0.981  11.729  23.737  0.00  0.00    +0.000 HD
ENDBRANCH  21  24
ENDBRANCH  17  18
ENDBRANCH   4  17
TORSDOF 10
ENDMDL
MODEL 9
REMARK VINA RESULT:      -6.1      6.308      8.282
REMARK  Name = 
REMARK  12 active torsions:
REMARK  status: ('A' for Active; 'I' for Inactive)
REMARK    1  A    between atoms: C_1  and  C_2
REMARK    2  A    between atoms: C_2  and  O_3
REMARK    3  A    between atoms: O_3  and  C_4
REMARK    4  A    between atoms: C_4  and  C_6
REMARK    5  A    between atoms: C_6  and  C_7
REMARK    6  A    between atoms: C_6  and  N_11
REMARK    7  A    between atoms: C_7  and  C_8
REMARK    8  A    between atoms: C_8  and  S_9
REMARK    9  A    between atoms: S_9  and  C_10
REMARK   10  A    between atoms: N_14  and  C_15
REMARK   11  A    between atoms: C_15  and  C_16
REMARK   12  A    between atoms: C_19  and  N_20
REMARK                            x       y       z     vdW  Elec       q    Type
REMARK                         _______ _______ _______ _____ _____    ______ ____
ROOT
ATOM      1  N   UNL     1       2.322   6.984  19.136  0.00  0.00    +0.000 N 
ATOM      2  C   UNL     1       2.162   8.156  18.449  0.00  0.00    +0.000 C 
ATOM      3  O   UNL     1       2.579   8.342  17.314  0.00  0.00    +0.000 OA
ATOM      4  N   UNL     1       1.463   9.091  19.165  0.00  0.00    +0.000 N 
ATOM      5  H   UNL     1       1.643   6.809  19.867  0.00  0.00    +0.000 HD
ATOM      6  H   UNL     1       1.478   9.005  20.169  0.00  0.00    +0.000 HD
ENDROOT
BRANCH   1   7
ATOM      7  C   UNL     1       2.815   5.776  18.436  0.00  0.00    +0.000 C 
BRANCH   7   8
ATOM      8  C   UNL     1       1.745   4.665  18.413  0.00  0.00    +0.000 C 
ATOM      9  O   UNL     1       1.358   4.078  17.404  0.00  0.00    +0.000 OA
BRANCH   8  10
ATOM     10  O   UNL     1       1.185   4.502  19.649  0.00  0.00    +0.000 OA
BRANCH  10  12
ATOM     11  C   UNL     1       1.296   2.846  21.349  0.00  0.00    +0.000 C 
ATOM     12  C   UNL     1       0.787   3.157  19.954  0.00  0.00    +0.000 C 
ENDBRANCH  10  12
ENDBRANCH   8  10
ENDBRANCH   7   8
BRANCH   7  13
ATOM     13  C   UNL     1       4.149   5.301  19.035  0.00  0.00    +0.000 C 
BRANCH  13  14
ATOM     14  C   UNL     1       4.728   3.999  18.477  0.00  0.00    +0.000 C 
BRANCH  14  15
ATOM     15  S   UNL     1       4.511   2.582  19.602  0.00  0.00    +0.000 S 
ATOM     16  C   UNL     1       3.634   1.472  18.476  0.00  0.00    +0.000 C 
ENDBRANCH  14  15
ENDBRANCH  13  14
ENDBRANCH   7  13
ENDBRANCH   1   7
BRANCH   4  17
ATOM     17  C   UNL     1       1.294  10.426  18.625  0.00  0.00    +0.000 C 
BRANCH  17  18
ATOM     18  C   UNL     1      -0.156  10.828  18.560  0.00  0.00    +0.000 A 
ATOM     19  C   UNL     1      -0.619  11.973  19.219  0.00  0.00    +0.000 A 
ATOM     20  C   UNL     1      -1.965  12.348  19.130  0.00  0.00    +0.000 A 
ATOM     21  C   UNL     1      -2.863  11.618  18.349  0.00  0.00    +0.000 A 
ATOM     22  C   UNL     1      -2.411  10.453  17.728  0.00  0.00    +0.000 A 
ATOM     23  C   UNL     1      -1.067  10.074  17.810  0.00  0.00    +0.000 A 
BRANCH  21  24
ATOM     24  N   UNL     1      -4.231  11.917  18.380  0.00  0.00    +0.000 N 
ATOM     25  H   UNL     1      -4.823  11.161  18.051  0.00  0.00    +0.000 HD
ATOM     26  H   UNL     1      -4.547  12.292  19.270  0.00  0.00    +0.000 HD
ENDBRANCH  21  24
ENDBRANCH  17  18
ENDBRANCH   4  17
TORSDOF 10
ENDMDL
