MODEL 1
REMARK VINA RESULT:      -6.9      0.000      0.000
REMARK  Name = 
REMARK  3 active torsions:
REMARK  status: ('A' for Active; 'I' for Inactive)
REMARK    1  A    between atoms: C_1  and  N_2
REMARK    2  A    between atoms: N_5  and  C_6
REMARK    3  A    between atoms: C_6  and  C_7
REMARK                            x       y       z     vdW  Elec       q    Type
REMARK                         _______ _______ _______ _____ _____    ______ ____
ROOT
ATOM      1  C   UNL     1       2.544   6.434  19.209  0.00  0.00    +0.000 C 
ATOM      2  O   UNL     1       2.224   5.861  20.253  0.00  0.00    +0.000 OA
ATOM      3  N   UNL     1       2.204   7.716  18.837  0.00  0.00    +0.000 N 
ATOM      4  C   UNL     1       1.575   8.550  19.721  0.00  0.00    +0.000 A 
ATOM      5  N   UNL     1       1.387   8.358  21.001  0.00  0.00    +0.000 NA
ATOM      6  C   UNL     1       0.645   9.387  21.517  0.00  0.00    +0.000 A 
ATOM      7  C   UNL     1       0.278  10.363  20.611  0.00  0.00    +0.000 A 
ATOM      8  S   UNL     1       0.954  10.015  19.079  0.00  0.00    +0.000 S 
ATOM      9  C   UNL     1      -0.628  11.506  20.919  0.00  0.00    +0.000 C 
ATOM     10  C   UNL     1      -0.785  11.671  22.447  0.00  0.00    +0.000 C 
ATOM     11  C   UNL     1      -0.954  10.323  23.174  0.00  0.00    +0.000 C 
ATOM     12  C   UNL     1       0.256   9.405  22.952  0.00  0.00    +0.000 C 
ATOM     13  H   UNL     1       2.422   8.040  17.907  0.00  0.00    +0.000 HD
ENDROOT
BRANCH   1  14
ATOM     14  C   UNL     1       3.320   5.651  18.152  0.00  0.00    +0.000 C 
BRANCH  14  19
ATOM     15  C   UNL     1       6.112   4.358  14.345  0.00  0.00    +0.000 C 
ATOM     16  N   UNL     1       6.079   4.932  15.688  0.00  0.00    +0.000 NA
ATOM     17  C   UNL     1       5.577   3.957  16.671  0.00  0.00    +0.000 C 
ATOM     18  C   UNL     1       5.526   4.557  18.097  0.00  0.00    +0.000 C 
ATOM     19  N   UNL     1       4.786   5.838  18.246  0.00  0.00    +0.000 NA
ATOM     20  C   UNL     1       5.234   6.758  17.165  0.00  0.00    +0.000 C 
ATOM     21  C   UNL     1       5.259   6.152  15.736  0.00  0.00    +0.000 C 
ENDBRANCH  14  19
ENDBRANCH   1  14
TORSDOF 2
ENDMDL
MODEL 2
REMARK VINA RESULT:      -6.6      1.104      1.270
REMARK  Name = 
REMARK  3 active torsions:
REMARK  status: ('A' for Active; 'I' for Inactive)
REMARK    1  A    between atoms: C_1  and  N_2
REMARK    2  A    between atoms: N_5  and  C_6
REMARK    3  A    between atoms: C_6  and  C_7
REMARK                            x       y       z     vdW  Elec       q    Type
REMARK                         _______ _______ _______ _____ _____    ______ ____
ROOT
ATOM      1  C   UNL     1       2.365   7.162  19.249  0.00  0.00    +0.000 C 
ATOM      2  O   UNL     1       2.042   6.551  20.270  0.00  0.00    +0.000 OA
ATOM      3  N   UNL     1       1.981   8.437  18.897  0.00  0.00    +0.000 N 
ATOM      4  C   UNL     1       1.293   9.222  19.780  0.00  0.00    +0.000 A 
ATOM      5  N   UNL     1       1.078   8.992  21.050  0.00  0.00    +0.000 NA
ATOM      6  C   UNL     1       0.278   9.976  21.567  0.00  0.00    +0.000 A 
ATOM      7  C   UNL     1      -0.105  10.957  20.674  0.00  0.00    +0.000 A 
ATOM      8  S   UNL     1       0.627  10.674  19.154  0.00  0.00    +0.000 S 
ATOM      9  C   UNL     1      -1.067  12.053  20.981  0.00  0.00    +0.000 C 
ATOM     10  C   UNL     1      -1.274  12.175  22.507  0.00  0.00    +0.000 C 
ATOM     11  C   UNL     1      -1.405  10.804  23.198  0.00  0.00    +0.000 C 
ATOM     12  C   UNL     1      -0.151   9.944  22.991  0.00  0.00    +0.000 C 
ATOM     13  H   UNL     1       2.211   8.791  17.980  0.00  0.00    +0.000 HD
ENDROOT
BRANCH   1  14
ATOM     14  C   UNL     1       3.203   6.438  18.198  0.00  0.00    +0.000 C 
BRANCH  14  19
ATOM     15  C   UNL     1       7.124   4.490  16.010  0.00  0.00    +0.000 C 
ATOM     16  N   UNL     1       6.107   4.331  17.045  0.00  0.00    +0.000 NA
ATOM     17  C   UNL     1       4.758   4.264  16.460  0.00  0.00    +0.000 C 
ATOM     18  C   UNL     1       3.669   4.107  17.550  0.00  0.00    +0.000 C 
ATOM     19  N   UNL     1       3.686   5.112  18.647  0.00  0.00    +0.000 NA
ATOM     20  C   UNL     1       5.086   5.238  19.135  0.00  0.00    +0.000 C 
ATOM     21  C   UNL     1       6.166   5.417  18.035  0.00  0.00    +0.000 C 
ENDBRANCH  14  19
ENDBRANCH   1  14
TORSDOF 2
ENDMDL
MODEL 3
REMARK VINA RESULT:      -6.6      2.042      2.975
REMARK  Name = 
REMARK  3 active torsions:
REMARK  status: ('A' for Active; 'I' for Inactive)
REMARK    1  A    between atoms: C_1  and  N_2
REMARK    2  A    between atoms: N_5  and  C_6
REMARK    3  A    between atoms: C_6  and  C_7
REMARK                            x       y       z     vdW  Elec       q    Type
REMARK                         _______ _______ _______ _____ _____    ______ ____
ROOT
ATOM      1  C   UNL     1       2.187   7.612  19.389  0.00  0.00    +0.000 C 
ATOM      2  O   UNL     1       2.040   8.337  18.403  0.00  0.00    +0.000 OA
ATOM      3  N   UNL     1       1.696   7.839  20.656  0.00  0.00    +0.000 N 
ATOM      4  C   UNL     1       0.830   8.871  20.889  0.00  0.00    +0.000 A 
ATOM      5  N   UNL     1       0.226   9.619  20.002  0.00  0.00    +0.000 NA
ATOM      6  C   UNL     1      -0.495  10.595  20.638  0.00  0.00    +0.000 A 
ATOM      7  C   UNL     1      -0.435  10.571  22.017  0.00  0.00    +0.000 A 
ATOM      8  S   UNL     1       0.496   9.233  22.533  0.00  0.00    +0.000 S 
ATOM      9  C   UNL     1      -1.038  11.603  22.909  0.00  0.00    +0.000 C 
ATOM     10  C   UNL     1      -2.048  12.468  22.124  0.00  0.00    +0.000 C 
ATOM     11  C   UNL     1      -1.536  12.851  20.721  0.00  0.00    +0.000 C 
ATOM     12  C   UNL     1      -1.257  11.610  19.863  0.00  0.00    +0.000 C 
ATOM     13  H   UNL     1       1.979   7.237  21.416  0.00  0.00    +0.000 HD
ENDROOT
BRANCH   1  14
ATOM     14  C   UNL     1       3.071   6.373  19.263  0.00  0.00    +0.000 C 
BRANCH  14  19
ATOM     15  C   UNL     1       3.611   1.533  18.778  0.00  0.00    +0.000 C 
ATOM     16  N   UNL     1       3.404   2.806  18.094  0.00  0.00    +0.000 NA
ATOM     17  C   UNL     1       4.544   3.715  18.305  0.00  0.00    +0.000 C 
ATOM     18  C   UNL     1       4.332   5.073  17.594  0.00  0.00    +0.000 C 
ATOM     19  N   UNL     1       3.065   5.787  17.903  0.00  0.00    +0.000 NA
ATOM     20  C   UNL     1       1.947   4.811  17.794  0.00  0.00    +0.000 C 
ATOM     21  C   UNL     1       2.162   3.461  18.530  0.00  0.00    +0.000 C 
ENDBRANCH  14  19
ENDBRANCH   1  14
TORSDOF 2
ENDMDL
MODEL 4
REMARK VINA RESULT:      -6.5      2.049      8.374
REMARK  Name = 
REMARK  3 active torsions:
REMARK  status: ('A' for Active; 'I' for Inactive)
REMARK    1  A    between atoms: C_1  and  N_2
REMARK    2  A    between atoms: N_5  and  C_6
REMARK    3  A    between atoms: C_6  and  C_7
REMARK                            x       y       z     vdW  Elec       q    Type
REMARK                         _______ _______ _______ _____ _____    ______ ____
ROOT
ATOM      1  C   UNL     1       1.556   8.688  19.265  0.00  0.00    +0.000 C 
ATOM      2  O   UNL     1       1.874   9.349  18.275  0.00  0.00    +0.000 OA
ATOM      3  N   UNL     1       1.920   7.387  19.537  0.00  0.00    +0.000 N 
ATOM      4  C   UNL     1       2.840   6.747  18.753  0.00  0.00    +0.000 A 
ATOM      5  N   UNL     1       3.600   7.273  17.827  0.00  0.00    +0.000 NA
ATOM      6  C   UNL     1       4.326   6.286  17.214  0.00  0.00    +0.000 A 
ATOM      7  C   UNL     1       4.110   5.009  17.692  0.00  0.00    +0.000 A 
ATOM      8  S   UNL     1       3.017   5.059  19.006  0.00  0.00    +0.000 S 
ATOM      9  C   UNL     1       4.695   3.773  17.098  0.00  0.00    +0.000 C 
ATOM     10  C   UNL     1       5.856   4.131  16.145  0.00  0.00    +0.000 C 
ATOM     11  C   UNL     1       5.539   5.349  15.256  0.00  0.00    +0.000 C 
ATOM     12  C   UNL     1       5.254   6.603  16.095  0.00  0.00    +0.000 C 
ATOM     13  H   UNL     1       1.504   6.906  20.321  0.00  0.00    +0.000 HD
ENDROOT
BRANCH   1  14
ATOM     14  C   UNL     1       0.589   9.301  20.276  0.00  0.00    +0.000 C 
BRANCH  14  19
ATOM     15  C   UNL     1      -2.126  11.947  23.372  0.00  0.00    +0.000 C 
ATOM     16  N   UNL     1      -0.781  11.518  22.998  0.00  0.00    +0.000 NA
ATOM     17  C   UNL     1      -0.427  11.992  21.649  0.00  0.00    +0.000 C 
ATOM     18  C   UNL     1       0.992  11.533  21.236  0.00  0.00    +0.000 C 
ATOM     19  N   UNL     1       1.270  10.076  21.339  0.00  0.00    +0.000 NA
ATOM     20  C   UNL     1       0.794   9.609  22.669  0.00  0.00    +0.000 C 
ATOM     21  C   UNL     1      -0.640  10.056  23.063  0.00  0.00    +0.000 C 
ENDBRANCH  14  19
ENDBRANCH   1  14
TORSDOF 2
ENDMDL
MODEL 5
REMARK VINA RESULT:      -6.5      6.344      9.147
REMARK  Name = 
REMARK  3 active torsions:
REMARK  status: ('A' for Active; 'I' for Inactive)
REMARK    1  A    between atoms: C_1  and  N_2
REMARK    2  A    between atoms: N_5  and  C_6
REMARK    3  A    between atoms: C_6  and  C_7
REMARK                            x       y       z     vdW  Elec       q    Type
REMARK                         _______ _______ _______ _____ _____    ______ ____
ROOT
ATOM      1  C   UNL     1       8.685   9.676  18.419  0.00  0.00    +0.000 C 
ATOM      2  O   UNL     1       7.883  10.146  17.609  0.00  0.00    +0.000 OA
ATOM      3  N   UNL     1       8.724   8.378  18.880  0.00  0.00    +0.000 N 
ATOM      4  C   UNL     1       7.919   7.422  18.324  0.00  0.00    +0.000 A 
ATOM      5  N   UNL     1       7.196   7.523  17.239  0.00  0.00    +0.000 NA
ATOM      6  C   UNL     1       6.469   6.375  17.062  0.00  0.00    +0.000 A 
ATOM      7  C   UNL     1       6.657   5.403  18.024  0.00  0.00    +0.000 A 
ATOM      8  S   UNL     1       7.843   5.917  19.144  0.00  0.00    +0.000 S 
ATOM      9  C   UNL     1       5.886   4.129  18.103  0.00  0.00    +0.000 C 
ATOM     10  C   UNL     1       5.141   3.869  16.775  0.00  0.00    +0.000 C 
ATOM     11  C   UNL     1       4.489   5.142  16.202  0.00  0.00    +0.000 C 
ATOM     12  C   UNL     1       5.532   6.232  15.917  0.00  0.00    +0.000 C 
ATOM     13  H   UNL     1       9.351   8.135  19.632  0.00  0.00    +0.000 HD
ENDROOT
BRANCH   1  14
ATOM     14  C   UNL     1       9.701  10.611  19.071  0.00  0.00    +0.000 C 
BRANCH  14  19
ATOM     15  C   UNL     1      11.232  15.085  20.338  0.00  0.00    +0.000 C 
ATOM     16  N   UNL     1      11.215  14.054  19.303  0.00  0.00    +0.000 NA
ATOM     17  C   UNL     1       9.843  13.787  18.840  0.00  0.00    +0.000 C 
ATOM     18  C   UNL     1       9.811  12.688  17.751  0.00  0.00    +0.000 C 
ATOM     19  N   UNL     1      10.479  11.404  18.091  0.00  0.00    +0.000 NA
ATOM     20  C   UNL     1      11.817  11.717  18.664  0.00  0.00    +0.000 C 
ATOM     21  C   UNL     1      11.833  12.805  19.772  0.00  0.00    +0.000 C 
ENDBRANCH  14  19
ENDBRANCH   1  14
TORSDOF 2
ENDMDL
MODEL 6
REMARK VINA RESULT:      -6.4      2.405      8.438
REMARK  Name = 
REMARK  3 active torsions:
REMARK  status: ('A' for Active; 'I' for Inactive)
REMARK    1  A    between atoms: C_1  and  N_2
REMARK    2  A    between atoms: N_5  and  C_6
REMARK    3  A    between atoms: C_6  and  C_7
REMARK                            x       y       z     vdW  Elec       q    Type
REMARK                         _______ _______ _______ _____ _____    ______ ____
ROOT
ATOM      1  C   UNL     1       1.820   9.034  18.546  0.00  0.00    +0.000 C 
ATOM      2  O   UNL     1       2.203   9.559  17.499  0.00  0.00    +0.000 OA
ATOM      3  N   UNL     1       2.078   7.747  18.964  0.00  0.00    +0.000 N 
ATOM      4  C   UNL     1       2.959   6.959  18.276  0.00  0.00    +0.000 A 
ATOM      5  N   UNL     1       3.772   7.323  17.318  0.00  0.00    +0.000 NA
ATOM      6  C   UNL     1       4.431   6.225  16.832  0.00  0.00    +0.000 A 
ATOM      7  C   UNL     1       4.109   5.026  17.438  0.00  0.00    +0.000 A 
ATOM      8  S   UNL     1       3.001   5.300  18.712  0.00  0.00    +0.000 S 
ATOM      9  C   UNL     1       4.607   3.693  16.994  0.00  0.00    +0.000 C 
ATOM     10  C   UNL     1       5.808   3.858  16.037  0.00  0.00    +0.000 C 
ATOM     11  C   UNL     1       5.599   4.994  15.016  0.00  0.00    +0.000 C 
ATOM     12  C   UNL     1       5.398   6.348  15.709  0.00  0.00    +0.000 C 
ATOM     13  H   UNL     1       1.614   7.387  19.784  0.00  0.00    +0.000 HD
ENDROOT
BRANCH   1  14
ATOM     14  C   UNL     1       0.887   9.824  19.462  0.00  0.00    +0.000 C 
BRANCH  14  19
ATOM     15  C   UNL     1      -2.295  12.655  21.874  0.00  0.00    +0.000 C 
ATOM     16  N   UNL     1      -1.256  12.596  20.849  0.00  0.00    +0.000 NA
ATOM     17  C   UNL     1      -1.659  11.722  19.734  0.00  0.00    +0.000 C 
ATOM     18  C   UNL     1      -0.561  11.641  18.646  0.00  0.00    +0.000 C 
ATOM     19  N   UNL     1       0.799  11.259  19.109  0.00  0.00    +0.000 NA
ATOM     20  C   UNL     1       1.125  12.081  20.307  0.00  0.00    +0.000 C 
ATOM     21  C   UNL     1       0.026  12.135  21.402  0.00  0.00    +0.000 C 
ENDBRANCH  14  19
ENDBRANCH   1  14
TORSDOF 2
ENDMDL
MODEL 7
REMARK VINA RESULT:      -6.4      1.743      2.483
REMARK  Name = 
REMARK  3 active torsions:
REMARK  status: ('A' for Active; 'I' for Inactive)
REMARK    1  A    between atoms: C_1  and  N_2
REMARK    2  A    between atoms: N_5  and  C_6
REMARK    3  A    between atoms: C_6  and  C_7
REMARK                            x       y       z     vdW  Elec       q    Type
REMARK                         _______ _______ _______ _____ _____    ______ ____
ROOT
ATOM      1  C   UNL     1       2.291   7.601  19.258  0.00  0.00    +0.000 C 
ATOM      2  O   UNL     1       2.058   8.285  18.259  0.00  0.00    +0.000 OA
ATOM      3  N   UNL     1       1.849   7.840  20.540  0.00  0.00    +0.000 N 
ATOM      4  C   UNL     1       0.939   8.831  20.786  0.00  0.00    +0.000 A 
ATOM      5  N   UNL     1       0.254   9.517  19.909  0.00  0.00    +0.000 NA
ATOM      6  C   UNL     1      -0.490  10.472  20.551  0.00  0.00    +0.000 A 
ATOM      7  C   UNL     1      -0.362  10.495  21.926  0.00  0.00    +0.000 A 
ATOM      8  S   UNL     1       0.665   9.225  22.433  0.00  0.00    +0.000 S 
ATOM      9  C   UNL     1      -0.978  11.520  22.816  0.00  0.00    +0.000 C 
ATOM     10  C   UNL     1      -2.070  12.305  22.058  0.00  0.00    +0.000 C 
ATOM     11  C   UNL     1      -1.648  12.671  20.622  0.00  0.00    +0.000 C 
ATOM     12  C   UNL     1      -1.343  11.420  19.786  0.00  0.00    +0.000 C 
ATOM     13  H   UNL     1       2.201   7.278  21.302  0.00  0.00    +0.000 HD
ENDROOT
BRANCH   1  14
ATOM     14  C   UNL     1       3.235   6.408  19.124  0.00  0.00    +0.000 C 
BRANCH  14  19
ATOM     15  C   UNL     1       7.587   4.628  17.761  0.00  0.00    +0.000 C 
ATOM     16  N   UNL     1       6.218   4.935  17.354  0.00  0.00    +0.000 NA
ATOM     17  C   UNL     1       5.946   6.379  17.447  0.00  0.00    +0.000 C 
ATOM     18  C   UNL     1       4.494   6.715  17.029  0.00  0.00    +0.000 C 
ATOM     19  N   UNL     1       3.417   5.962  17.723  0.00  0.00    +0.000 NA
ATOM     20  C   UNL     1       3.783   4.519  17.711  0.00  0.00    +0.000 C 
ATOM     21  C   UNL     1       5.234   4.191  18.155  0.00  0.00    +0.000 C 
ENDBRANCH  14  19
ENDBRANCH   1  14
TORSDOF 2
ENDMDL
MODEL 8
REMARK VINA RESULT:      -6.3      2.959      3.548
REMARK  Name = 
REMARK  3 active torsions:
REMARK  status: ('A' for Active; 'I' for Inactive)
REMARK    1  A    between atoms: C_1  and  N_2
REMARK    2  A    between atoms: N_5  and  C_6
REMARK    3  A    between atoms: C_6  and  C_7
REMARK                            x       y       z     vdW  Elec       q    Type
REMARK                         _______ _______ _______ _____ _____    ______ ____
ROOT
ATOM      1  C   UNL     1       2.185   7.216  19.796  0.00  0.00    +0.000 C 
ATOM      2  O   UNL     1       2.379   7.902  18.791  0.00  0.00    +0.000 OA
ATOM      3  N   UNL     1       1.511   7.597  20.935  0.00  0.00    +0.000 N 
ATOM      4  C   UNL     1       0.837   8.787  20.976  0.00  0.00    +0.000 A 
ATOM      5  N   UNL     1       0.578   9.589  19.976  0.00  0.00    +0.000 NA
ATOM      6  C   UNL     1      -0.046  10.717  20.440  0.00  0.00    +0.000 A 
ATOM      7  C   UNL     1      -0.261  10.754  21.804  0.00  0.00    +0.000 A 
ATOM      8  S   UNL     1       0.269   9.291  22.514  0.00  0.00    +0.000 S 
ATOM      9  C   UNL     1      -0.810  11.927  22.542  0.00  0.00    +0.000 C 
ATOM     10  C   UNL     1      -1.456  12.927  21.559  0.00  0.00    +0.000 C 
ATOM     11  C   UNL     1      -0.616  13.131  20.283  0.00  0.00    +0.000 C 
ATOM     12  C   UNL     1      -0.427  11.816  19.515  0.00  0.00    +0.000 C 
ATOM     13  H   UNL     1       1.517   6.993  21.744  0.00  0.00    +0.000 HD
ENDROOT
BRANCH   1  14
ATOM     14  C   UNL     1       2.814   5.826  19.867  0.00  0.00    +0.000 C 
BRANCH  14  19
ATOM     15  C   UNL     1       3.787   1.270  18.365  0.00  0.00    +0.000 C 
ATOM     16  N   UNL     1       2.853   2.142  19.072  0.00  0.00    +0.000 NA
ATOM     17  C   UNL     1       2.306   3.173  18.174  0.00  0.00    +0.000 C 
ATOM     18  C   UNL     1       1.323   4.112  18.914  0.00  0.00    +0.000 C 
ATOM     19  N   UNL     1       1.833   4.755  20.155  0.00  0.00    +0.000 NA
ATOM     20  C   UNL     1       2.483   3.703  20.984  0.00  0.00    +0.000 C 
ATOM     21  C   UNL     1       3.484   2.782  20.236  0.00  0.00    +0.000 C 
ENDBRANCH  14  19
ENDBRANCH   1  14
TORSDOF 2
ENDMDL
MODEL 9
REMARK VINA RESULT:      -6.3      2.267      2.964
REMARK  Name = 
REMARK  3 active torsions:
REMARK  status: ('A' for Active; 'I' for Inactive)
REMARK    1  A    between atoms: C_1  and  N_2
REMARK    2  A    between atoms: N_5  and  C_6
REMARK    3  A    between atoms: C_6  and  C_7
REMARK                            x       y       z     vdW  Elec       q    Type
REMARK                         _______ _______ _______ _____ _____    ______ ____
ROOT
ATOM      1  C   UNL     1       2.219   7.847  18.666  0.00  0.00    +0.000 C 
ATOM      2  O   UNL     1       1.911   8.601  17.741  0.00  0.00    +0.000 OA
ATOM      3  N   UNL     1       1.867   7.983  19.990  0.00  0.00    +0.000 N 
ATOM      4  C   UNL     1       0.970   8.942  20.373  0.00  0.00    +0.000 A 
ATOM      5  N   UNL     1       0.220   9.685  19.600  0.00  0.00    +0.000 NA
ATOM      6  C   UNL     1      -0.483  10.580  20.363  0.00  0.00    +0.000 A 
ATOM      7  C   UNL     1      -0.259  10.501  21.723  0.00  0.00    +0.000 A 
ATOM      8  S   UNL     1       0.809   9.209  22.061  0.00  0.00    +0.000 S 
ATOM      9  C   UNL     1      -0.818  11.449  22.730  0.00  0.00    +0.000 C 
ATOM     10  C   UNL     1      -1.966  12.275  22.110  0.00  0.00    +0.000 C 
ATOM     11  C   UNL     1      -1.647  12.753  20.680  0.00  0.00    +0.000 C 
ATOM     12  C   UNL     1      -1.393  11.572  19.733  0.00  0.00    +0.000 C 
ATOM     13  H   UNL     1       2.274   7.370  20.681  0.00  0.00    +0.000 HD
ENDROOT
BRANCH   1  14
ATOM     14  C   UNL     1       3.159   6.678  18.376  0.00  0.00    +0.000 C 
BRANCH  14  19
ATOM     15  C   UNL     1       3.484   1.807  18.030  0.00  0.00    +0.000 C 
ATOM     16  N   UNL     1       3.613   2.974  18.898  0.00  0.00    +0.000 NA
ATOM     17  C   UNL     1       2.326   3.675  19.042  0.00  0.00    +0.000 C 
ATOM     18  C   UNL     1       2.452   4.921  19.951  0.00  0.00    +0.000 C 
ATOM     19  N   UNL     1       3.511   5.899  19.585  0.00  0.00    +0.000 NA
ATOM     20  C   UNL     1       4.768   5.143  19.334  0.00  0.00    +0.000 C 
ATOM     21  C   UNL     1       4.634   3.909  18.403  0.00  0.00    +0.000 C 
ENDBRANCH  14  19
ENDBRANCH   1  14
TORSDOF 2
ENDMDL
