MODEL 1
REMARK VINA RESULT:      -6.7      0.000      0.000
REMARK  Name = 
REMARK  7 active torsions:
REMARK  status: ('A' for Active; 'I' for Inactive)
REMARK    1  A    between atoms: C_1  and  C_2
REMARK    2  A    between atoms: C_2  and  C_3
REMARK    3  A    between atoms: C_2  and  N_8
REMARK    4  A    between atoms: C_3  and  S_4
REMARK    5  A    between atoms: S_4  and  C_5
REMARK    6  A    between atoms: N_8  and  C_20
REMARK    7  A    between atoms: N_11  and  C_12
REMARK                            x       y       z     vdW  Elec       q    Type
REMARK                         _______ _______ _______ _____ _____    ______ ____
ROOT
ATOM      1  N   UNL     1       2.435   6.101  19.406  0.00  0.00    +0.000 N 
ATOM      2  C   UNL     1       2.207   7.461  19.066  0.00  0.00    +0.000 C 
ATOM      3  O   UNL     1       2.631   7.969  18.035  0.00  0.00    +0.000 OA
ATOM      4  N   UNL     1       1.448   8.138  20.001  0.00  0.00    +0.000 N 
ATOM      5  H   UNL     1       1.336   7.686  20.896  0.00  0.00    +0.000 HD
ENDROOT
BRANCH   4   6
ATOM      6  C   UNL     1       0.987   9.473  19.979  0.00  0.00    +0.000 A 
ATOM      7  C   UNL     1       1.376  10.407  19.019  0.00  0.00    +0.000 A 
ATOM      8  C   UNL     1       0.896  11.714  19.091  0.00  0.00    +0.000 A 
ATOM      9  F   UNL     1       1.276  12.608  18.170  0.00  0.00    +0.000 F 
ATOM     10  C   UNL     1       0.026  12.114  20.100  0.00  0.00    +0.000 A 
ATOM     11  C   UNL     1      -0.394  11.188  21.050  0.00  0.00    +0.000 A 
ATOM     12  C   UNL     1       0.079   9.873  20.983  0.00  0.00    +0.000 A 
ATOM     13 CL   UNL     1      -0.482   8.749  22.177  0.00  0.00    +0.000 Cl
ENDBRANCH   4   6
BRANCH   1  14
ATOM     14  C   UNL     1       1.890   5.519  20.623  0.00  0.00    +0.000 C 
ATOM     15  C   UNL     1       0.954   4.334  20.522  0.00  0.00    +0.000 C 
ATOM     16  C   UNL     1       2.282   4.177  21.187  0.00  0.00    +0.000 C 
ENDBRANCH   1  14
BRANCH   1  18
ATOM     17  C   UNL     1       2.953   4.662  17.340  0.00  0.00    +0.000 C 
ATOM     18  C   UNL     1       3.425   5.274  18.663  0.00  0.00    +0.000 C 
BRANCH  18  19
ATOM     19  C   UNL     1       4.826   5.896  18.586  0.00  0.00    +0.000 C 
BRANCH  19  20
ATOM     20  S   UNL     1       6.178   4.826  19.018  0.00  0.00    +0.000 S 
ATOM     21  C   UNL     1       7.056   4.677  17.481  0.00  0.00    +0.000 C 
ATOM     22  O   UNL     1       7.069   5.529  19.918  0.00  0.00    +0.000 OA
ATOM     23  O   UNL     1       5.654   3.507  19.318  0.00  0.00    +0.000 OA
ENDBRANCH  19  20
ENDBRANCH  18  19
ENDBRANCH   1  18
TORSDOF 5
ENDMDL
MODEL 2
REMARK VINA RESULT:      -6.7      4.023      7.235
REMARK  Name = 
REMARK  7 active torsions:
REMARK  status: ('A' for Active; 'I' for Inactive)
REMARK    1  A    between atoms: C_1  and  C_2
REMARK    2  A    between atoms: C_2  and  C_3
REMARK    3  A    between atoms: C_2  and  N_8
REMARK    4  A    between atoms: C_3  and  S_4
REMARK    5  A    between atoms: S_4  and  C_5
REMARK    6  A    between atoms: N_8  and  C_20
REMARK    7  A    between atoms: N_11  and  C_12
REMARK                            x       y       z     vdW  Elec       q    Type
REMARK                         _______ _______ _______ _____ _____    ______ ____
ROOT
ATOM      1  N   UNL     1       1.344   9.032  19.532  0.00  0.00    +0.000 N 
ATOM      2  C   UNL     1       2.071   8.403  18.487  0.00  0.00    +0.000 C 
ATOM      3  O   UNL     1       2.328   8.958  17.426  0.00  0.00    +0.000 OA
ATOM      4  N   UNL     1       2.472   7.117  18.798  0.00  0.00    +0.000 N 
ATOM      5  H   UNL     1       2.031   6.695  19.601  0.00  0.00    +0.000 HD
ENDROOT
BRANCH   4   6
ATOM      6  C   UNL     1       3.243   6.213  18.034  0.00  0.00    +0.000 A 
ATOM      7  C   UNL     1       4.366   6.589  17.297  0.00  0.00    +0.000 A 
ATOM      8  C   UNL     1       5.050   5.636  16.544  0.00  0.00    +0.000 A 
ATOM      9  F   UNL     1       6.124   6.003  15.835  0.00  0.00    +0.000 F 
ATOM     10  C   UNL     1       4.643   4.306  16.513  0.00  0.00    +0.000 A 
ATOM     11  C   UNL     1       3.542   3.908  17.265  0.00  0.00    +0.000 A 
ATOM     12  C   UNL     1       2.852   4.856  18.026  0.00  0.00    +0.000 A 
ATOM     13 CL   UNL     1       1.495   4.315  18.959  0.00  0.00    +0.000 Cl
ENDBRANCH   4   6
BRANCH   1  14
ATOM     14  C   UNL     1       1.084   8.356  20.794  0.00  0.00    +0.000 C 
ATOM     15  C   UNL     1       1.389   9.070  22.093  0.00  0.00    +0.000 C 
ATOM     16  C   UNL     1      -0.021   8.716  21.753  0.00  0.00    +0.000 C 
ENDBRANCH   1  14
BRANCH   1  18
ATOM     17  C   UNL     1       1.479  11.549  19.030  0.00  0.00    +0.000 C 
ATOM     18  C   UNL     1       0.619  10.312  19.306  0.00  0.00    +0.000 C 
BRANCH  18  19
ATOM     19  C   UNL     1      -0.593  10.187  18.373  0.00  0.00    +0.000 C 
BRANCH  19  20
ATOM     20  S   UNL     1      -1.787  11.500  18.467  0.00  0.00    +0.000 S 
ATOM     21  C   UNL     1      -3.235  10.755  17.757  0.00  0.00    +0.000 C 
ATOM     22  O   UNL     1      -2.108  11.749  19.857  0.00  0.00    +0.000 OA
ATOM     23  O   UNL     1      -1.389  12.561  17.562  0.00  0.00    +0.000 OA
ENDBRANCH  19  20
ENDBRANCH  18  19
ENDBRANCH   1  18
TORSDOF 5
ENDMDL
MODEL 3
REMARK VINA RESULT:      -6.7      1.990      2.759
REMARK  Name = 
REMARK  7 active torsions:
REMARK  status: ('A' for Active; 'I' for Inactive)
REMARK    1  A    between atoms: C_1  and  C_2
REMARK    2  A    between atoms: C_2  and  C_3
REMARK    3  A    between atoms: C_2  and  N_8
REMARK    4  A    between atoms: C_3  and  S_4
REMARK    5  A    between atoms: S_4  and  C_5
REMARK    6  A    between atoms: N_8  and  C_20
REMARK    7  A    between atoms: N_11  and  C_12
REMARK                            x       y       z     vdW  Elec       q    Type
REMARK                         _______ _______ _______ _____ _____    ______ ____
ROOT
ATOM      1  N   UNL     1       4.159   4.980  17.195  0.00  0.00    +0.000 N 
ATOM      2  C   UNL     1       3.834   6.348  17.385  0.00  0.00    +0.000 C 
ATOM      3  O   UNL     1       4.367   7.253  16.755  0.00  0.00    +0.000 OA
ATOM      4  N   UNL     1       2.848   6.549  18.333  0.00  0.00    +0.000 N 
ATOM      5  H   UNL     1       2.635   5.764  18.928  0.00  0.00    +0.000 HD
ENDROOT
BRANCH   4   6
ATOM      6  C   UNL     1       2.242   7.756  18.748  0.00  0.00    +0.000 A 
ATOM      7  C   UNL     1       2.233   8.919  17.979  0.00  0.00    +0.000 A 
ATOM      8  C   UNL     1       1.640  10.076  18.481  0.00  0.00    +0.000 A 
ATOM      9  F   UNL     1       1.637  11.191  17.740  0.00  0.00    +0.000 F 
ATOM     10  C   UNL     1       1.044  10.101  19.738  0.00  0.00    +0.000 A 
ATOM     11  C   UNL     1       1.020   8.942  20.507  0.00  0.00    +0.000 A 
ATOM     12  C   UNL     1       1.609   7.775  20.011  0.00  0.00    +0.000 A 
ATOM     13 CL   UNL     1       1.544   6.350  20.996  0.00  0.00    +0.000 Cl
ENDBRANCH   4   6
BRANCH   1  14
ATOM     14  C   UNL     1       3.483   3.926  17.937  0.00  0.00    +0.000 C 
ATOM     15  C   UNL     1       2.385   3.132  17.262  0.00  0.00    +0.000 C 
ATOM     16  C   UNL     1       3.646   2.450  17.680  0.00  0.00    +0.000 C 
ENDBRANCH   1  14
BRANCH   1  18
ATOM     17  C   UNL     1       5.145   4.346  14.907  0.00  0.00    +0.000 C 
ATOM     18  C   UNL     1       5.355   4.571  16.408  0.00  0.00    +0.000 C 
BRANCH  18  19
ATOM     19  C   UNL     1       6.622   5.371  16.737  0.00  0.00    +0.000 C 
BRANCH  19  20
ATOM     20  S   UNL     1       7.452   4.930  18.245  0.00  0.00    +0.000 S 
ATOM     21  C   UNL     1       8.106   6.487  18.794  0.00  0.00    +0.000 C 
ATOM     22  O   UNL     1       6.465   4.543  19.233  0.00  0.00    +0.000 OA
ATOM     23  O   UNL     1       8.595   4.097  17.925  0.00  0.00    +0.000 OA
ENDBRANCH  19  20
ENDBRANCH  18  19
ENDBRANCH   1  18
TORSDOF 5
ENDMDL
MODEL 4
REMARK VINA RESULT:      -6.6      2.584      3.582
REMARK  Name = 
REMARK  7 active torsions:
REMARK  status: ('A' for Active; 'I' for Inactive)
REMARK    1  A    between atoms: C_1  and  C_2
REMARK    2  A    between atoms: C_2  and  C_3
REMARK    3  A    between atoms: C_2  and  N_8
REMARK    4  A    between atoms: C_3  and  S_4
REMARK    5  A    between atoms: S_4  and  C_5
REMARK    6  A    between atoms: N_8  and  C_20
REMARK    7  A    between atoms: N_11  and  C_12
REMARK                            x       y       z     vdW  Elec       q    Type
REMARK                         _______ _______ _______ _____ _____    ______ ____
ROOT
ATOM      1  N   UNL     1       3.140   5.811  18.676  0.00  0.00    +0.000 N 
ATOM      2  C   UNL     1       2.278   6.371  19.655  0.00  0.00    +0.000 C 
ATOM      3  O   UNL     1       1.764   5.708  20.548  0.00  0.00    +0.000 OA
ATOM      4  N   UNL     1       2.098   7.734  19.509  0.00  0.00    +0.000 N 
ATOM      5  H   UNL     1       2.394   8.131  18.631  0.00  0.00    +0.000 HD
ENDROOT
BRANCH   4   6
ATOM      6  C   UNL     1       1.357   8.628  20.314  0.00  0.00    +0.000 A 
ATOM      7  C   UNL     1       1.337   8.576  21.707  0.00  0.00    +0.000 A 
ATOM      8  C   UNL     1       0.551   9.478  22.422  0.00  0.00    +0.000 A 
ATOM      9  F   UNL     1       0.532   9.421  23.760  0.00  0.00    +0.000 F 
ATOM     10  C   UNL     1      -0.217  10.442  21.777  0.00  0.00    +0.000 A 
ATOM     11  C   UNL     1      -0.188  10.526  20.389  0.00  0.00    +0.000 A 
ATOM     12  C   UNL     1       0.601   9.628  19.663  0.00  0.00    +0.000 A 
ATOM     13 CL   UNL     1       0.620   9.777  17.937  0.00  0.00    +0.000 Cl
ENDBRANCH   4   6
BRANCH   1  14
ATOM     14  C   UNL     1       3.761   6.633  17.648  0.00  0.00    +0.000 C 
ATOM     15  C   UNL     1       5.222   7.007  17.781  0.00  0.00    +0.000 C 
ATOM     16  C   UNL     1       4.777   6.141  16.649  0.00  0.00    +0.000 C 
ENDBRANCH   1  14
BRANCH   1  18
ATOM     17  C   UNL     1       3.066   3.787  17.094  0.00  0.00    +0.000 C 
ATOM     18  C   UNL     1       3.266   4.337  18.510  0.00  0.00    +0.000 C 
BRANCH  18  19
ATOM     19  C   UNL     1       4.470   3.727  19.241  0.00  0.00    +0.000 C 
BRANCH  19  20
ATOM     20  S   UNL     1       4.190   2.157  20.024  0.00  0.00    +0.000 S 
ATOM     21  C   UNL     1       2.741   2.468  21.003  0.00  0.00    +0.000 C 
ATOM     22  O   UNL     1       3.792   1.191  19.020  0.00  0.00    +0.000 OA
ATOM     23  O   UNL     1       5.268   1.901  20.960  0.00  0.00    +0.000 OA
ENDBRANCH  19  20
ENDBRANCH  18  19
ENDBRANCH   1  18
TORSDOF 5
ENDMDL
MODEL 5
REMARK VINA RESULT:      -6.4      2.426      2.939
REMARK  Name = 
REMARK  7 active torsions:
REMARK  status: ('A' for Active; 'I' for Inactive)
REMARK    1  A    between atoms: C_1  and  C_2
REMARK    2  A    between atoms: C_2  and  C_3
REMARK    3  A    between atoms: C_2  and  N_8
REMARK    4  A    between atoms: C_3  and  S_4
REMARK    5  A    between atoms: S_4  and  C_5
REMARK    6  A    between atoms: N_8  and  C_20
REMARK    7  A    between atoms: N_11  and  C_12
REMARK                            x       y       z     vdW  Elec       q    Type
REMARK                         _______ _______ _______ _____ _____    ______ ____
ROOT
ATOM      1  N   UNL     1       3.358   4.669  19.040  0.00  0.00    +0.000 N 
ATOM      2  C   UNL     1       3.324   6.006  19.516  0.00  0.00    +0.000 C 
ATOM      3  O   UNL     1       4.333   6.677  19.688  0.00  0.00    +0.000 OA
ATOM      4  N   UNL     1       2.042   6.472  19.743  0.00  0.00    +0.000 N 
ATOM      5  H   UNL     1       1.313   5.777  19.769  0.00  0.00    +0.000 HD
ENDROOT
BRANCH   4   6
ATOM      6  C   UNL     1       1.621   7.752  20.168  0.00  0.00    +0.000 A 
ATOM      7  C   UNL     1       1.304   8.059  21.491  0.00  0.00    +0.000 A 
ATOM      8  C   UNL     1       0.865   9.341  21.816  0.00  0.00    +0.000 A 
ATOM      9  F   UNL     1       0.557   9.631  23.087  0.00  0.00    +0.000 F 
ATOM     10  C   UNL     1       0.739  10.334  20.850  0.00  0.00    +0.000 A 
ATOM     11  C   UNL     1       1.078  10.052  19.530  0.00  0.00    +0.000 A 
ATOM     12  C   UNL     1       1.523   8.770  19.194  0.00  0.00    +0.000 A 
ATOM     13 CL   UNL     1       1.948   8.466  17.542  0.00  0.00    +0.000 Cl
ENDBRANCH   4   6
BRANCH   1  14
ATOM     14  C   UNL     1       2.137   3.908  18.815  0.00  0.00    +0.000 C 
ATOM     15  C   UNL     1       1.376   4.096  17.520  0.00  0.00    +0.000 C 
ATOM     16  C   UNL     1       1.997   2.775  17.832  0.00  0.00    +0.000 C 
ENDBRANCH   1  14
BRANCH   1  18
ATOM     17  C   UNL     1       4.597   2.460  19.477  0.00  0.00    +0.000 C 
ATOM     18  C   UNL     1       4.634   3.905  18.971  0.00  0.00    +0.000 C 
BRANCH  18  19
ATOM     19  C   UNL     1       5.390   4.072  17.646  0.00  0.00    +0.000 C 
BRANCH  19  20
ATOM     20  S   UNL     1       6.971   4.876  17.747  0.00  0.00    +0.000 S 
ATOM     21  C   UNL     1       6.612   6.508  17.144  0.00  0.00    +0.000 C 
ATOM     22  O   UNL     1       7.332   5.037  19.141  0.00  0.00    +0.000 OA
ATOM     23  O   UNL     1       7.868   4.272  16.781  0.00  0.00    +0.000 OA
ENDBRANCH  19  20
ENDBRANCH  18  19
ENDBRANCH   1  18
TORSDOF 5
ENDMDL
MODEL 6
REMARK VINA RESULT:      -6.4      2.189      2.537
REMARK  Name = 
REMARK  7 active torsions:
REMARK  status: ('A' for Active; 'I' for Inactive)
REMARK    1  A    between atoms: C_1  and  C_2
REMARK    2  A    between atoms: C_2  and  C_3
REMARK    3  A    between atoms: C_2  and  N_8
REMARK    4  A    between atoms: C_3  and  S_4
REMARK    5  A    between atoms: S_4  and  C_5
REMARK    6  A    between atoms: N_8  and  C_20
REMARK    7  A    between atoms: N_11  and  C_12
REMARK                            x       y       z     vdW  Elec       q    Type
REMARK                         _______ _______ _______ _____ _____    ______ ____
ROOT
ATOM      1  N   UNL     1       3.476   5.378  18.165  0.00  0.00    +0.000 N 
ATOM      2  C   UNL     1       3.468   6.796  18.227  0.00  0.00    +0.000 C 
ATOM      3  O   UNL     1       4.413   7.484  17.858  0.00  0.00    +0.000 OA
ATOM      4  N   UNL     1       2.287   7.315  18.724  0.00  0.00    +0.000 N 
ATOM      5  H   UNL     1       1.673   6.662  19.185  0.00  0.00    +0.000 HD
ENDROOT
BRANCH   4   6
ATOM      6  C   UNL     1       1.904   8.665  18.885  0.00  0.00    +0.000 A 
ATOM      7  C   UNL     1       2.202   9.667  17.962  0.00  0.00    +0.000 A 
ATOM      8  C   UNL     1       1.813  10.980  18.217  0.00  0.00    +0.000 A 
ATOM      9  F   UNL     1       2.106  11.939  17.329  0.00  0.00    +0.000 F 
ATOM     10  C   UNL     1       1.121  11.322  19.374  0.00  0.00    +0.000 A 
ATOM     11  C   UNL     1       0.790  10.330  20.292  0.00  0.00    +0.000 A 
ATOM     12  C   UNL     1       1.174   9.008  20.044  0.00  0.00    +0.000 A 
ATOM     13 CL   UNL     1       0.729   7.803  21.207  0.00  0.00    +0.000 Cl
ENDBRANCH   4   6
BRANCH   1  14
ATOM     14  C   UNL     1       2.324   4.591  18.581  0.00  0.00    +0.000 C 
ATOM     15  C   UNL     1       1.259   4.242  17.563  0.00  0.00    +0.000 C 
ATOM     16  C   UNL     1       2.073   3.158  18.188  0.00  0.00    +0.000 C 
ENDBRANCH   1  14
BRANCH   1  18
ATOM     17  C   UNL     1       5.129   3.564  18.929  0.00  0.00    +0.000 C 
ATOM     18  C   UNL     1       4.730   4.622  17.895  0.00  0.00    +0.000 C 
BRANCH  18  19
ATOM     19  C   UNL     1       4.872   4.146  16.443  0.00  0.00    +0.000 C 
BRANCH  19  20
ATOM     20  S   UNL     1       6.152   4.926  15.489  0.00  0.00    +0.000 S 
ATOM     21  C   UNL     1       6.155   3.968  13.993  0.00  0.00    +0.000 C 
ATOM     22  O   UNL     1       5.717   6.255  15.110  0.00  0.00    +0.000 OA
ATOM     23  O   UNL     1       7.430   4.684  16.132  0.00  0.00    +0.000 OA
ENDBRANCH  19  20
ENDBRANCH  18  19
ENDBRANCH   1  18
TORSDOF 5
ENDMDL
MODEL 7
REMARK VINA RESULT:      -6.3      3.885      6.892
REMARK  Name = 
REMARK  7 active torsions:
REMARK  status: ('A' for Active; 'I' for Inactive)
REMARK    1  A    between atoms: C_1  and  C_2
REMARK    2  A    between atoms: C_2  and  C_3
REMARK    3  A    between atoms: C_2  and  N_8
REMARK    4  A    between atoms: C_3  and  S_4
REMARK    5  A    between atoms: S_4  and  C_5
REMARK    6  A    between atoms: N_8  and  C_20
REMARK    7  A    between atoms: N_11  and  C_12
REMARK                            x       y       z     vdW  Elec       q    Type
REMARK                         _______ _______ _______ _____ _____    ______ ____
ROOT
ATOM      1  N   UNL     1       1.096   9.247  19.508  0.00  0.00    +0.000 N 
ATOM      2  C   UNL     1       1.902   8.633  18.514  0.00  0.00    +0.000 C 
ATOM      3  O   UNL     1       2.226   9.198  17.476  0.00  0.00    +0.000 OA
ATOM      4  N   UNL     1       2.295   7.349  18.844  0.00  0.00    +0.000 N 
ATOM      5  H   UNL     1       1.804   6.916  19.611  0.00  0.00    +0.000 HD
ENDROOT
BRANCH   4   6
ATOM      6  C   UNL     1       3.129   6.459  18.131  0.00  0.00    +0.000 A 
ATOM      7  C   UNL     1       4.231   6.869  17.381  0.00  0.00    +0.000 A 
ATOM      8  C   UNL     1       4.981   5.925  16.682  0.00  0.00    +0.000 A 
ATOM      9  F   UNL     1       6.036   6.324  15.960  0.00  0.00    +0.000 F 
ATOM     10  C   UNL     1       4.661   4.572  16.717  0.00  0.00    +0.000 A 
ATOM     11  C   UNL     1       3.582   4.142  17.482  0.00  0.00    +0.000 A 
ATOM     12  C   UNL     1       2.826   5.081  18.191  0.00  0.00    +0.000 A 
ATOM     13 CL   UNL     1       1.499   4.501  19.143  0.00  0.00    +0.000 Cl
ENDBRANCH   4   6
BRANCH   1  14
ATOM     14  C   UNL     1       0.756   8.559  20.745  0.00  0.00    +0.000 C 
ATOM     15  C   UNL     1       1.553   8.851  21.998  0.00  0.00    +0.000 C 
ATOM     16  C   UNL     1       0.104   9.206  21.939  0.00  0.00    +0.000 C 
ENDBRANCH   1  14
BRANCH   1  18
ATOM     17  C   UNL     1      -1.156  10.468  19.310  0.00  0.00    +0.000 C 
ATOM     18  C   UNL     1       0.373  10.520  19.239  0.00  0.00    +0.000 C 
BRANCH  18  19
ATOM     19  C   UNL     1       0.979  11.742  19.943  0.00  0.00    +0.000 C 
BRANCH  19  20
ATOM     20  S   UNL     1       1.484  13.078  18.885  0.00  0.00    +0.000 S 
ATOM     21  C   UNL     1       2.226  14.215  20.029  0.00  0.00    +0.000 C 
ATOM     22  O   UNL     1       2.557  12.621  18.025  0.00  0.00    +0.000 OA
ATOM     23  O   UNL     1       0.301  13.736  18.364  0.00  0.00    +0.000 OA
ENDBRANCH  19  20
ENDBRANCH  18  19
ENDBRANCH   1  18
TORSDOF 5
ENDMDL
MODEL 8
REMARK VINA RESULT:      -6.3      2.863      4.036
REMARK  Name = 
REMARK  7 active torsions:
REMARK  status: ('A' for Active; 'I' for Inactive)
REMARK    1  A    between atoms: C_1  and  C_2
REMARK    2  A    between atoms: C_2  and  C_3
REMARK    3  A    between atoms: C_2  and  N_8
REMARK    4  A    between atoms: C_3  and  S_4
REMARK    5  A    between atoms: S_4  and  C_5
REMARK    6  A    between atoms: N_8  and  C_20
REMARK    7  A    between atoms: N_11  and  C_12
REMARK                            x       y       z     vdW  Elec       q    Type
REMARK                         _______ _______ _______ _____ _____    ______ ____
ROOT
ATOM      1  N   UNL     1       3.625   5.992  18.719  0.00  0.00    +0.000 N 
ATOM      2  C   UNL     1       2.732   6.486  19.706  0.00  0.00    +0.000 C 
ATOM      3  O   UNL     1       2.434   5.853  20.712  0.00  0.00    +0.000 OA
ATOM      4  N   UNL     1       2.253   7.752  19.425  0.00  0.00    +0.000 N 
ATOM      5  H   UNL     1       2.396   8.084  18.484  0.00  0.00    +0.000 HD
ENDROOT
BRANCH   4   6
ATOM      6  C   UNL     1       1.393   8.571  20.191  0.00  0.00    +0.000 A 
ATOM      7  C   UNL     1       1.296   8.500  21.580  0.00  0.00    +0.000 A 
ATOM      8  C   UNL     1       0.396   9.325  22.253  0.00  0.00    +0.000 A 
ATOM      9  F   UNL     1       0.304   9.250  23.587  0.00  0.00    +0.000 F 
ATOM     10  C   UNL     1      -0.411  10.230  21.571  0.00  0.00    +0.000 A 
ATOM     11  C   UNL     1      -0.307  10.333  20.188  0.00  0.00    +0.000 A 
ATOM     12  C   UNL     1       0.596   9.513  19.504  0.00  0.00    +0.000 A 
ATOM     13 CL   UNL     1       0.704   9.684  17.783  0.00  0.00    +0.000 Cl
ENDBRANCH   4   6
BRANCH   1  14
ATOM     14  C   UNL     1       3.983   6.784  17.551  0.00  0.00    +0.000 C 
ATOM     15  C   UNL     1       5.417   7.235  17.374  0.00  0.00    +0.000 C 
ATOM     16  C   UNL     1       4.809   6.287  16.394  0.00  0.00    +0.000 C 
ENDBRANCH   1  14
BRANCH   1  18
ATOM     17  C   UNL     1       5.451   4.266  19.259  0.00  0.00    +0.000 C 
ATOM     18  C   UNL     1       4.054   4.567  18.708  0.00  0.00    +0.000 C 
BRANCH  18  19
ATOM     19  C   UNL     1       2.978   3.587  19.196  0.00  0.00    +0.000 C 
BRANCH  19  20
ATOM     20  S   UNL     1       1.799   3.056  17.978  0.00  0.00    +0.000 S 
ATOM     21  C   UNL     1       0.554   2.265  18.967  0.00  0.00    +0.000 C 
ATOM     22  O   UNL     1       1.163   4.220  17.395  0.00  0.00    +0.000 OA
ATOM     23  O   UNL     1       2.399   2.014  17.167  0.00  0.00    +0.000 OA
ENDBRANCH  19  20
ENDBRANCH  18  19
ENDBRANCH   1  18
TORSDOF 5
ENDMDL
MODEL 9
REMARK VINA RESULT:      -6.3      1.469      1.535
REMARK  Name = 
REMARK  7 active torsions:
REMARK  status: ('A' for Active; 'I' for Inactive)
REMARK    1  A    between atoms: C_1  and  C_2
REMARK    2  A    between atoms: C_2  and  C_3
REMARK    3  A    between atoms: C_2  and  N_8
REMARK    4  A    between atoms: C_3  and  S_4
REMARK    5  A    between atoms: S_4  and  C_5
REMARK    6  A    between atoms: N_8  and  C_20
REMARK    7  A    between atoms: N_11  and  C_12
REMARK                            x       y       z     vdW  Elec       q    Type
REMARK                         _______ _______ _______ _____ _____    ______ ____
ROOT
ATOM      1  N   UNL     1       3.043   6.114  19.007  0.00  0.00    +0.000 N 
ATOM      2  C   UNL     1       2.561   7.420  18.729  0.00  0.00    +0.000 C 
ATOM      3  O   UNL     1       2.832   8.024  17.698  0.00  0.00    +0.000 OA
ATOM      4  N   UNL     1       1.747   7.926  19.725  0.00  0.00    +0.000 N 
ATOM      5  H   UNL     1       1.765   7.437  20.606  0.00  0.00    +0.000 HD
ENDROOT
BRANCH   4   6
ATOM      6  C   UNL     1       1.059   9.158  19.774  0.00  0.00    +0.000 A 
ATOM      7  C   UNL     1       0.480   9.763  18.659  0.00  0.00    +0.000 A 
ATOM      8  C   UNL     1      -0.154  10.997  18.792  0.00  0.00    +0.000 A 
ATOM      9  F   UNL     1      -0.704  11.576  17.717  0.00  0.00    +0.000 F 
ATOM     10  C   UNL     1      -0.232  11.645  20.020  0.00  0.00    +0.000 A 
ATOM     11  C   UNL     1       0.316  11.043  21.149  0.00  0.00    +0.000 A 
ATOM     12  C   UNL     1       0.950   9.803  21.026  0.00  0.00    +0.000 A 
ATOM     13 CL   UNL     1       1.605   9.082  22.459  0.00  0.00    +0.000 Cl
ENDBRANCH   4   6
BRANCH   1  14
ATOM     14  C   UNL     1       2.675   5.410  20.227  0.00  0.00    +0.000 C 
ATOM     15  C   UNL     1       1.461   4.506  20.224  0.00  0.00    +0.000 C 
ATOM     16  C   UNL     1       2.820   3.926  20.443  0.00  0.00    +0.000 C 
ENDBRANCH   1  14
BRANCH   1  18
ATOM     17  C   UNL     1       3.672   4.597  17.030  0.00  0.00    +0.000 C 
ATOM     18  C   UNL     1       4.120   5.495  18.187  0.00  0.00    +0.000 C 
BRANCH  18  19
ATOM     19  C   UNL     1       5.251   6.463  17.810  0.00  0.00    +0.000 C 
BRANCH  19  20
ATOM     20  S   UNL     1       6.856   5.734  17.587  0.00  0.00    +0.000 S 
ATOM     21  C   UNL     1       7.902   6.811  18.536  0.00  0.00    +0.000 C 
ATOM     22  O   UNL     1       6.891   4.451  18.258  0.00  0.00    +0.000 OA
ATOM     23  O   UNL     1       7.255   5.895  16.202  0.00  0.00    +0.000 OA
ENDBRANCH  19  20
ENDBRANCH  18  19
ENDBRANCH   1  18
TORSDOF 5
ENDMDL
