MODEL 1
REMARK VINA RESULT:      -7.6      0.000      0.000
REMARK  Name = 
REMARK  4 active torsions:
REMARK  status: ('A' for Active; 'I' for Inactive)
REMARK    1  A    between atoms: C_1  and  S_2
REMARK    2  A    between atoms: S_2  and  N_5
REMARK    3  A    between atoms: C_8  and  C_9
REMARK    4  A    between atoms: N_11  and  C_12
REMARK                            x       y       z     vdW  Elec       q    Type
REMARK                         _______ _______ _______ _____ _____    ______ ____
ROOT
ATOM      1  C   UNL     1       2.703   5.181  19.013  0.00  0.00    +0.000 C 
ATOM      2  O   UNL     1       1.675   4.990  18.363  0.00  0.00    +0.000 OA
ATOM      3  N   UNL     1       3.020   6.379  19.626  0.00  0.00    +0.000 N 
ATOM      4  H   UNL     1       3.989   6.553  19.879  0.00  0.00    +0.000 HD
ENDROOT
BRANCH   3   5
ATOM      5  C   UNL     1       2.148   7.493  19.731  0.00  0.00    +0.000 A 
ATOM      6  C   UNL     1       1.417   7.786  20.886  0.00  0.00    +0.000 A 
ATOM      7  C   UNL     1       0.565   8.893  20.929  0.00  0.00    +0.000 A 
ATOM      8  C   UNL     1       0.447   9.722  19.818  0.00  0.00    +0.000 A 
ATOM      9 BR   UNL     1      -0.716  11.211  19.889  0.00  0.00    +0.000 Br
ATOM     10  C   UNL     1       1.179   9.461  18.664  0.00  0.00    +0.000 A 
ATOM     11  C   UNL     1       2.029   8.356  18.635  0.00  0.00    +0.000 A 
ATOM     12  F   UNL     1       2.729   8.107  17.516  0.00  0.00    +0.000 F 
ENDBRANCH   3   5
BRANCH   1  16
ATOM     13  N   UNL     1       5.599   4.441  16.927  0.00  0.00    +0.000 NA
ATOM     14  C   UNL     1       5.664   5.359  18.092  0.00  0.00    +0.000 C 
ATOM     15  C   UNL     1       5.151   4.672  19.358  0.00  0.00    +0.000 C 
ATOM     16  C   UNL     1       3.748   4.072  19.172  0.00  0.00    +0.000 C 
ATOM     17  C   UNL     1       3.781   3.117  17.976  0.00  0.00    +0.000 C 
ATOM     18  C   UNL     1       4.277   3.805  16.708  0.00  0.00    +0.000 C 
BRANCH  13  20
ATOM     19  C   UNL     1       5.729   3.933  14.246  0.00  0.00    +0.000 C 
ATOM     20  S   UNL     1       6.370   5.018  15.512  0.00  0.00    +0.000 S 
ATOM     21  O   UNL     1       7.788   4.752  15.640  0.00  0.00    +0.000 OA
ATOM     22  O   UNL     1       5.882   6.354  15.244  0.00  0.00    +0.000 OA
ENDBRANCH  13  20
ENDBRANCH   1  16
TORSDOF 3
ENDMDL
MODEL 2
REMARK VINA RESULT:      -7.5      1.226      1.622
REMARK  Name = 
REMARK  4 active torsions:
REMARK  status: ('A' for Active; 'I' for Inactive)
REMARK    1  A    between atoms: C_1  and  S_2
REMARK    2  A    between atoms: S_2  and  N_5
REMARK    3  A    between atoms: C_8  and  C_9
REMARK    4  A    between atoms: N_11  and  C_12
REMARK                            x       y       z     vdW  Elec       q    Type
REMARK                         _______ _______ _______ _____ _____    ______ ____
ROOT
ATOM      1  C   UNL     1       2.361   5.214  18.474  0.00  0.00    +0.000 C 
ATOM      2  O   UNL     1       1.357   5.192  17.760  0.00  0.00    +0.000 OA
ATOM      3  N   UNL     1       2.879   6.361  19.045  0.00  0.00    +0.000 N 
ATOM      4  H   UNL     1       3.846   6.352  19.360  0.00  0.00    +0.000 HD
ENDROOT
BRANCH   3   5
ATOM      5  C   UNL     1       2.252   7.633  19.026  0.00  0.00    +0.000 A 
ATOM      6  C   UNL     1       2.302   8.493  17.925  0.00  0.00    +0.000 A 
ATOM      7  C   UNL     1       1.672   9.741  17.965  0.00  0.00    +0.000 A 
ATOM      8  C   UNL     1       0.978  10.132  19.106  0.00  0.00    +0.000 A 
ATOM      9 BR   UNL     1       0.139  11.825  19.149  0.00  0.00    +0.000 Br
ATOM     10  C   UNL     1       0.899   9.284  20.207  0.00  0.00    +0.000 A 
ATOM     11  C   UNL     1       1.528   8.041  20.153  0.00  0.00    +0.000 A 
ATOM     12  F   UNL     1       1.452   7.230  21.221  0.00  0.00    +0.000 F 
ENDBRANCH   3   5
BRANCH   1  16
ATOM     13  N   UNL     1       5.695   4.251  17.363  0.00  0.00    +0.000 NA
ATOM     14  C   UNL     1       5.455   4.990  18.628  0.00  0.00    +0.000 C 
ATOM     15  C   UNL     1       4.449   4.249  19.510  0.00  0.00    +0.000 C 
ATOM     16  C   UNL     1       3.142   3.929  18.769  0.00  0.00    +0.000 C 
ATOM     17  C   UNL     1       3.480   3.141  17.501  0.00  0.00    +0.000 C 
ATOM     18  C   UNL     1       4.470   3.886  16.611  0.00  0.00    +0.000 C 
BRANCH  13  20
ATOM     19  C   UNL     1       6.597   4.217  14.785  0.00  0.00    +0.000 C 
ATOM     20  S   UNL     1       6.979   4.859  16.407  0.00  0.00    +0.000 S 
ATOM     21  O   UNL     1       8.202   4.224  16.853  0.00  0.00    +0.000 OA
ATOM     22  O   UNL     1       6.861   6.300  16.356  0.00  0.00    +0.000 OA
ENDBRANCH  13  20
ENDBRANCH   1  16
TORSDOF 3
ENDMDL
MODEL 3
REMARK VINA RESULT:      -7.5      1.439      2.091
REMARK  Name = 
REMARK  4 active torsions:
REMARK  status: ('A' for Active; 'I' for Inactive)
REMARK    1  A    between atoms: C_1  and  S_2
REMARK    2  A    between atoms: S_2  and  N_5
REMARK    3  A    between atoms: C_8  and  C_9
REMARK    4  A    between atoms: N_11  and  C_12
REMARK                            x       y       z     vdW  Elec       q    Type
REMARK                         _______ _______ _______ _____ _____    ______ ____
ROOT
ATOM      1  C   UNL     1       2.425   5.108  18.510  0.00  0.00    +0.000 C 
ATOM      2  O   UNL     1       1.550   5.110  17.644  0.00  0.00    +0.000 OA
ATOM      3  N   UNL     1       2.853   6.239  19.181  0.00  0.00    +0.000 N 
ATOM      4  H   UNL     1       3.756   6.215  19.646  0.00  0.00    +0.000 HD
ENDROOT
BRANCH   3   5
ATOM      5  C   UNL     1       2.244   7.517  19.087  0.00  0.00    +0.000 A 
ATOM      6  C   UNL     1       2.295   8.306  17.934  0.00  0.00    +0.000 A 
ATOM      7  C   UNL     1       1.685   9.562  17.901  0.00  0.00    +0.000 A 
ATOM      8  C   UNL     1       1.009  10.036  19.022  0.00  0.00    +0.000 A 
ATOM      9 BR   UNL     1       0.197  11.741  18.966  0.00  0.00    +0.000 Br
ATOM     10  C   UNL     1       0.930   9.260  20.175  0.00  0.00    +0.000 A 
ATOM     11  C   UNL     1       1.539   8.006  20.193  0.00  0.00    +0.000 A 
ATOM     12  F   UNL     1       1.462   7.265  21.311  0.00  0.00    +0.000 F 
ENDBRANCH   3   5
BRANCH   1  16
ATOM     13  N   UNL     1       5.861   4.094  17.840  0.00  0.00    +0.000 NA
ATOM     14  C   UNL     1       5.469   4.835  19.065  0.00  0.00    +0.000 C 
ATOM     15  C   UNL     1       4.346   4.109  19.806  0.00  0.00    +0.000 C 
ATOM     16  C   UNL     1       3.141   3.811  18.899  0.00  0.00    +0.000 C 
ATOM     17  C   UNL     1       3.629   3.019  17.684  0.00  0.00    +0.000 C 
ATOM     18  C   UNL     1       4.739   3.750  16.933  0.00  0.00    +0.000 C 
BRANCH  13  20
ATOM     19  C   UNL     1       7.240   6.422  17.465  0.00  0.00    +0.000 C 
ATOM     20  S   UNL     1       7.268   4.682  17.062  0.00  0.00    +0.000 S 
ATOM     21  O   UNL     1       7.068   4.560  15.633  0.00  0.00    +0.000 OA
ATOM     22  O   UNL     1       8.421   4.092  17.708  0.00  0.00    +0.000 OA
ENDBRANCH  13  20
ENDBRANCH   1  16
TORSDOF 3
ENDMDL
MODEL 4
REMARK VINA RESULT:      -7.4      0.717      1.289
REMARK  Name = 
REMARK  4 active torsions:
REMARK  status: ('A' for Active; 'I' for Inactive)
REMARK    1  A    between atoms: C_1  and  S_2
REMARK    2  A    between atoms: S_2  and  N_5
REMARK    3  A    between atoms: C_8  and  C_9
REMARK    4  A    between atoms: N_11  and  C_12
REMARK                            x       y       z     vdW  Elec       q    Type
REMARK                         _______ _______ _______ _____ _____    ______ ____
ROOT
ATOM      1  C   UNL     1       2.489   5.044  18.983  0.00  0.00    +0.000 C 
ATOM      2  O   UNL     1       1.435   4.946  18.354  0.00  0.00    +0.000 OA
ATOM      3  N   UNL     1       2.900   6.195  19.629  0.00  0.00    +0.000 N 
ATOM      4  H   UNL     1       3.885   6.295  19.863  0.00  0.00    +0.000 HD
ENDROOT
BRANCH   3   5
ATOM      5  C   UNL     1       2.109   7.361  19.795  0.00  0.00    +0.000 A 
ATOM      6  C   UNL     1       1.410   7.649  20.972  0.00  0.00    +0.000 A 
ATOM      7  C   UNL     1       0.637   8.809  21.076  0.00  0.00    +0.000 A 
ATOM      8  C   UNL     1       0.566   9.694  20.004  0.00  0.00    +0.000 A 
ATOM      9 BR   UNL     1      -0.491  11.254  20.157  0.00  0.00    +0.000 Br
ATOM     10  C   UNL     1       1.267   9.437  18.831  0.00  0.00    +0.000 A 
ATOM     11  C   UNL     1       2.038   8.278  18.741  0.00  0.00    +0.000 A 
ATOM     12  F   UNL     1       2.709   8.034  17.603  0.00  0.00    +0.000 F 
ENDBRANCH   3   5
BRANCH   1  16
ATOM     13  N   UNL     1       5.707   4.584  17.335  0.00  0.00    +0.000 NA
ATOM     14  C   UNL     1       5.574   5.227  18.667  0.00  0.00    +0.000 C 
ATOM     15  C   UNL     1       4.816   4.320  19.637  0.00  0.00    +0.000 C 
ATOM     16  C   UNL     1       3.460   3.863  19.076  0.00  0.00    +0.000 C 
ATOM     17  C   UNL     1       3.695   3.185  17.724  0.00  0.00    +0.000 C 
ATOM     18  C   UNL     1       4.436   4.094  16.749  0.00  0.00    +0.000 C 
BRANCH  13  20
ATOM     19  C   UNL     1       7.354   6.761  17.226  0.00  0.00    +0.000 C 
ATOM     20  S   UNL     1       6.744   5.400  16.244  0.00  0.00    +0.000 S 
ATOM     21  O   UNL     1       5.925   5.955  15.186  0.00  0.00    +0.000 OA
ATOM     22  O   UNL     1       7.860   4.528  15.945  0.00  0.00    +0.000 OA
ENDBRANCH  13  20
ENDBRANCH   1  16
TORSDOF 3
ENDMDL
MODEL 5
REMARK VINA RESULT:      -7.2      1.406      1.780
REMARK  Name = 
REMARK  4 active torsions:
REMARK  status: ('A' for Active; 'I' for Inactive)
REMARK    1  A    between atoms: C_1  and  S_2
REMARK    2  A    between atoms: S_2  and  N_5
REMARK    3  A    between atoms: C_8  and  C_9
REMARK    4  A    between atoms: N_11  and  C_12
REMARK                            x       y       z     vdW  Elec       q    Type
REMARK                         _______ _______ _______ _____ _____    ______ ____
ROOT
ATOM      1  C   UNL     1       2.371   4.845  18.361  0.00  0.00    +0.000 C 
ATOM      2  O   UNL     1       1.362   4.921  17.659  0.00  0.00    +0.000 OA
ATOM      3  N   UNL     1       2.928   5.918  19.033  0.00  0.00    +0.000 N 
ATOM      4  H   UNL     1       3.896   5.851  19.336  0.00  0.00    +0.000 HD
ENDROOT
BRANCH   3   5
ATOM      5  C   UNL     1       2.339   7.203  19.142  0.00  0.00    +0.000 A 
ATOM      6  C   UNL     1       1.642   7.631  20.276  0.00  0.00    +0.000 A 
ATOM      7  C   UNL     1       1.073   8.907  20.323  0.00  0.00    +0.000 A 
ATOM      8  C   UNL     1       1.206   9.769  19.238  0.00  0.00    +0.000 A 
ATOM      9 BR   UNL     1       0.424  11.487  19.314  0.00  0.00    +0.000 Br
ATOM     10  C   UNL     1       1.912   9.371  18.107  0.00  0.00    +0.000 A 
ATOM     11  C   UNL     1       2.478   8.097  18.073  0.00  0.00    +0.000 A 
ATOM     12  F   UNL     1       3.154   7.718  16.976  0.00  0.00    +0.000 F 
ENDBRANCH   3   5
BRANCH   1  16
ATOM     13  N   UNL     1       5.952   4.186  18.189  0.00  0.00    +0.000 NA
ATOM     14  C   UNL     1       5.261   4.530  19.457  0.00  0.00    +0.000 C 
ATOM     15  C   UNL     1       4.087   3.582  19.713  0.00  0.00    +0.000 C 
ATOM     16  C   UNL     1       3.116   3.517  18.524  0.00  0.00    +0.000 C 
ATOM     17  C   UNL     1       3.904   3.125  17.271  0.00  0.00    +0.000 C 
ATOM     18  C   UNL     1       5.065   4.079  17.005  0.00  0.00    +0.000 C 
BRANCH  13  20
ATOM     19  C   UNL     1       6.865   6.644  17.422  0.00  0.00    +0.000 C 
ATOM     20  S   UNL     1       7.422   5.021  17.922  0.00  0.00    +0.000 S 
ATOM     21  O   UNL     1       8.076   4.413  16.782  0.00  0.00    +0.000 OA
ATOM     22  O   UNL     1       8.103   5.154  19.192  0.00  0.00    +0.000 OA
ENDBRANCH  13  20
ENDBRANCH   1  16
TORSDOF 3
ENDMDL
MODEL 6
REMARK VINA RESULT:      -7.2      1.909      2.514
REMARK  Name = 
REMARK  4 active torsions:
REMARK  status: ('A' for Active; 'I' for Inactive)
REMARK    1  A    between atoms: C_1  and  S_2
REMARK    2  A    between atoms: S_2  and  N_5
REMARK    3  A    between atoms: C_8  and  C_9
REMARK    4  A    between atoms: N_11  and  C_12
REMARK                            x       y       z     vdW  Elec       q    Type
REMARK                         _______ _______ _______ _____ _____    ______ ____
ROOT
ATOM      1  C   UNL     1       2.341   4.632  17.795  0.00  0.00    +0.000 C 
ATOM      2  O   UNL     1       1.148   4.651  17.490  0.00  0.00    +0.000 OA
ATOM      3  N   UNL     1       3.023   5.715  18.319  0.00  0.00    +0.000 N 
ATOM      4  H   UNL     1       4.038   5.722  18.265  0.00  0.00    +0.000 HD
ENDROOT
BRANCH   3   5
ATOM      5  C   UNL     1       2.421   6.933  18.728  0.00  0.00    +0.000 A 
ATOM      6  C   UNL     1       2.268   8.033  17.878  0.00  0.00    +0.000 A 
ATOM      7  C   UNL     1       1.677   9.212  18.338  0.00  0.00    +0.000 A 
ATOM      8  C   UNL     1       1.223   9.296  19.651  0.00  0.00    +0.000 A 
ATOM      9 BR   UNL     1       0.433  10.901  20.261  0.00  0.00    +0.000 Br
ATOM     10  C   UNL     1       1.348   8.208  20.509  0.00  0.00    +0.000 A 
ATOM     11  C   UNL     1       1.937   7.035  20.037  0.00  0.00    +0.000 A 
ATOM     12  F   UNL     1       2.058   5.990  20.873  0.00  0.00    +0.000 F 
ENDBRANCH   3   5
BRANCH   1  16
ATOM     13  N   UNL     1       5.937   4.186  18.184  0.00  0.00    +0.000 NA
ATOM     14  C   UNL     1       4.978   3.964  19.294  0.00  0.00    +0.000 C 
ATOM     15  C   UNL     1       3.891   2.968  18.886  0.00  0.00    +0.000 C 
ATOM     16  C   UNL     1       3.185   3.372  17.582  0.00  0.00    +0.000 C 
ATOM     17  C   UNL     1       4.241   3.546  16.488  0.00  0.00    +0.000 C 
ATOM     18  C   UNL     1       5.317   4.552  16.887  0.00  0.00    +0.000 C 
BRANCH  13  20
ATOM     19  C   UNL     1       7.124   6.587  17.648  0.00  0.00    +0.000 C 
ATOM     20  S   UNL     1       7.327   5.092  18.604  0.00  0.00    +0.000 S 
ATOM     21  O   UNL     1       8.485   4.394  18.085  0.00  0.00    +0.000 OA
ATOM     22  O   UNL     1       7.231   5.442  20.006  0.00  0.00    +0.000 OA
ENDBRANCH  13  20
ENDBRANCH   1  16
TORSDOF 3
ENDMDL
MODEL 7
REMARK VINA RESULT:      -6.9      0.918      1.060
REMARK  Name = 
REMARK  4 active torsions:
REMARK  status: ('A' for Active; 'I' for Inactive)
REMARK    1  A    between atoms: C_1  and  S_2
REMARK    2  A    between atoms: S_2  and  N_5
REMARK    3  A    between atoms: C_8  and  C_9
REMARK    4  A    between atoms: N_11  and  C_12
REMARK                            x       y       z     vdW  Elec       q    Type
REMARK                         _______ _______ _______ _____ _____    ______ ____
ROOT
ATOM      1  C   UNL     1       2.669   5.460  19.289  0.00  0.00    +0.000 C 
ATOM      2  O   UNL     1       1.580   5.118  18.828  0.00  0.00    +0.000 OA
ATOM      3  N   UNL     1       2.955   6.740  19.729  0.00  0.00    +0.000 N 
ATOM      4  H   UNL     1       3.929   7.018  19.811  0.00  0.00    +0.000 HD
ENDROOT
BRANCH   3   5
ATOM      5  C   UNL     1       2.004   7.784  19.863  0.00  0.00    +0.000 A 
ATOM      6  C   UNL     1       1.253   7.989  21.024  0.00  0.00    +0.000 A 
ATOM      7  C   UNL     1       0.322   9.029  21.096  0.00  0.00    +0.000 A 
ATOM      8  C   UNL     1       0.144   9.879  20.008  0.00  0.00    +0.000 A 
ATOM      9 BR   UNL     1      -1.124  11.276  20.118  0.00  0.00    +0.000 Br
ATOM     10  C   UNL     1       0.895   9.705  18.849  0.00  0.00    +0.000 A 
ATOM     11  C   UNL     1       1.822   8.666  18.791  0.00  0.00    +0.000 A 
ATOM     12  F   UNL     1       2.540   8.501  17.668  0.00  0.00    +0.000 F 
ENDBRANCH   3   5
BRANCH   1  16
ATOM     13  N   UNL     1       5.243   4.686  16.827  0.00  0.00    +0.000 NA
ATOM     14  C   UNL     1       5.409   5.747  17.852  0.00  0.00    +0.000 C 
ATOM     15  C   UNL     1       5.178   5.189  19.258  0.00  0.00    +0.000 C 
ATOM     16  C   UNL     1       3.828   4.464  19.387  0.00  0.00    +0.000 C 
ATOM     17  C   UNL     1       3.758   3.370  18.318  0.00  0.00    +0.000 C 
ATOM     18  C   UNL     1       3.971   3.928  16.914  0.00  0.00    +0.000 C 
BRANCH  13  20
ATOM     19  C   UNL     1       7.481   4.876  15.272  0.00  0.00    +0.000 C 
ATOM     20  S   UNL     1       5.713   5.136  15.244  0.00  0.00    +0.000 S 
ATOM     21  O   UNL     1       5.482   6.558  15.100  0.00  0.00    +0.000 OA
ATOM     22  O   UNL     1       5.137   4.187  14.315  0.00  0.00    +0.000 OA
ENDBRANCH  13  20
ENDBRANCH   1  16
TORSDOF 3
ENDMDL
MODEL 8
REMARK VINA RESULT:      -6.6      1.334      1.782
REMARK  Name = 
REMARK  4 active torsions:
REMARK  status: ('A' for Active; 'I' for Inactive)
REMARK    1  A    between atoms: C_1  and  S_2
REMARK    2  A    between atoms: S_2  and  N_5
REMARK    3  A    between atoms: C_8  and  C_9
REMARK    4  A    between atoms: N_11  and  C_12
REMARK                            x       y       z     vdW  Elec       q    Type
REMARK                         _______ _______ _______ _____ _____    ______ ____
ROOT
ATOM      1  C   UNL     1       2.632   5.436  19.280  0.00  0.00    +0.000 C 
ATOM      2  O   UNL     1       1.469   5.033  19.237  0.00  0.00    +0.000 OA
ATOM      3  N   UNL     1       2.990   6.770  19.207  0.00  0.00    +0.000 N 
ATOM      4  H   UNL     1       3.947   7.001  18.951  0.00  0.00    +0.000 HD
ENDROOT
BRANCH   3   5
ATOM      5  C   UNL     1       2.081   7.858  19.235  0.00  0.00    +0.000 A 
ATOM      6  C   UNL     1       1.768   8.622  18.107  0.00  0.00    +0.000 A 
ATOM      7  C   UNL     1       0.872   9.690  18.195  0.00  0.00    +0.000 A 
ATOM      8  C   UNL     1       0.273   9.996  19.414  0.00  0.00    +0.000 A 
ATOM      9 BR   UNL     1      -0.931  11.449  19.519  0.00  0.00    +0.000 Br
ATOM     10  C   UNL     1       0.555   9.238  20.546  0.00  0.00    +0.000 A 
ATOM     11  C   UNL     1       1.449   8.172  20.444  0.00  0.00    +0.000 A 
ATOM     12  F   UNL     1       1.720   7.448  21.542  0.00  0.00    +0.000 F 
ENDBRANCH   3   5
BRANCH   1  16
ATOM     13  N   UNL     1       5.233   4.664  16.847  0.00  0.00    +0.000 NA
ATOM     14  C   UNL     1       5.379   5.736  17.862  0.00  0.00    +0.000 C 
ATOM     15  C   UNL     1       5.143   5.190  19.271  0.00  0.00    +0.000 C 
ATOM     16  C   UNL     1       3.800   4.453  19.397  0.00  0.00    +0.000 C 
ATOM     17  C   UNL     1       3.749   3.348  18.339  0.00  0.00    +0.000 C 
ATOM     18  C   UNL     1       3.968   3.893  16.931  0.00  0.00    +0.000 C 
BRANCH  13  20
ATOM     19  C   UNL     1       7.488   4.938  15.330  0.00  0.00    +0.000 C 
ATOM     20  S   UNL     1       5.711   5.103  15.262  0.00  0.00    +0.000 S 
ATOM     21  O   UNL     1       5.407   6.507  15.081  0.00  0.00    +0.000 OA
ATOM     22  O   UNL     1       5.204   4.104  14.345  0.00  0.00    +0.000 OA
ENDBRANCH  13  20
ENDBRANCH   1  16
TORSDOF 3
ENDMDL
MODEL 9
REMARK VINA RESULT:      -6.6      4.773      7.485
REMARK  Name = 
REMARK  4 active torsions:
REMARK  status: ('A' for Active; 'I' for Inactive)
REMARK    1  A    between atoms: C_1  and  S_2
REMARK    2  A    between atoms: S_2  and  N_5
REMARK    3  A    between atoms: C_8  and  C_9
REMARK    4  A    between atoms: N_11  and  C_12
REMARK                            x       y       z     vdW  Elec       q    Type
REMARK                         _______ _______ _______ _____ _____    ______ ____
ROOT
ATOM      1  C   UNL     1       7.203   5.474  16.438  0.00  0.00    +0.000 C 
ATOM      2  O   UNL     1       7.893   4.480  16.668  0.00  0.00    +0.000 OA
ATOM      3  N   UNL     1       6.587   5.724  15.226  0.00  0.00    +0.000 N 
ATOM      4  H   UNL     1       6.296   6.676  15.017  0.00  0.00    +0.000 HD
ENDROOT
BRANCH   3   5
ATOM      5  C   UNL     1       6.525   4.811  14.142  0.00  0.00    +0.000 A 
ATOM      6  C   UNL     1       5.498   3.876  13.988  0.00  0.00    +0.000 A 
ATOM      7  C   UNL     1       5.494   2.994  12.904  0.00  0.00    +0.000 A 
ATOM      8  C   UNL     1       6.514   3.048  11.959  0.00  0.00    +0.000 A 
ATOM      9 BR   UNL     1       6.499   1.843  10.504  0.00  0.00    +0.000 Br
ATOM     10  C   UNL     1       7.537   3.984  12.082  0.00  0.00    +0.000 A 
ATOM     11  C   UNL     1       7.528   4.861  13.166  0.00  0.00    +0.000 A 
ATOM     12  F   UNL     1       8.521   5.758  13.281  0.00  0.00    +0.000 F 
ENDBRANCH   3   5
BRANCH   1  16
ATOM     13  N   UNL     1       4.575   5.730  18.950  0.00  0.00    +0.000 NA
ATOM     14  C   UNL     1       5.854   5.019  19.198  0.00  0.00    +0.000 C 
ATOM     15  C   UNL     1       7.050   5.930  18.915  0.00  0.00    +0.000 C 
ATOM     16  C   UNL     1       6.995   6.549  17.509  0.00  0.00    +0.000 C 
ATOM     17  C   UNL     1       5.663   7.288  17.352  0.00  0.00    +0.000 C 
ATOM     18  C   UNL     1       4.469   6.376  17.618  0.00  0.00    +0.000 C 
BRANCH  13  20
ATOM     19  C   UNL     1       2.269   4.671  17.939  0.00  0.00    +0.000 C 
ATOM     20  S   UNL     1       3.174   4.892  19.464  0.00  0.00    +0.000 S 
ATOM     21  O   UNL     1       2.405   5.787  20.303  0.00  0.00    +0.000 OA
ATOM     22  O   UNL     1       3.578   3.585  19.937  0.00  0.00    +0.000 OA
ENDBRANCH  13  20
ENDBRANCH   1  16
TORSDOF 3
ENDMDL
