MODEL 1
REMARK VINA RESULT:      -8.2      0.000      0.000
REMARK  Name = 
REMARK  8 active torsions:
REMARK  status: ('A' for Active; 'I' for Inactive)
REMARK    1  A    between atoms: C_1  and  N_2
REMARK    2  A    between atoms: N_5  and  C_6
REMARK    3  A    between atoms: C_6  and  C_7
REMARK    4  A    between atoms: C_7  and  O_8
REMARK    5  A    between atoms: O_8  and  C_9
REMARK    6  A    between atoms: C_9  and  C_11
REMARK    7  A    between atoms: C_11  and  N_12
REMARK    8  A    between atoms: C_13  and  C_15
REMARK                            x       y       z     vdW  Elec       q    Type
REMARK                         _______ _______ _______ _____ _____    ______ ____
ROOT
ATOM      1  C   UNL     1       6.773   4.720  16.918  0.00  0.00    +0.000 C 
ENDROOT
BRANCH   1   2
ATOM      2  C   UNL     1       5.422   5.046  16.273  0.00  0.00    +0.000 C 
BRANCH   2   7
ATOM      3  C   UNL     1       2.329   7.233  19.355  0.00  0.00    +0.000 C 
ATOM      4  N   UNL     1       2.850   6.011  18.754  0.00  0.00    +0.000 N 
ATOM      5  C   UNL     1       3.898   6.120  17.847  0.00  0.00    +0.000 A 
ATOM      6  O   UNL     1       4.430   7.206  17.601  0.00  0.00    +0.000 OA
ATOM      7  N   UNL     1       4.332   4.943  17.245  0.00  0.00    +0.000 N 
ATOM      8  C   UNL     1       3.906   3.672  17.594  0.00  0.00    +0.000 A 
ATOM      9  O   UNL     1       4.382   2.638  17.126  0.00  0.00    +0.000 OA
ATOM     10  C   UNL     1       2.838   3.585  18.598  0.00  0.00    +0.000 A 
ATOM     11  C   UNL     1       2.369   2.324  18.999  0.00  0.00    +0.000 A 
ATOM     12  C   UNL     1       1.361   2.228  19.953  0.00  0.00    +0.000 A 
ATOM     13  C   UNL     1       0.812   3.385  20.492  0.00  0.00    +0.000 A 
ATOM     14  C   UNL     1       1.282   4.641  20.088  0.00  0.00    +0.000 A 
ATOM     15  C   UNL     1       2.313   4.756  19.142  0.00  0.00    +0.000 A 
ENDBRANCH   2   7
ENDBRANCH   1   2
BRANCH   1  16
ATOM     16  O   UNL     1       7.719   5.796  17.017  0.00  0.00    +0.000 OA
BRANCH  16  17
ATOM     17  C   UNL     1       7.631   6.631  18.084  0.00  0.00    +0.000 C 
ATOM     18  O   UNL     1       7.578   6.291  19.260  0.00  0.00    +0.000 OA
BRANCH  17  19
ATOM     19  C   UNL     1       7.565   8.078  17.640  0.00  0.00    +0.000 C 
BRANCH  19  20
ATOM     20  N   UNL     1       8.584   8.881  18.276  0.00  0.00    +0.000 N 
ATOM     21  C   UNL     1       8.618  10.243  18.122  0.00  0.00    +0.000 C 
ATOM     22  O   UNL     1       7.766  10.864  17.495  0.00  0.00    +0.000 OA
ATOM     23  H   UNL     1       9.255   8.416  18.878  0.00  0.00    +0.000 HD
BRANCH  21  24
ATOM     24  C   UNL     1       9.728  10.977  18.785  0.00  0.00    +0.000 A 
ATOM     25  C   UNL     1      10.834  11.292  17.975  0.00  0.00    +0.000 A 
ATOM     26  C   UNL     1      11.934  11.967  18.503  0.00  0.00    +0.000 A 
ATOM     27  C   UNL     1      11.943  12.332  19.848  0.00  0.00    +0.000 A 
ATOM     28  C   UNL     1      10.857  12.014  20.663  0.00  0.00    +0.000 A 
ATOM     29  C   UNL     1       9.752  11.334  20.140  0.00  0.00    +0.000 A 
ATOM     30 CL   UNL     1       8.498  10.944  21.266  0.00  0.00    +0.000 Cl
ENDBRANCH  21  24
ENDBRANCH  19  20
ENDBRANCH  17  19
ENDBRANCH  16  17
ENDBRANCH   1  16
TORSDOF 7
ENDMDL
MODEL 2
REMARK VINA RESULT:      -8.1      1.103      1.433
REMARK  Name = 
REMARK  8 active torsions:
REMARK  status: ('A' for Active; 'I' for Inactive)
REMARK    1  A    between atoms: C_1  and  N_2
REMARK    2  A    between atoms: N_5  and  C_6
REMARK    3  A    between atoms: C_6  and  C_7
REMARK    4  A    between atoms: C_7  and  O_8
REMARK    5  A    between atoms: O_8  and  C_9
REMARK    6  A    between atoms: C_9  and  C_11
REMARK    7  A    between atoms: C_11  and  N_12
REMARK    8  A    between atoms: C_13  and  C_15
REMARK                            x       y       z     vdW  Elec       q    Type
REMARK                         _______ _______ _______ _____ _____    ______ ____
ROOT
ATOM      1  C   UNL     1       6.749   5.083  16.844  0.00  0.00    +0.000 C 
ENDROOT
BRANCH   1   2
ATOM      2  C   UNL     1       5.344   5.019  16.235  0.00  0.00    +0.000 C 
BRANCH   2   7
ATOM      3  C   UNL     1       2.332   7.433  19.225  0.00  0.00    +0.000 C 
ATOM      4  N   UNL     1       2.873   6.170  18.739  0.00  0.00    +0.000 N 
ATOM      5  C   UNL     1       3.864   6.211  17.763  0.00  0.00    +0.000 A 
ATOM      6  O   UNL     1       4.332   7.280  17.363  0.00  0.00    +0.000 OA
ATOM      7  N   UNL     1       4.316   4.989  17.275  0.00  0.00    +0.000 N 
ATOM      8  C   UNL     1       3.967   3.753  17.792  0.00  0.00    +0.000 A 
ATOM      9  O   UNL     1       4.462   2.690  17.419  0.00  0.00    +0.000 OA
ATOM     10  C   UNL     1       2.961   3.743  18.863  0.00  0.00    +0.000 A 
ATOM     11  C   UNL     1       2.571   2.521  19.433  0.00  0.00    +0.000 A 
ATOM     12  C   UNL     1       1.623   2.499  20.450  0.00  0.00    +0.000 A 
ATOM     13  C   UNL     1       1.054   3.690  20.886  0.00  0.00    +0.000 A 
ATOM     14  C   UNL     1       1.443   4.907  20.313  0.00  0.00    +0.000 A 
ATOM     15  C   UNL     1       2.415   4.949  19.299  0.00  0.00    +0.000 A 
ENDBRANCH   2   7
ENDBRANCH   1   2
BRANCH   1  16
ATOM     16  O   UNL     1       7.475   6.310  16.668  0.00  0.00    +0.000 OA
BRANCH  16  17
ATOM     17  C   UNL     1       7.738   7.063  17.767  0.00  0.00    +0.000 C 
ATOM     18  O   UNL     1       7.976   6.636  18.890  0.00  0.00    +0.000 OA
BRANCH  17  19
ATOM     19  C   UNL     1       7.666   8.541  17.444  0.00  0.00    +0.000 C 
BRANCH  19  20
ATOM     20  N   UNL     1       8.507   9.323  18.321  0.00  0.00    +0.000 N 
ATOM     21  C   UNL     1       8.621  10.682  18.176  0.00  0.00    +0.000 C 
ATOM     22  O   UNL     1       7.979  11.318  17.347  0.00  0.00    +0.000 OA
ATOM     23  H   UNL     1       8.985   8.846  19.078  0.00  0.00    +0.000 HD
BRANCH  21  24
ATOM     24  C   UNL     1       9.541  11.392  19.103  0.00  0.00    +0.000 A 
ATOM     25  C   UNL     1       9.212  11.334  20.469  0.00  0.00    +0.000 A 
ATOM     26  C   UNL     1      10.002  11.979  21.419  0.00  0.00    +0.000 A 
ATOM     27  C   UNL     1      11.128  12.693  21.016  0.00  0.00    +0.000 A 
ATOM     28  C   UNL     1      11.457  12.769  19.662  0.00  0.00    +0.000 A 
ATOM     29  C   UNL     1      10.667  12.126  18.703  0.00  0.00    +0.000 A 
ATOM     30 CL   UNL     1      11.144  12.346  17.055  0.00  0.00    +0.000 Cl
ENDBRANCH  21  24
ENDBRANCH  19  20
ENDBRANCH  17  19
ENDBRANCH  16  17
ENDBRANCH   1  16
TORSDOF 7
ENDMDL
MODEL 3
REMARK VINA RESULT:      -7.9      1.564      2.999
REMARK  Name = 
REMARK  8 active torsions:
REMARK  status: ('A' for Active; 'I' for Inactive)
REMARK    1  A    between atoms: C_1  and  N_2
REMARK    2  A    between atoms: N_5  and  C_6
REMARK    3  A    between atoms: C_6  and  C_7
REMARK    4  A    between atoms: C_7  and  O_8
REMARK    5  A    between atoms: O_8  and  C_9
REMARK    6  A    between atoms: C_9  and  C_11
REMARK    7  A    between atoms: C_11  and  N_12
REMARK    8  A    between atoms: C_13  and  C_15
REMARK                            x       y       z     vdW  Elec       q    Type
REMARK                         _______ _______ _______ _____ _____    ______ ____
ROOT
ATOM      1  C   UNL     1       6.714   4.522  17.642  0.00  0.00    +0.000 C 
ENDROOT
BRANCH   1   2
ATOM      2  C   UNL     1       5.276   4.404  17.128  0.00  0.00    +0.000 C 
BRANCH   2   7
ATOM      3  C   UNL     1       2.378   4.727  21.046  0.00  0.00    +0.000 C 
ATOM      4  N   UNL     1       2.932   5.331  19.839  0.00  0.00    +0.000 N 
ATOM      5  C   UNL     1       3.793   4.566  19.058  0.00  0.00    +0.000 A 
ATOM      6  O   UNL     1       4.034   3.387  19.327  0.00  0.00    +0.000 OA
ATOM      7  N   UNL     1       4.353   5.190  17.948  0.00  0.00    +0.000 N 
ATOM      8  C   UNL     1       4.001   6.447  17.484  0.00  0.00    +0.000 A 
ATOM      9  O   UNL     1       4.427   6.935  16.439  0.00  0.00    +0.000 OA
ATOM     10  C   UNL     1       3.044   7.208  18.298  0.00  0.00    +0.000 A 
ATOM     11  C   UNL     1       2.642   8.485  17.878  0.00  0.00    +0.000 A 
ATOM     12  C   UNL     1       1.733   9.215  18.638  0.00  0.00    +0.000 A 
ATOM     13  C   UNL     1       1.241   8.678  19.821  0.00  0.00    +0.000 A 
ATOM     14  C   UNL     1       1.646   7.405  20.239  0.00  0.00    +0.000 A 
ATOM     15  C   UNL     1       2.546   6.646  19.473  0.00  0.00    +0.000 A 
ENDBRANCH   2   7
ENDBRANCH   1   2
BRANCH   1  16
ATOM     16  O   UNL     1       7.443   5.700  17.261  0.00  0.00    +0.000 OA
BRANCH  16  17
ATOM     17  C   UNL     1       7.782   6.586  18.232  0.00  0.00    +0.000 C 
ATOM     18  O   UNL     1       8.001   6.316  19.406  0.00  0.00    +0.000 OA
BRANCH  17  19
ATOM     19  C   UNL     1       7.825   7.999  17.688  0.00  0.00    +0.000 C 
BRANCH  19  20
ATOM     20  N   UNL     1       8.563   8.886  18.557  0.00  0.00    +0.000 N 
ATOM     21  C   UNL     1       8.664  10.227  18.289  0.00  0.00    +0.000 C 
ATOM     22  O   UNL     1       8.092  10.762  17.344  0.00  0.00    +0.000 OA
ATOM     23  H   UNL     1       8.976   8.500  19.399  0.00  0.00    +0.000 HD
BRANCH  21  24
ATOM     24  C   UNL     1       9.478  11.051  19.222  0.00  0.00    +0.000 A 
ATOM     25  C   UNL     1       9.025  11.110  20.552  0.00  0.00    +0.000 A 
ATOM     26  C   UNL     1       9.709  11.866  21.503  0.00  0.00    +0.000 A 
ATOM     27  C   UNL     1      10.851  12.575  21.135  0.00  0.00    +0.000 A 
ATOM     28  C   UNL     1      11.302  12.534  19.816  0.00  0.00    +0.000 A 
ATOM     29  C   UNL     1      10.618  11.779  18.856  0.00  0.00    +0.000 A 
ATOM     30 CL   UNL     1      11.241  11.859  17.244  0.00  0.00    +0.000 Cl
ENDBRANCH  21  24
ENDBRANCH  19  20
ENDBRANCH  17  19
ENDBRANCH  16  17
ENDBRANCH   1  16
TORSDOF 7
ENDMDL
MODEL 4
REMARK VINA RESULT:      -7.7      3.691      6.400
REMARK  Name = 
REMARK  8 active torsions:
REMARK  status: ('A' for Active; 'I' for Inactive)
REMARK    1  A    between atoms: C_1  and  N_2
REMARK    2  A    between atoms: N_5  and  C_6
REMARK    3  A    between atoms: C_6  and  C_7
REMARK    4  A    between atoms: C_7  and  O_8
REMARK    5  A    between atoms: O_8  and  C_9
REMARK    6  A    between atoms: C_9  and  C_11
REMARK    7  A    between atoms: C_11  and  N_12
REMARK    8  A    between atoms: C_13  and  C_15
REMARK                            x       y       z     vdW  Elec       q    Type
REMARK                         _______ _______ _______ _____ _____    ______ ____
ROOT
ATOM      1  C   UNL     1       1.804   5.679  18.499  0.00  0.00    +0.000 C 
ENDROOT
BRANCH   1   2
ATOM      2  C   UNL     1       2.630   6.934  18.798  0.00  0.00    +0.000 C 
BRANCH   2   7
ATOM      3  C   UNL     1       0.444  11.266  18.248  0.00  0.00    +0.000 C 
ATOM      4  N   UNL     1       0.756  10.113  19.084  0.00  0.00    +0.000 N 
ATOM      5  C   UNL     1       1.566   9.116  18.553  0.00  0.00    +0.000 A 
ATOM      6  O   UNL     1       2.073   9.222  17.433  0.00  0.00    +0.000 OA
ATOM      7  N   UNL     1       1.795   8.000  19.353  0.00  0.00    +0.000 N 
ATOM      8  C   UNL     1       1.408   7.883  20.677  0.00  0.00    +0.000 A 
ATOM      9  O   UNL     1       1.715   6.936  21.399  0.00  0.00    +0.000 OA
ATOM     10  C   UNL     1       0.602   8.980  21.230  0.00  0.00    +0.000 A 
ATOM     11  C   UNL     1       0.185   8.923  22.569  0.00  0.00    +0.000 A 
ATOM     12  C   UNL     1      -0.575   9.958  23.106  0.00  0.00    +0.000 A 
ATOM     13  C   UNL     1      -0.931  11.036  22.304  0.00  0.00    +0.000 A 
ATOM     14  C   UNL     1      -0.515  11.088  20.969  0.00  0.00    +0.000 A 
ATOM     15  C   UNL     1       0.270  10.062  20.417  0.00  0.00    +0.000 A 
ENDBRANCH   2   7
ENDBRANCH   1   2
BRANCH   1  16
ATOM     16  O   UNL     1       2.097   4.510  19.282  0.00  0.00    +0.000 OA
BRANCH  16  17
ATOM     17  C   UNL     1       2.153   3.311  18.647  0.00  0.00    +0.000 C 
ATOM     18  O   UNL     1       1.196   2.689  18.203  0.00  0.00    +0.000 OA
BRANCH  17  19
ATOM     19  C   UNL     1       3.575   2.796  18.580  0.00  0.00    +0.000 C 
BRANCH  19  20
ATOM     20  N   UNL     1       4.539   3.869  18.660  0.00  0.00    +0.000 N 
ATOM     21  C   UNL     1       5.172   4.344  17.540  0.00  0.00    +0.000 C 
ATOM     22  O   UNL     1       4.919   3.939  16.410  0.00  0.00    +0.000 OA
ATOM     23  H   UNL     1       4.711   4.293  19.565  0.00  0.00    +0.000 HD
BRANCH  21  24
ATOM     24  C   UNL     1       6.176   5.424  17.731  0.00  0.00    +0.000 A 
ATOM     25  C   UNL     1       7.126   5.214  18.746  0.00  0.00    +0.000 A 
ATOM     26  C   UNL     1       8.103   6.172  19.015  0.00  0.00    +0.000 A 
ATOM     27  C   UNL     1       8.140   7.352  18.275  0.00  0.00    +0.000 A 
ATOM     28  C   UNL     1       7.194   7.577  17.274  0.00  0.00    +0.000 A 
ATOM     29  C   UNL     1       6.210   6.621  17.002  0.00  0.00    +0.000 A 
ATOM     30 CL   UNL     1       5.060   7.043  15.780  0.00  0.00    +0.000 Cl
ENDBRANCH  21  24
ENDBRANCH  19  20
ENDBRANCH  17  19
ENDBRANCH  16  17
ENDBRANCH   1  16
TORSDOF 7
ENDMDL
MODEL 5
REMARK VINA RESULT:      -7.6      1.656      2.673
REMARK  Name = 
REMARK  8 active torsions:
REMARK  status: ('A' for Active; 'I' for Inactive)
REMARK    1  A    between atoms: C_1  and  N_2
REMARK    2  A    between atoms: N_5  and  C_6
REMARK    3  A    between atoms: C_6  and  C_7
REMARK    4  A    between atoms: C_7  and  O_8
REMARK    5  A    between atoms: O_8  and  C_9
REMARK    6  A    between atoms: C_9  and  C_11
REMARK    7  A    between atoms: C_11  and  N_12
REMARK    8  A    between atoms: C_13  and  C_15
REMARK                            x       y       z     vdW  Elec       q    Type
REMARK                         _______ _______ _______ _____ _____    ______ ____
ROOT
ATOM      1  C   UNL     1       7.153   5.782  16.818  0.00  0.00    +0.000 C 
ENDROOT
BRANCH   1   2
ATOM      2  C   UNL     1       5.717   5.815  16.286  0.00  0.00    +0.000 C 
BRANCH   2   7
ATOM      3  C   UNL     1       3.632   1.739  17.986  0.00  0.00    +0.000 C 
ATOM      4  N   UNL     1       3.768   3.191  18.022  0.00  0.00    +0.000 N 
ATOM      5  C   UNL     1       4.637   3.792  17.118  0.00  0.00    +0.000 A 
ATOM      6  O   UNL     1       5.230   3.137  16.257  0.00  0.00    +0.000 OA
ATOM      7  N   UNL     1       4.791   5.172  17.218  0.00  0.00    +0.000 N 
ATOM      8  C   UNL     1       4.036   5.994  18.037  0.00  0.00    +0.000 A 
ATOM      9  O   UNL     1       4.112   7.223  18.030  0.00  0.00    +0.000 OA
ATOM     10  C   UNL     1       3.083   5.335  18.940  0.00  0.00    +0.000 A 
ATOM     11  C   UNL     1       2.284   6.116  19.790  0.00  0.00    +0.000 A 
ATOM     12  C   UNL     1       1.374   5.504  20.647  0.00  0.00    +0.000 A 
ATOM     13  C   UNL     1       1.275   4.118  20.667  0.00  0.00    +0.000 A 
ATOM     14  C   UNL     1       2.076   3.342  19.819  0.00  0.00    +0.000 A 
ATOM     15  C   UNL     1       2.984   3.945  18.933  0.00  0.00    +0.000 A 
ENDBRANCH   2   7
ENDBRANCH   1   2
BRANCH   1  16
ATOM     16  O   UNL     1       7.441   6.612  17.955  0.00  0.00    +0.000 OA
BRANCH  16  17
ATOM     17  C   UNL     1       7.575   7.948  17.756  0.00  0.00    +0.000 C 
ATOM     18  O   UNL     1       6.981   8.613  16.916  0.00  0.00    +0.000 OA
BRANCH  17  19
ATOM     19  C   UNL     1       8.604   8.538  18.698  0.00  0.00    +0.000 C 
BRANCH  19  20
ATOM     20  N   UNL     1       9.072   9.827  18.242  0.00  0.00    +0.000 N 
ATOM     21  C   UNL     1       9.482  10.791  19.128  0.00  0.00    +0.000 C 
ATOM     22  O   UNL     1       9.536  10.603  20.338  0.00  0.00    +0.000 OA
ATOM     23  H   UNL     1       9.129   9.991  17.243  0.00  0.00    +0.000 HD
BRANCH  21  24
ATOM     24  C   UNL     1       9.910  12.098  18.563  0.00  0.00    +0.000 A 
ATOM     25  C   UNL     1      10.858  12.045  17.525  0.00  0.00    +0.000 A 
ATOM     26  C   UNL     1      11.335  13.216  16.937  0.00  0.00    +0.000 A 
ATOM     27  C   UNL     1      10.873  14.453  17.381  0.00  0.00    +0.000 A 
ATOM     28  C   UNL     1       9.943  14.518  18.419  0.00  0.00    +0.000 A 
ATOM     29  C   UNL     1       9.463  13.348  19.015  0.00  0.00    +0.000 A 
ATOM     30 CL   UNL     1       8.360  13.564  20.331  0.00  0.00    +0.000 Cl
ENDBRANCH  21  24
ENDBRANCH  19  20
ENDBRANCH  17  19
ENDBRANCH  16  17
ENDBRANCH   1  16
TORSDOF 7
ENDMDL
MODEL 6
REMARK VINA RESULT:      -7.6      4.772      7.870
REMARK  Name = 
REMARK  8 active torsions:
REMARK  status: ('A' for Active; 'I' for Inactive)
REMARK    1  A    between atoms: C_1  and  N_2
REMARK    2  A    between atoms: N_5  and  C_6
REMARK    3  A    between atoms: C_6  and  C_7
REMARK    4  A    between atoms: C_7  and  O_8
REMARK    5  A    between atoms: O_8  and  C_9
REMARK    6  A    between atoms: C_9  and  C_11
REMARK    7  A    between atoms: C_11  and  N_12
REMARK    8  A    between atoms: C_13  and  C_15
REMARK                            x       y       z     vdW  Elec       q    Type
REMARK                         _______ _______ _______ _____ _____    ______ ____
ROOT
ATOM      1  C   UNL     1       1.556   6.763  20.677  0.00  0.00    +0.000 C 
ENDROOT
BRANCH   1   2
ATOM      2  C   UNL     1       1.966   8.091  20.031  0.00  0.00    +0.000 C 
BRANCH   2   7
ATOM      3  C   UNL     1      -1.141  11.292  18.046  0.00  0.00    +0.000 C 
ATOM      4  N   UNL     1      -0.561  10.675  19.232  0.00  0.00    +0.000 N 
ATOM      5  C   UNL     1       0.438   9.724  19.056  0.00  0.00    +0.000 A 
ATOM      6  O   UNL     1       0.881   9.451  17.938  0.00  0.00    +0.000 OA
ATOM      7  N   UNL     1       0.928   9.108  20.204  0.00  0.00    +0.000 N 
ATOM      8  C   UNL     1       0.609   9.480  21.499  0.00  0.00    +0.000 A 
ATOM      9  O   UNL     1       1.136   8.996  22.500  0.00  0.00    +0.000 OA
ATOM     10  C   UNL     1      -0.408  10.529  21.655  0.00  0.00    +0.000 A 
ATOM     11  C   UNL     1      -0.770  10.954  22.942  0.00  0.00    +0.000 A 
ATOM     12  C   UNL     1      -1.727  11.951  23.103  0.00  0.00    +0.000 A 
ATOM     13  C   UNL     1      -2.333  12.508  21.983  0.00  0.00    +0.000 A 
ATOM     14  C   UNL     1      -1.971  12.080  20.700  0.00  0.00    +0.000 A 
ATOM     15  C   UNL     1      -0.991  11.090  20.520  0.00  0.00    +0.000 A 
ENDBRANCH   2   7
ENDBRANCH   1   2
BRANCH   1  16
ATOM     16  O   UNL     1       2.272   5.591  20.256  0.00  0.00    +0.000 OA
BRANCH  16  17
ATOM     17  C   UNL     1       1.554   4.489  19.917  0.00  0.00    +0.000 C 
ATOM     18  O   UNL     1       1.027   3.707  20.699  0.00  0.00    +0.000 OA
BRANCH  17  19
ATOM     19  C   UNL     1       1.508   4.310  18.414  0.00  0.00    +0.000 C 
BRANCH  19  20
ATOM     20  N   UNL     1       2.759   4.677  17.791  0.00  0.00    +0.000 N 
ATOM     21  C   UNL     1       3.711   3.735  17.495  0.00  0.00    +0.000 C 
ATOM     22  O   UNL     1       3.541   2.535  17.681  0.00  0.00    +0.000 OA
ATOM     23  H   UNL     1       2.902   5.648  17.538  0.00  0.00    +0.000 HD
BRANCH  21  24
ATOM     24  C   UNL     1       4.982   4.216  16.890  0.00  0.00    +0.000 A 
ATOM     25  C   UNL     1       5.155   3.950  15.520  0.00  0.00    +0.000 A 
ATOM     26  C   UNL     1       6.318   4.346  14.860  0.00  0.00    +0.000 A 
ATOM     27  C   UNL     1       7.321   5.010  15.562  0.00  0.00    +0.000 A 
ATOM     28  C   UNL     1       7.165   5.269  16.924  0.00  0.00    +0.000 A 
ATOM     29  C   UNL     1       6.003   4.871  17.593  0.00  0.00    +0.000 A 
ATOM     30 CL   UNL     1       5.956   5.194  19.292  0.00  0.00    +0.000 Cl
ENDBRANCH  21  24
ENDBRANCH  19  20
ENDBRANCH  17  19
ENDBRANCH  16  17
ENDBRANCH   1  16
TORSDOF 7
ENDMDL
MODEL 7
REMARK VINA RESULT:      -7.4      4.382      7.866
REMARK  Name = 
REMARK  8 active torsions:
REMARK  status: ('A' for Active; 'I' for Inactive)
REMARK    1  A    between atoms: C_1  and  N_2
REMARK    2  A    between atoms: N_5  and  C_6
REMARK    3  A    between atoms: C_6  and  C_7
REMARK    4  A    between atoms: C_7  and  O_8
REMARK    5  A    between atoms: O_8  and  C_9
REMARK    6  A    between atoms: C_9  and  C_11
REMARK    7  A    between atoms: C_11  and  N_12
REMARK    8  A    between atoms: C_13  and  C_15
REMARK                            x       y       z     vdW  Elec       q    Type
REMARK                         _______ _______ _______ _____ _____    ______ ____
ROOT
ATOM      1  C   UNL     1       3.980   7.783  17.961  0.00  0.00    +0.000 C 
ENDROOT
BRANCH   1   2
ATOM      2  C   UNL     1       2.463   7.570  17.923  0.00  0.00    +0.000 C 
BRANCH   2   7
ATOM      3  C   UNL     1       0.692  12.045  18.745  0.00  0.00    +0.000 C 
ATOM      4  N   UNL     1       0.936  10.686  19.211  0.00  0.00    +0.000 N 
ATOM      5  C   UNL     1       1.610   9.812  18.365  0.00  0.00    +0.000 A 
ATOM      6  O   UNL     1       2.056  10.182  17.276  0.00  0.00    +0.000 OA
ATOM      7  N   UNL     1       1.773   8.505  18.813  0.00  0.00    +0.000 N 
ATOM      8  C   UNL     1       1.456   8.059  20.084  0.00  0.00    +0.000 A 
ATOM      9  O   UNL     1       1.710   6.927  20.496  0.00  0.00    +0.000 OA
ATOM     10  C   UNL     1       0.798   9.021  20.978  0.00  0.00    +0.000 A 
ATOM     11  C   UNL     1       0.458   8.631  22.283  0.00  0.00    +0.000 A 
ATOM     12  C   UNL     1      -0.161   9.534  23.141  0.00  0.00    +0.000 A 
ATOM     13  C   UNL     1      -0.455  10.817  22.692  0.00  0.00    +0.000 A 
ATOM     14  C   UNL     1      -0.116  11.202  21.389  0.00  0.00    +0.000 A 
ATOM     15  C   UNL     1       0.529  10.309  20.517  0.00  0.00    +0.000 A 
ENDBRANCH   2   7
ENDBRANCH   1   2
BRANCH   1  16
ATOM     16  O   UNL     1       4.766   7.009  17.041  0.00  0.00    +0.000 OA
BRANCH  16  17
ATOM     17  C   UNL     1       6.035   6.685  17.396  0.00  0.00    +0.000 C 
ATOM     18  O   UNL     1       7.056   7.231  16.995  0.00  0.00    +0.000 OA
BRANCH  17  19
ATOM     19  C   UNL     1       6.050   5.509  18.351  0.00  0.00    +0.000 C 
BRANCH  19  20
ATOM     20  N   UNL     1       4.715   5.070  18.684  0.00  0.00    +0.000 N 
ATOM     21  C   UNL     1       4.492   3.866  19.300  0.00  0.00    +0.000 C 
ATOM     22  O   UNL     1       5.400   3.123  19.658  0.00  0.00    +0.000 OA
ATOM     23  H   UNL     1       3.941   5.696  18.486  0.00  0.00    +0.000 HD
BRANCH  21  24
ATOM     24  C   UNL     1       3.079   3.487  19.566  0.00  0.00    +0.000 A 
ATOM     25  C   UNL     1       2.695   3.434  20.918  0.00  0.00    +0.000 A 
ATOM     26  C   UNL     1       1.397   3.075  21.276  0.00  0.00    +0.000 A 
ATOM     27  C   UNL     1       0.467   2.761  20.287  0.00  0.00    +0.000 A 
ATOM     28  C   UNL     1       0.839   2.797  18.944  0.00  0.00    +0.000 A 
ATOM     29  C   UNL     1       2.142   3.154  18.578  0.00  0.00    +0.000 A 
ATOM     30 CL   UNL     1       2.496   3.102  16.886  0.00  0.00    +0.000 Cl
ENDBRANCH  21  24
ENDBRANCH  19  20
ENDBRANCH  17  19
ENDBRANCH  16  17
ENDBRANCH   1  16
TORSDOF 7
ENDMDL
MODEL 8
REMARK VINA RESULT:      -7.4      5.247      8.737
REMARK  Name = 
REMARK  8 active torsions:
REMARK  status: ('A' for Active; 'I' for Inactive)
REMARK    1  A    between atoms: C_1  and  N_2
REMARK    2  A    between atoms: N_5  and  C_6
REMARK    3  A    between atoms: C_6  and  C_7
REMARK    4  A    between atoms: C_7  and  O_8
REMARK    5  A    between atoms: O_8  and  C_9
REMARK    6  A    between atoms: C_9  and  C_11
REMARK    7  A    between atoms: C_11  and  N_12
REMARK    8  A    between atoms: C_13  and  C_15
REMARK                            x       y       z     vdW  Elec       q    Type
REMARK                         _______ _______ _______ _____ _____    ______ ____
ROOT
ATOM      1  C   UNL     1       1.776   8.432  20.769  0.00  0.00    +0.000 C 
ENDROOT
BRANCH   1   2
ATOM      2  C   UNL     1       1.392   7.898  19.385  0.00  0.00    +0.000 C 
BRANCH   2   7
ATOM      3  C   UNL     1       3.448   3.495  19.870  0.00  0.00    +0.000 C 
ATOM      4  N   UNL     1       3.363   4.772  19.171  0.00  0.00    +0.000 N 
ATOM      5  C   UNL     1       2.458   5.718  19.639  0.00  0.00    +0.000 A 
ATOM      6  O   UNL     1       1.789   5.524  20.658  0.00  0.00    +0.000 OA
ATOM      7  N   UNL     1       2.356   6.902  18.915  0.00  0.00    +0.000 N 
ATOM      8  C   UNL     1       3.189   7.263  17.870  0.00  0.00    +0.000 A 
ATOM      9  O   UNL     1       3.153   8.361  17.314  0.00  0.00    +0.000 OA
ATOM     10  C   UNL     1       4.176   6.267  17.434  0.00  0.00    +0.000 A 
ATOM     11  C   UNL     1       5.054   6.577  16.384  0.00  0.00    +0.000 A 
ATOM     12  C   UNL     1       5.996   5.643  15.966  0.00  0.00    +0.000 A 
ATOM     13  C   UNL     1       6.051   4.399  16.582  0.00  0.00    +0.000 A 
ATOM     14  C   UNL     1       5.173   4.092  17.628  0.00  0.00    +0.000 A 
ATOM     15  C   UNL     1       4.229   5.031  18.077  0.00  0.00    +0.000 A 
ENDBRANCH   2   7
ENDBRANCH   1   2
BRANCH   1  16
ATOM     16  O   UNL     1       0.739   8.455  21.764  0.00  0.00    +0.000 OA
BRANCH  16  17
ATOM     17  C   UNL     1       0.529   9.612  22.443  0.00  0.00    +0.000 C 
ATOM     18  O   UNL     1       0.382   9.717  23.654  0.00  0.00    +0.000 OA
BRANCH  17  19
ATOM     19  C   UNL     1       0.456  10.793  21.498  0.00  0.00    +0.000 C 
BRANCH  19  20
ATOM     20  N   UNL     1      -0.661  10.684  20.587  0.00  0.00    +0.000 N 
ATOM     21  C   UNL     1      -0.555  11.080  19.279  0.00  0.00    +0.000 C 
ATOM     22  O   UNL     1       0.493  11.487  18.788  0.00  0.00    +0.000 OA
ATOM     23  H   UNL     1      -1.520  10.268  20.930  0.00  0.00    +0.000 HD
BRANCH  21  24
ATOM     24  C   UNL     1      -1.772  10.965  18.431  0.00  0.00    +0.000 A 
ATOM     25  C   UNL     1      -1.669  10.122  17.310  0.00  0.00    +0.000 A 
ATOM     26  C   UNL     1      -2.748   9.956  16.443  0.00  0.00    +0.000 A 
ATOM     27  C   UNL     1      -3.941  10.632  16.684  0.00  0.00    +0.000 A 
ATOM     28  C   UNL     1      -4.051  11.481  17.786  0.00  0.00    +0.000 A 
ATOM     29  C   UNL     1      -2.971  11.654  18.658  0.00  0.00    +0.000 A 
ATOM     30 CL   UNL     1      -3.212  12.779  19.950  0.00  0.00    +0.000 Cl
ENDBRANCH  21  24
ENDBRANCH  19  20
ENDBRANCH  17  19
ENDBRANCH  16  17
ENDBRANCH   1  16
TORSDOF 7
ENDMDL
MODEL 9
REMARK VINA RESULT:      -7.4      4.276      6.879
REMARK  Name = 
REMARK  8 active torsions:
REMARK  status: ('A' for Active; 'I' for Inactive)
REMARK    1  A    between atoms: C_1  and  N_2
REMARK    2  A    between atoms: N_5  and  C_6
REMARK    3  A    between atoms: C_6  and  C_7
REMARK    4  A    between atoms: C_7  and  O_8
REMARK    5  A    between atoms: O_8  and  C_9
REMARK    6  A    between atoms: C_9  and  C_11
REMARK    7  A    between atoms: C_11  and  N_12
REMARK    8  A    between atoms: C_13  and  C_15
REMARK                            x       y       z     vdW  Elec       q    Type
REMARK                         _______ _______ _______ _____ _____    ______ ____
ROOT
ATOM      1  C   UNL     1       3.984   5.971  19.287  0.00  0.00    +0.000 C 
ENDROOT
BRANCH   1   2
ATOM      2  C   UNL     1       2.562   6.152  18.745  0.00  0.00    +0.000 C 
BRANCH   2   7
ATOM      3  C   UNL     1       1.595  10.891  18.069  0.00  0.00    +0.000 C 
ATOM      4  N   UNL     1       1.516   9.700  18.906  0.00  0.00    +0.000 N 
ATOM      5  C   UNL     1       2.107   8.530  18.440  0.00  0.00    +0.000 A 
ATOM      6  O   UNL     1       2.743   8.503  17.384  0.00  0.00    +0.000 OA
ATOM      7  N   UNL     1       1.962   7.395  19.233  0.00  0.00    +0.000 N 
ATOM      8  C   UNL     1       1.415   7.383  20.505  0.00  0.00    +0.000 A 
ATOM      9  O   UNL     1       1.396   6.391  21.232  0.00  0.00    +0.000 OA
ATOM     10  C   UNL     1       0.852   8.648  20.995  0.00  0.00    +0.000 A 
ATOM     11  C   UNL     1       0.289   8.701  22.280  0.00  0.00    +0.000 A 
ATOM     12  C   UNL     1      -0.244   9.894  22.758  0.00  0.00    +0.000 A 
ATOM     13  C   UNL     1      -0.230  11.025  21.949  0.00  0.00    +0.000 A 
ATOM     14  C   UNL     1       0.329  10.967  20.667  0.00  0.00    +0.000 A 
ATOM     15  C   UNL     1       0.891   9.776  20.178  0.00  0.00    +0.000 A 
ENDBRANCH   2   7
ENDBRANCH   1   2
BRANCH   1  16
ATOM     16  O   UNL     1       5.007   5.660  18.328  0.00  0.00    +0.000 OA
BRANCH  16  17
ATOM     17  C   UNL     1       6.303   5.831  18.695  0.00  0.00    +0.000 C 
ATOM     18  O   UNL     1       6.805   5.466  19.751  0.00  0.00    +0.000 OA
BRANCH  17  19
ATOM     19  C   UNL     1       7.076   6.582  17.630  0.00  0.00    +0.000 C 
BRANCH  19  20
ATOM     20  N   UNL     1       6.747   6.119  16.301  0.00  0.00    +0.000 N 
ATOM     21  C   UNL     1       7.266   4.952  15.804  0.00  0.00    +0.000 C 
ATOM     22  O   UNL     1       7.981   4.206  16.464  0.00  0.00    +0.000 OA
ATOM     23  H   UNL     1       6.086   6.661  15.755  0.00  0.00    +0.000 HD
BRANCH  21  24
ATOM     24  C   UNL     1       6.898   4.580  14.411  0.00  0.00    +0.000 A 
ATOM     25  C   UNL     1       5.763   3.763  14.267  0.00  0.00    +0.000 A 
ATOM     26  C   UNL     1       5.342   3.346  13.005  0.00  0.00    +0.000 A 
ATOM     27  C   UNL     1       6.052   3.739  11.873  0.00  0.00    +0.000 A 
ATOM     28  C   UNL     1       7.186   4.539  12.005  0.00  0.00    +0.000 A 
ATOM     29  C   UNL     1       7.616   4.958  13.268  0.00  0.00    +0.000 A 
ATOM     30 CL   UNL     1       9.070   5.895  13.304  0.00  0.00    +0.000 Cl
ENDBRANCH  21  24
ENDBRANCH  19  20
ENDBRANCH  17  19
ENDBRANCH  16  17
ENDBRANCH   1  16
TORSDOF 7
ENDMDL
