MODEL 1
REMARK VINA RESULT:      -6.9      0.000      0.000
REMARK  Name = 
REMARK  10 active torsions:
REMARK  status: ('A' for Active; 'I' for Inactive)
REMARK    1  A    between atoms: C_1  and  O_2
REMARK    2  A    between atoms: O_2  and  C_3
REMARK    3  A    between atoms: C_3  and  C_4
REMARK    4  A    between atoms: C_9  and  O_10
REMARK    5  A    between atoms: O_10  and  C_11
REMARK    6  A    between atoms: C_14  and  C_15
REMARK    7  A    between atoms: N_17  and  C_18
REMARK    8  A    between atoms: C_18  and  C_19
REMARK    9  A    between atoms: C_19  and  C_20
REMARK   10  A    between atoms: C_20  and  N_21
REMARK                            x       y       z     vdW  Elec       q    Type
REMARK                         _______ _______ _______ _____ _____    ______ ____
ROOT
ATOM      1  C   UNL     1       1.073   9.453  19.254  0.00  0.00    +0.000 A 
ATOM      2  C   UNL     1       1.240   8.579  20.331  0.00  0.00    +0.000 A 
ATOM      3  C   UNL     1       2.009   7.417  20.189  0.00  0.00    +0.000 A 
ATOM      4  C   UNL     1       2.618   7.130  18.961  0.00  0.00    +0.000 A 
ATOM      5  C   UNL     1       2.407   7.979  17.872  0.00  0.00    +0.000 A 
ATOM      6  C   UNL     1       1.627   9.128  18.014  0.00  0.00    +0.000 A 
ENDROOT
BRANCH   4   7
ATOM      7  C   UNL     1       3.473   5.928  18.755  0.00  0.00    +0.000 C 
ATOM      8  O   UNL     1       4.304   5.611  19.595  0.00  0.00    +0.000 OA
ATOM      9  N   UNL     1       3.246   5.207  17.601  0.00  0.00    +0.000 N 
ATOM     10  H   UNL     1       2.410   5.391  17.064  0.00  0.00    +0.000 HD
BRANCH   9  11
ATOM     11  C   UNL     1       3.981   3.991  17.318  0.00  0.00    +0.000 C 
BRANCH  11  12
ATOM     12  C   UNL     1       3.062   2.776  17.277  0.00  0.00    +0.000 C 
BRANCH  12  13
ATOM     13  C   UNL     1       3.186   1.951  18.553  0.00  0.00    +0.000 C 
BRANCH  13  14
ATOM     14  N   UNL     1       2.490   2.583  19.659  0.00  0.00    +0.000 N 
ATOM     15  C   UNL     1       2.920   2.665  20.952  0.00  0.00    +0.000 A 
ATOM     16  C   UNL     1       1.974   3.410  21.617  0.00  0.00    +0.000 A 
ATOM     17  C   UNL     1       1.008   3.715  20.640  0.00  0.00    +0.000 A 
ATOM     18  N   UNL     1       1.318   3.209  19.444  0.00  0.00    +0.000 NA
ENDBRANCH  13  14
ENDBRANCH  12  13
ENDBRANCH  11  12
ENDBRANCH   9  11
ENDBRANCH   4   7
BRANCH   1  19
ATOM     19  O   UNL     1       0.378  10.601  19.524  0.00  0.00    +0.000 OA
BRANCH  19  25
ATOM     20  C   UNL     1      -0.527  15.376  19.737  0.00  0.00    +0.000 C 
ATOM     21  O   UNL     1      -1.214  15.815  20.663  0.00  0.00    +0.000 OA
ATOM     22  N   UNL     1      -0.289  14.021  19.563  0.00  0.00    +0.000 N 
ATOM     23  C   UNL     1      -1.005  13.070  20.396  0.00  0.00    +0.000 C 
ATOM     24  C   UNL     1      -0.013  12.322  21.267  0.00  0.00    +0.000 C 
ATOM     25  C   UNL     1       1.004  11.572  20.384  0.00  0.00    +0.000 C 
ATOM     26  C   UNL     1       1.717  12.595  19.482  0.00  0.00    +0.000 C 
ATOM     27  C   UNL     1       0.723  13.439  18.676  0.00  0.00    +0.000 C 
BRANCH  20  28
ATOM     28  C   UNL     1       0.047  16.335  18.689  0.00  0.00    +0.000 C 
BRANCH  28  30
ATOM     29  C   UNL     1      -0.742  18.215  17.498  0.00  0.00    +0.000 C 
ATOM     30  O   UNL     1      -0.446  17.667  18.780  0.00  0.00    +0.000 OA
ENDBRANCH  28  30
ENDBRANCH  20  28
ENDBRANCH  19  25
ENDBRANCH   1  19
TORSDOF 9
ENDMDL
MODEL 2
REMARK VINA RESULT:      -6.7      3.284      9.713
REMARK  Name = 
REMARK  10 active torsions:
REMARK  status: ('A' for Active; 'I' for Inactive)
REMARK    1  A    between atoms: C_1  and  O_2
REMARK    2  A    between atoms: O_2  and  C_3
REMARK    3  A    between atoms: C_3  and  C_4
REMARK    4  A    between atoms: C_9  and  O_10
REMARK    5  A    between atoms: O_10  and  C_11
REMARK    6  A    between atoms: C_14  and  C_15
REMARK    7  A    between atoms: N_17  and  C_18
REMARK    8  A    between atoms: C_18  and  C_19
REMARK    9  A    between atoms: C_19  and  C_20
REMARK   10  A    between atoms: C_20  and  N_21
REMARK                            x       y       z     vdW  Elec       q    Type
REMARK                         _______ _______ _______ _____ _____    ______ ____
ROOT
ATOM      1  C   UNL     1       2.354   6.893  18.768  0.00  0.00    +0.000 A 
ATOM      2  C   UNL     1       2.076   6.745  20.130  0.00  0.00    +0.000 A 
ATOM      3  C   UNL     1       1.509   7.799  20.858  0.00  0.00    +0.000 A 
ATOM      4  C   UNL     1       1.215   9.009  20.217  0.00  0.00    +0.000 A 
ATOM      5  C   UNL     1       1.541   9.172  18.869  0.00  0.00    +0.000 A 
ATOM      6  C   UNL     1       2.120   8.124  18.151  0.00  0.00    +0.000 A 
ENDROOT
BRANCH   4   7
ATOM      7  C   UNL     1       0.584  10.156  20.927  0.00  0.00    +0.000 C 
ATOM      8  O   UNL     1       0.196  10.029  22.081  0.00  0.00    +0.000 OA
ATOM      9  N   UNL     1       0.499  11.339  20.224  0.00  0.00    +0.000 N 
ATOM     10  H   UNL     1       1.029  11.440  19.368  0.00  0.00    +0.000 HD
BRANCH   9  11
ATOM     11  C   UNL     1      -0.048  12.536  20.828  0.00  0.00    +0.000 C 
BRANCH  11  12
ATOM     12  C   UNL     1      -1.356  12.953  20.166  0.00  0.00    +0.000 C 
BRANCH  12  13
ATOM     13  C   UNL     1      -1.313  12.711  18.662  0.00  0.00    +0.000 C 
BRANCH  13  14
ATOM     14  N   UNL     1      -2.198  11.628  18.276  0.00  0.00    +0.000 N 
ATOM     15  C   UNL     1      -3.561  11.672  18.211  0.00  0.00    +0.000 A 
ATOM     16  C   UNL     1      -3.956  10.445  17.730  0.00  0.00    +0.000 A 
ATOM     17  C   UNL     1      -2.757   9.730  17.552  0.00  0.00    +0.000 A 
ATOM     18  N   UNL     1      -1.682  10.447  17.887  0.00  0.00    +0.000 NA
ENDBRANCH  13  14
ENDBRANCH  12  13
ENDBRANCH  11  12
ENDBRANCH   9  11
ENDBRANCH   4   7
BRANCH   1  19
ATOM     19  O   UNL     1       2.823   5.776  18.134  0.00  0.00    +0.000 OA
BRANCH  19  25
ATOM     20  C   UNL     1       6.535   4.905  15.112  0.00  0.00    +0.000 C 
ATOM     21  O   UNL     1       7.445   5.734  15.028  0.00  0.00    +0.000 OA
ATOM     22  N   UNL     1       5.407   5.115  15.890  0.00  0.00    +0.000 N 
ATOM     23  C   UNL     1       5.205   6.421  16.497  0.00  0.00    +0.000 C 
ATOM     24  C   UNL     1       5.249   6.282  18.007  0.00  0.00    +0.000 C 
ATOM     25  C   UNL     1       4.144   5.317  18.480  0.00  0.00    +0.000 C 
ATOM     26  C   UNL     1       4.355   3.956  17.792  0.00  0.00    +0.000 C 
ATOM     27  C   UNL     1       4.426   4.092  16.266  0.00  0.00    +0.000 C 
BRANCH  20  28
ATOM     28  C   UNL     1       6.597   3.614  14.290  0.00  0.00    +0.000 C 
BRANCH  28  30
ATOM     29  C   UNL     1       6.760   3.592  11.935  0.00  0.00    +0.000 C 
ATOM     30  O   UNL     1       5.887   3.666  13.058  0.00  0.00    +0.000 OA
ENDBRANCH  28  30
ENDBRANCH  20  28
ENDBRANCH  19  25
ENDBRANCH   1  19
TORSDOF 9
ENDMDL
MODEL 3
REMARK VINA RESULT:      -6.7      1.053      1.259
REMARK  Name = 
REMARK  10 active torsions:
REMARK  status: ('A' for Active; 'I' for Inactive)
REMARK    1  A    between atoms: C_1  and  O_2
REMARK    2  A    between atoms: O_2  and  C_3
REMARK    3  A    between atoms: C_3  and  C_4
REMARK    4  A    between atoms: C_9  and  O_10
REMARK    5  A    between atoms: O_10  and  C_11
REMARK    6  A    between atoms: C_14  and  C_15
REMARK    7  A    between atoms: N_17  and  C_18
REMARK    8  A    between atoms: C_18  and  C_19
REMARK    9  A    between atoms: C_19  and  C_20
REMARK   10  A    between atoms: C_20  and  N_21
REMARK                            x       y       z     vdW  Elec       q    Type
REMARK                         _______ _______ _______ _____ _____    ______ ____
ROOT
ATOM      1  C   UNL     1       0.975   9.871  19.164  0.00  0.00    +0.000 A 
ATOM      2  C   UNL     1       1.068   9.051  20.292  0.00  0.00    +0.000 A 
ATOM      3  C   UNL     1       1.763   7.837  20.231  0.00  0.00    +0.000 A 
ATOM      4  C   UNL     1       2.373   7.442  19.033  0.00  0.00    +0.000 A 
ATOM      5  C   UNL     1       2.235   8.239  17.895  0.00  0.00    +0.000 A 
ATOM      6  C   UNL     1       1.527   9.441  17.956  0.00  0.00    +0.000 A 
ENDROOT
BRANCH   4   7
ATOM      7  C   UNL     1       3.152   6.179  18.912  0.00  0.00    +0.000 C 
ATOM      8  O   UNL     1       3.635   5.654  19.907  0.00  0.00    +0.000 OA
ATOM      9  N   UNL     1       3.262   5.647  17.644  0.00  0.00    +0.000 N 
ATOM     10  H   UNL     1       2.665   6.003  16.910  0.00  0.00    +0.000 HD
BRANCH   9  11
ATOM     11  C   UNL     1       3.952   4.395  17.410  0.00  0.00    +0.000 C 
BRANCH  11  12
ATOM     12  C   UNL     1       2.976   3.248  17.181  0.00  0.00    +0.000 C 
BRANCH  12  13
ATOM     13  C   UNL     1       3.187   2.135  18.200  0.00  0.00    +0.000 C 
BRANCH  13  14
ATOM     14  N   UNL     1       2.607   2.478  19.486  0.00  0.00    +0.000 N 
ATOM     15  C   UNL     1       1.311   2.828  19.729  0.00  0.00    +0.000 A 
ATOM     16  C   UNL     1       1.213   2.991  21.091  0.00  0.00    +0.000 A 
ATOM     17  C   UNL     1       2.508   2.731  21.575  0.00  0.00    +0.000 A 
ATOM     18  N   UNL     1       3.364   2.421  20.598  0.00  0.00    +0.000 NA
ENDBRANCH  13  14
ENDBRANCH  12  13
ENDBRANCH  11  12
ENDBRANCH   9  11
ENDBRANCH   4   7
BRANCH   1  19
ATOM     19  O   UNL     1       0.350  11.074  19.356  0.00  0.00    +0.000 OA
BRANCH  19  25
ATOM     20  C   UNL     1       0.405  15.890  20.037  0.00  0.00    +0.000 C 
ATOM     21  O   UNL     1      -0.558  16.427  20.591  0.00  0.00    +0.000 OA
ATOM     22  N   UNL     1       0.432  14.536  19.737  0.00  0.00    +0.000 N 
ATOM     23  C   UNL     1      -0.777  13.751  19.928  0.00  0.00    +0.000 C 
ATOM     24  C   UNL     1      -0.530  12.708  21.002  0.00  0.00    +0.000 C 
ATOM     25  C   UNL     1       0.626  11.781  20.580  0.00  0.00    +0.000 C 
ATOM     26  C   UNL     1       1.882  12.640  20.343  0.00  0.00    +0.000 C 
ATOM     27  C   UNL     1       1.619  13.772  19.342  0.00  0.00    +0.000 C 
BRANCH  20  28
ATOM     28  C   UNL     1       1.604  16.736  19.596  0.00  0.00    +0.000 C 
BRANCH  28  30
ATOM     29  C   UNL     1       2.693  16.892  17.507  0.00  0.00    +0.000 C 
ATOM     30  O   UNL     1       1.526  17.215  18.258  0.00  0.00    +0.000 OA
ENDBRANCH  28  30
ENDBRANCH  20  28
ENDBRANCH  19  25
ENDBRANCH   1  19
TORSDOF 9
ENDMDL
MODEL 4
REMARK VINA RESULT:      -6.6      1.837      2.662
REMARK  Name = 
REMARK  10 active torsions:
REMARK  status: ('A' for Active; 'I' for Inactive)
REMARK    1  A    between atoms: C_1  and  O_2
REMARK    2  A    between atoms: O_2  and  C_3
REMARK    3  A    between atoms: C_3  and  C_4
REMARK    4  A    between atoms: C_9  and  O_10
REMARK    5  A    between atoms: O_10  and  C_11
REMARK    6  A    between atoms: C_14  and  C_15
REMARK    7  A    between atoms: N_17  and  C_18
REMARK    8  A    between atoms: C_18  and  C_19
REMARK    9  A    between atoms: C_19  and  C_20
REMARK   10  A    between atoms: C_20  and  N_21
REMARK                            x       y       z     vdW  Elec       q    Type
REMARK                         _______ _______ _______ _____ _____    ______ ____
ROOT
ATOM      1  C   UNL     1       1.181   9.602  19.193  0.00  0.00    +0.000 A 
ATOM      2  C   UNL     1       1.271   8.713  20.268  0.00  0.00    +0.000 A 
ATOM      3  C   UNL     1       1.991   7.519  20.143  0.00  0.00    +0.000 A 
ATOM      4  C   UNL     1       2.629   7.213  18.934  0.00  0.00    +0.000 A 
ATOM      5  C   UNL     1       2.495   8.079  17.846  0.00  0.00    +0.000 A 
ATOM      6  C   UNL     1       1.763   9.261  17.971  0.00  0.00    +0.000 A 
ENDROOT
BRANCH   4   7
ATOM      7  C   UNL     1       3.436   5.975  18.747  0.00  0.00    +0.000 C 
ATOM      8  O   UNL     1       4.124   5.544  19.663  0.00  0.00    +0.000 OA
ATOM      9  N   UNL     1       3.331   5.356  17.519  0.00  0.00    +0.000 N 
ATOM     10  H   UNL     1       2.589   5.635  16.892  0.00  0.00    +0.000 HD
BRANCH   9  11
ATOM     11  C   UNL     1       4.029   4.119  17.239  0.00  0.00    +0.000 C 
BRANCH  11  12
ATOM     12  C   UNL     1       3.073   2.932  17.194  0.00  0.00    +0.000 C 
BRANCH  12  13
ATOM     13  C   UNL     1       3.296   2.003  18.382  0.00  0.00    +0.000 C 
BRANCH  13  14
ATOM     14  N   UNL     1       2.614   2.489  19.568  0.00  0.00    +0.000 N 
ATOM     15  C   UNL     1       1.331   2.949  19.640  0.00  0.00    +0.000 A 
ATOM     16  C   UNL     1       1.103   3.226  20.968  0.00  0.00    +0.000 A 
ATOM     17  C   UNL     1       2.316   2.914  21.610  0.00  0.00    +0.000 A 
ATOM     18  N   UNL     1       3.242   2.466  20.758  0.00  0.00    +0.000 NA
ENDBRANCH  13  14
ENDBRANCH  12  13
ENDBRANCH  11  12
ENDBRANCH   9  11
ENDBRANCH   4   7
BRANCH   1  19
ATOM     19  O   UNL     1       0.529  10.778  19.449  0.00  0.00    +0.000 OA
BRANCH  19  25
ATOM     20  C   UNL     1      -2.042  14.323  21.567  0.00  0.00    +0.000 C 
ATOM     21  O   UNL     1      -2.915  14.902  20.914  0.00  0.00    +0.000 OA
ATOM     22  N   UNL     1      -1.215  13.357  21.013  0.00  0.00    +0.000 N 
ATOM     23  C   UNL     1      -1.260  13.134  19.578  0.00  0.00    +0.000 C 
ATOM     24  C   UNL     1      -1.759  11.726  19.306  0.00  0.00    +0.000 C 
ATOM     25  C   UNL     1      -0.816  10.698  19.960  0.00  0.00    +0.000 C 
ATOM     26  C   UNL     1      -0.752  10.983  21.471  0.00  0.00    +0.000 C 
ATOM     27  C   UNL     1      -0.358  12.435  21.764  0.00  0.00    +0.000 C 
BRANCH  20  28
ATOM     28  C   UNL     1      -1.799  14.708  23.029  0.00  0.00    +0.000 C 
BRANCH  28  30
ATOM     29  C   UNL     1      -3.384  13.132  23.791  0.00  0.00    +0.000 C 
ATOM     30  O   UNL     1      -2.907  14.471  23.891  0.00  0.00    +0.000 OA
ENDBRANCH  28  30
ENDBRANCH  20  28
ENDBRANCH  19  25
ENDBRANCH   1  19
TORSDOF 9
ENDMDL
MODEL 5
REMARK VINA RESULT:      -6.6      1.114      1.640
REMARK  Name = 
REMARK  10 active torsions:
REMARK  status: ('A' for Active; 'I' for Inactive)
REMARK    1  A    between atoms: C_1  and  O_2
REMARK    2  A    between atoms: O_2  and  C_3
REMARK    3  A    between atoms: C_3  and  C_4
REMARK    4  A    between atoms: C_9  and  O_10
REMARK    5  A    between atoms: O_10  and  C_11
REMARK    6  A    between atoms: C_14  and  C_15
REMARK    7  A    between atoms: N_17  and  C_18
REMARK    8  A    between atoms: C_18  and  C_19
REMARK    9  A    between atoms: C_19  and  C_20
REMARK   10  A    between atoms: C_20  and  N_21
REMARK                            x       y       z     vdW  Elec       q    Type
REMARK                         _______ _______ _______ _____ _____    ______ ____
ROOT
ATOM      1  C   UNL     1       1.011   9.896  19.172  0.00  0.00    +0.000 A 
ATOM      2  C   UNL     1       1.690   9.597  17.988  0.00  0.00    +0.000 A 
ATOM      3  C   UNL     1       2.402   8.398  17.861  0.00  0.00    +0.000 A 
ATOM      4  C   UNL     1       2.433   7.489  18.927  0.00  0.00    +0.000 A 
ATOM      5  C   UNL     1       1.796   7.814  20.127  0.00  0.00    +0.000 A 
ATOM      6  C   UNL     1       1.100   9.018  20.254  0.00  0.00    +0.000 A 
ENDROOT
BRANCH   4   7
ATOM      7  C   UNL     1       3.145   6.185  18.844  0.00  0.00    +0.000 C 
ATOM      8  O   UNL     1       3.613   5.673  19.852  0.00  0.00    +0.000 OA
ATOM      9  N   UNL     1       3.212   5.602  17.596  0.00  0.00    +0.000 N 
ATOM     10  H   UNL     1       2.624   5.961  16.855  0.00  0.00    +0.000 HD
BRANCH   9  11
ATOM     11  C   UNL     1       3.835   4.309  17.401  0.00  0.00    +0.000 C 
BRANCH  11  12
ATOM     12  C   UNL     1       2.800   3.213  17.179  0.00  0.00    +0.000 C 
BRANCH  12  13
ATOM     13  C   UNL     1       2.967   2.086  18.191  0.00  0.00    +0.000 C 
BRANCH  13  14
ATOM     14  N   UNL     1       2.469   2.472  19.499  0.00  0.00    +0.000 N 
ATOM     15  C   UNL     1       1.180   2.783  19.822  0.00  0.00    +0.000 A 
ATOM     16  C   UNL     1       1.175   3.010  21.178  0.00  0.00    +0.000 A 
ATOM     17  C   UNL     1       2.512   2.827  21.576  0.00  0.00    +0.000 A 
ATOM     18  N   UNL     1       3.307   2.501  20.552  0.00  0.00    +0.000 NA
ENDBRANCH  13  14
ENDBRANCH  12  13
ENDBRANCH  11  12
ENDBRANCH   9  11
ENDBRANCH   4   7
BRANCH   1  19
ATOM     19  O   UNL     1       0.275  11.049  19.159  0.00  0.00    +0.000 OA
BRANCH  19  25
ATOM     20  C   UNL     1       0.238  15.913  19.074  0.00  0.00    +0.000 C 
ATOM     21  O   UNL     1      -0.780  16.511  19.435  0.00  0.00    +0.000 OA
ATOM     22  N   UNL     1       0.301  14.530  18.996  0.00  0.00    +0.000 N 
ATOM     23  C   UNL     1      -0.917  13.760  19.183  0.00  0.00    +0.000 C 
ATOM     24  C   UNL     1      -0.780  12.903  20.428  0.00  0.00    +0.000 C 
ATOM     25  C   UNL     1       0.418  11.945  20.278  0.00  0.00    +0.000 C 
ATOM     26  C   UNL     1       1.688  12.782  20.038  0.00  0.00    +0.000 C 
ATOM     27  C   UNL     1       1.526  13.738  18.850  0.00  0.00    +0.000 C 
BRANCH  20  28
ATOM     28  C   UNL     1       1.473  16.704  18.631  0.00  0.00    +0.000 C 
BRANCH  28  30
ATOM     29  C   UNL     1       2.044  18.247  20.325  0.00  0.00    +0.000 C 
ATOM     30  O   UNL     1       2.378  17.019  19.683  0.00  0.00    +0.000 OA
ENDBRANCH  28  30
ENDBRANCH  20  28
ENDBRANCH  19  25
ENDBRANCH   1  19
TORSDOF 9
ENDMDL
MODEL 6
REMARK VINA RESULT:      -6.6      3.228      9.880
REMARK  Name = 
REMARK  10 active torsions:
REMARK  status: ('A' for Active; 'I' for Inactive)
REMARK    1  A    between atoms: C_1  and  O_2
REMARK    2  A    between atoms: O_2  and  C_3
REMARK    3  A    between atoms: C_3  and  C_4
REMARK    4  A    between atoms: C_9  and  O_10
REMARK    5  A    between atoms: O_10  and  C_11
REMARK    6  A    between atoms: C_14  and  C_15
REMARK    7  A    between atoms: N_17  and  C_18
REMARK    8  A    between atoms: C_18  and  C_19
REMARK    9  A    between atoms: C_19  and  C_20
REMARK   10  A    between atoms: C_20  and  N_21
REMARK                            x       y       z     vdW  Elec       q    Type
REMARK                         _______ _______ _______ _____ _____    ______ ____
ROOT
ATOM      1  C   UNL     1       2.295   6.764  18.885  0.00  0.00    +0.000 A 
ATOM      2  C   UNL     1       2.063   6.729  20.263  0.00  0.00    +0.000 A 
ATOM      3  C   UNL     1       1.562   7.855  20.927  0.00  0.00    +0.000 A 
ATOM      4  C   UNL     1       1.289   9.025  20.207  0.00  0.00    +0.000 A 
ATOM      5  C   UNL     1       1.570   9.074  18.840  0.00  0.00    +0.000 A 
ATOM      6  C   UNL     1       2.084   7.953  18.185  0.00  0.00    +0.000 A 
ENDROOT
BRANCH   4   7
ATOM      7  C   UNL     1       0.727  10.245  20.849  0.00  0.00    +0.000 C 
ATOM      8  O   UNL     1       0.785  10.386  22.063  0.00  0.00    +0.000 OA
ATOM      9  N   UNL     1       0.180  11.186  20.001  0.00  0.00    +0.000 N 
ATOM     10  H   UNL     1       0.357  11.113  19.008  0.00  0.00    +0.000 HD
BRANCH   9  11
ATOM     11  C   UNL     1      -0.351  12.435  20.505  0.00  0.00    +0.000 C 
BRANCH  11  12
ATOM     12  C   UNL     1      -1.511  12.938  19.654  0.00  0.00    +0.000 C 
BRANCH  12  13
ATOM     13  C   UNL     1      -1.754  12.023  18.460  0.00  0.00    +0.000 C 
BRANCH  13  14
ATOM     14  N   UNL     1      -3.173  11.831  18.222  0.00  0.00    +0.000 N 
ATOM     15  C   UNL     1      -3.755  11.400  17.065  0.00  0.00    +0.000 A 
ATOM     16  C   UNL     1      -5.101  11.303  17.333  0.00  0.00    +0.000 A 
ATOM     17  C   UNL     1      -5.228  11.711  18.673  0.00  0.00    +0.000 A 
ATOM     18  N   UNL     1      -4.053  12.038  19.219  0.00  0.00    +0.000 NA
ENDBRANCH  13  14
ENDBRANCH  12  13
ENDBRANCH  11  12
ENDBRANCH   9  11
ENDBRANCH   4   7
BRANCH   1  19
ATOM     19  O   UNL     1       2.700   5.584  18.321  0.00  0.00    +0.000 OA
BRANCH  19  25
ATOM     20  C   UNL     1       6.525   5.057  15.362  0.00  0.00    +0.000 C 
ATOM     21  O   UNL     1       7.431   5.893  15.400  0.00  0.00    +0.000 OA
ATOM     22  N   UNL     1       5.368   5.177  16.116  0.00  0.00    +0.000 N 
ATOM     23  C   UNL     1       5.134   6.410  16.851  0.00  0.00    +0.000 C 
ATOM     24  C   UNL     1       5.125   6.111  18.339  0.00  0.00    +0.000 C 
ATOM     25  C   UNL     1       4.011   5.096  18.665  0.00  0.00    +0.000 C 
ATOM     26  C   UNL     1       4.257   3.818  17.843  0.00  0.00    +0.000 C 
ATOM     27  C   UNL     1       4.382   4.116  16.345  0.00  0.00    +0.000 C 
BRANCH  20  28
ATOM     28  C   UNL     1       6.627   3.861  14.410  0.00  0.00    +0.000 C 
BRANCH  28  30
ATOM     29  C   UNL     1       6.103   3.175  12.211  0.00  0.00    +0.000 C 
ATOM     30  O   UNL     1       6.647   4.208  13.030  0.00  0.00    +0.000 OA
ENDBRANCH  28  30
ENDBRANCH  20  28
ENDBRANCH  19  25
ENDBRANCH   1  19
TORSDOF 9
ENDMDL
MODEL 7
REMARK VINA RESULT:      -6.5      1.825      2.801
REMARK  Name = 
REMARK  10 active torsions:
REMARK  status: ('A' for Active; 'I' for Inactive)
REMARK    1  A    between atoms: C_1  and  O_2
REMARK    2  A    between atoms: O_2  and  C_3
REMARK    3  A    between atoms: C_3  and  C_4
REMARK    4  A    between atoms: C_9  and  O_10
REMARK    5  A    between atoms: O_10  and  C_11
REMARK    6  A    between atoms: C_14  and  C_15
REMARK    7  A    between atoms: N_17  and  C_18
REMARK    8  A    between atoms: C_18  and  C_19
REMARK    9  A    between atoms: C_19  and  C_20
REMARK   10  A    between atoms: C_20  and  N_21
REMARK                            x       y       z     vdW  Elec       q    Type
REMARK                         _______ _______ _______ _____ _____    ______ ____
ROOT
ATOM      1  C   UNL     1       1.358   9.984  19.125  0.00  0.00    +0.000 A 
ATOM      2  C   UNL     1       1.283   9.101  20.206  0.00  0.00    +0.000 A 
ATOM      3  C   UNL     1       1.857   7.826  20.122  0.00  0.00    +0.000 A 
ATOM      4  C   UNL     1       2.513   7.433  18.949  0.00  0.00    +0.000 A 
ATOM      5  C   UNL     1       2.542   8.298  17.853  0.00  0.00    +0.000 A 
ATOM      6  C   UNL     1       1.955   9.562  17.936  0.00  0.00    +0.000 A 
ENDROOT
BRANCH   4   7
ATOM      7  C   UNL     1       3.170   6.104  18.808  0.00  0.00    +0.000 C 
ATOM      8  O   UNL     1       3.653   5.548  19.785  0.00  0.00    +0.000 OA
ATOM      9  N   UNL     1       3.168   5.551  17.544  0.00  0.00    +0.000 N 
ATOM     10  H   UNL     1       2.569   5.952  16.835  0.00  0.00    +0.000 HD
BRANCH   9  11
ATOM     11  C   UNL     1       3.732   4.241  17.295  0.00  0.00    +0.000 C 
BRANCH  11  12
ATOM     12  C   UNL     1       2.649   3.175  17.182  0.00  0.00    +0.000 C 
BRANCH  12  13
ATOM     13  C   UNL     1       2.872   2.056  18.192  0.00  0.00    +0.000 C 
BRANCH  13  14
ATOM     14  N   UNL     1       2.428   2.445  19.518  0.00  0.00    +0.000 N 
ATOM     15  C   UNL     1       1.178   2.866  19.869  0.00  0.00    +0.000 A 
ATOM     16  C   UNL     1       1.211   3.050  21.232  0.00  0.00    +0.000 A 
ATOM     17  C   UNL     1       2.530   2.728  21.604  0.00  0.00    +0.000 A 
ATOM     18  N   UNL     1       3.277   2.361  20.559  0.00  0.00    +0.000 NA
ENDBRANCH  13  14
ENDBRANCH  12  13
ENDBRANCH  11  12
ENDBRANCH   9  11
ENDBRANCH   4   7
BRANCH   1  19
ATOM     19  O   UNL     1       0.844  11.233  19.343  0.00  0.00    +0.000 OA
BRANCH  19  25
ATOM     20  C   UNL     1      -2.780  14.004  21.033  0.00  0.00    +0.000 C 
ATOM     21  O   UNL     1      -2.881  15.167  20.633  0.00  0.00    +0.000 OA
ATOM     22  N   UNL     1      -1.732  13.176  20.659  0.00  0.00    +0.000 N 
ATOM     23  C   UNL     1      -0.625  13.742  19.906  0.00  0.00    +0.000 C 
ATOM     24  C   UNL     1      -0.576  13.099  18.532  0.00  0.00    +0.000 C 
ATOM     25  C   UNL     1      -0.382  11.577  18.669  0.00  0.00    +0.000 C 
ATOM     26  C   UNL     1      -1.543  11.009  19.506  0.00  0.00    +0.000 C 
ATOM     27  C   UNL     1      -1.679  11.724  20.855  0.00  0.00    +0.000 C 
BRANCH  20  28
ATOM     28  C   UNL     1      -3.802  13.446  22.028  0.00  0.00    +0.000 C 
BRANCH  28  30
ATOM     29  C   UNL     1      -6.130  13.625  21.679  0.00  0.00    +0.000 C 
ATOM     30  O   UNL     1      -4.952  12.864  21.426  0.00  0.00    +0.000 OA
ENDBRANCH  28  30
ENDBRANCH  20  28
ENDBRANCH  19  25
ENDBRANCH   1  19
TORSDOF 9
ENDMDL
MODEL 8
REMARK VINA RESULT:      -6.5      1.251      2.030
REMARK  Name = 
REMARK  10 active torsions:
REMARK  status: ('A' for Active; 'I' for Inactive)
REMARK    1  A    between atoms: C_1  and  O_2
REMARK    2  A    between atoms: O_2  and  C_3
REMARK    3  A    between atoms: C_3  and  C_4
REMARK    4  A    between atoms: C_9  and  O_10
REMARK    5  A    between atoms: O_10  and  C_11
REMARK    6  A    between atoms: C_14  and  C_15
REMARK    7  A    between atoms: N_17  and  C_18
REMARK    8  A    between atoms: C_18  and  C_19
REMARK    9  A    between atoms: C_19  and  C_20
REMARK   10  A    between atoms: C_20  and  N_21
REMARK                            x       y       z     vdW  Elec       q    Type
REMARK                         _______ _______ _______ _____ _____    ______ ____
ROOT
ATOM      1  C   UNL     1       1.014   9.706  19.613  0.00  0.00    +0.000 A 
ATOM      2  C   UNL     1       1.132   8.751  20.628  0.00  0.00    +0.000 A 
ATOM      3  C   UNL     1       1.837   7.562  20.405  0.00  0.00    +0.000 A 
ATOM      4  C   UNL     1       2.432   7.328  19.158  0.00  0.00    +0.000 A 
ATOM      5  C   UNL     1       2.269   8.260  18.131  0.00  0.00    +0.000 A 
ATOM      6  C   UNL     1       1.552   9.437  18.353  0.00  0.00    +0.000 A 
ENDROOT
BRANCH   4   7
ATOM      7  C   UNL     1       3.221   6.099  18.868  0.00  0.00    +0.000 C 
ATOM      8  O   UNL     1       3.967   5.630  19.718  0.00  0.00    +0.000 OA
ATOM      9  N   UNL     1       3.033   5.530  17.626  0.00  0.00    +0.000 N 
ATOM     10  H   UNL     1       2.251   5.834  17.061  0.00  0.00    +0.000 HD
BRANCH   9  11
ATOM     11  C   UNL     1       3.707   4.305  17.249  0.00  0.00    +0.000 C 
BRANCH  11  12
ATOM     12  C   UNL     1       2.733   3.138  17.138  0.00  0.00    +0.000 C 
BRANCH  12  13
ATOM     13  C   UNL     1       2.987   2.104  18.228  0.00  0.00    +0.000 C 
BRANCH  13  14
ATOM     14  N   UNL     1       2.457   2.543  19.506  0.00  0.00    +0.000 N 
ATOM     15  C   UNL     1       3.106   2.525  20.708  0.00  0.00    +0.000 A 
ATOM     16  C   UNL     1       2.242   3.100  21.611  0.00  0.00    +0.000 A 
ATOM     17  C   UNL     1       1.097   3.416  20.858  0.00  0.00    +0.000 A 
ATOM     18  N   UNL     1       1.223   3.075  19.572  0.00  0.00    +0.000 NA
ENDBRANCH  13  14
ENDBRANCH  12  13
ENDBRANCH  11  12
ENDBRANCH   9  11
ENDBRANCH   4   7
BRANCH   1  19
ATOM     19  O   UNL     1       0.382  10.868  19.963  0.00  0.00    +0.000 OA
BRANCH  19  25
ATOM     20  C   UNL     1      -1.592  15.305  20.247  0.00  0.00    +0.000 C 
ATOM     21  O   UNL     1      -1.006  16.256  19.723  0.00  0.00    +0.000 OA
ATOM     22  N   UNL     1      -1.058  14.026  20.277  0.00  0.00    +0.000 N 
ATOM     23  C   UNL     1       0.309  13.825  19.827  0.00  0.00    +0.000 C 
ATOM     24  C   UNL     1       0.305  12.937  18.596  0.00  0.00    +0.000 C 
ATOM     25  C   UNL     1      -0.333  11.575  18.931  0.00  0.00    +0.000 C 
ATOM     26  C   UNL     1      -1.764  11.818  19.446  0.00  0.00    +0.000 C 
ATOM     27  C   UNL     1      -1.790  12.803  20.620  0.00  0.00    +0.000 C 
BRANCH  20  28
ATOM     28  C   UNL     1      -2.934  15.528  20.952  0.00  0.00    +0.000 C 
BRANCH  28  30
ATOM     29  C   UNL     1      -2.598  15.743  23.279  0.00  0.00    +0.000 C 
ATOM     30  O   UNL     1      -2.876  16.422  22.057  0.00  0.00    +0.000 OA
ENDBRANCH  28  30
ENDBRANCH  20  28
ENDBRANCH  19  25
ENDBRANCH   1  19
TORSDOF 9
ENDMDL
MODEL 9
REMARK VINA RESULT:      -6.5      1.924      2.464
REMARK  Name = 
REMARK  10 active torsions:
REMARK  status: ('A' for Active; 'I' for Inactive)
REMARK    1  A    between atoms: C_1  and  O_2
REMARK    2  A    between atoms: O_2  and  C_3
REMARK    3  A    between atoms: C_3  and  C_4
REMARK    4  A    between atoms: C_9  and  O_10
REMARK    5  A    between atoms: O_10  and  C_11
REMARK    6  A    between atoms: C_14  and  C_15
REMARK    7  A    between atoms: N_17  and  C_18
REMARK    8  A    between atoms: C_18  and  C_19
REMARK    9  A    between atoms: C_19  and  C_20
REMARK   10  A    between atoms: C_20  and  N_21
REMARK                            x       y       z     vdW  Elec       q    Type
REMARK                         _______ _______ _______ _____ _____    ______ ____
ROOT
ATOM      1  C   UNL     1       0.994   9.429  19.654  0.00  0.00    +0.000 A 
ATOM      2  C   UNL     1       1.351   8.334  20.446  0.00  0.00    +0.000 A 
ATOM      3  C   UNL     1       2.144   7.306  19.920  0.00  0.00    +0.000 A 
ATOM      4  C   UNL     1       2.585   7.376  18.592  0.00  0.00    +0.000 A 
ATOM      5  C   UNL     1       2.184   8.446  17.789  0.00  0.00    +0.000 A 
ATOM      6  C   UNL     1       1.381   9.460  18.313  0.00  0.00    +0.000 A 
ENDROOT
BRANCH   4   7
ATOM      7  C   UNL     1       3.456   6.333  17.984  0.00  0.00    +0.000 C 
ATOM      8  O   UNL     1       4.631   6.573  17.745  0.00  0.00    +0.000 OA
ATOM      9  N   UNL     1       2.867   5.109  17.744  0.00  0.00    +0.000 N 
ATOM     10  H   UNL     1       1.967   4.907  18.160  0.00  0.00    +0.000 HD
BRANCH   9  11
ATOM     11  C   UNL     1       3.627   4.001  17.203  0.00  0.00    +0.000 C 
BRANCH  11  12
ATOM     12  C   UNL     1       2.807   2.717  17.172  0.00  0.00    +0.000 C 
BRANCH  12  13
ATOM     13  C   UNL     1       3.079   1.862  18.404  0.00  0.00    +0.000 C 
BRANCH  13  14
ATOM     14  N   UNL     1       2.505   2.457  19.597  0.00  0.00    +0.000 N 
ATOM     15  C   UNL     1       3.141   2.678  20.785  0.00  0.00    +0.000 A 
ATOM     16  C   UNL     1       2.228   3.323  21.587  0.00  0.00    +0.000 A 
ATOM     17  C   UNL     1       1.070   3.429  20.795  0.00  0.00    +0.000 A 
ATOM     18  N   UNL     1       1.234   2.899  19.580  0.00  0.00    +0.000 NA
ENDBRANCH  13  14
ENDBRANCH  12  13
ENDBRANCH  11  12
ENDBRANCH   9  11
ENDBRANCH   4   7
BRANCH   1  19
ATOM     19  O   UNL     1       0.293  10.417  20.290  0.00  0.00    +0.000 OA
BRANCH  19  25
ATOM     20  C   UNL     1      -2.244  14.345  21.631  0.00  0.00    +0.000 C 
ATOM     21  O   UNL     1      -1.721  15.165  22.391  0.00  0.00    +0.000 OA
ATOM     22  N   UNL     1      -1.617  13.164  21.265  0.00  0.00    +0.000 N 
ATOM     23  C   UNL     1      -0.376  12.794  21.925  0.00  0.00    +0.000 C 
ATOM     24  C   UNL     1       0.747  12.778  20.904  0.00  0.00    +0.000 C 
ATOM     25  C   UNL     1       0.432  11.761  19.790  0.00  0.00    +0.000 C 
ATOM     26  C   UNL     1      -0.907  12.150  19.136  0.00  0.00    +0.000 C 
ATOM     27  C   UNL     1      -2.031  12.282  20.170  0.00  0.00    +0.000 C 
BRANCH  20  28
ATOM     28  C   UNL     1      -3.662  14.586  21.105  0.00  0.00    +0.000 C 
BRANCH  28  30
ATOM     29  C   UNL     1      -4.838  13.343  22.733  0.00  0.00    +0.000 C 
ATOM     30  O   UNL     1      -4.666  14.616  22.113  0.00  0.00    +0.000 OA
ENDBRANCH  28  30
ENDBRANCH  20  28
ENDBRANCH  19  25
ENDBRANCH   1  19
TORSDOF 9
ENDMDL
