MODEL 1
REMARK VINA RESULT:      -8.2      0.000      0.000
REMARK  Name = 
REMARK  8 active torsions:
REMARK  status: ('A' for Active; 'I' for Inactive)
REMARK    1  A    between atoms: C_1  and  O_2
REMARK    2  A    between atoms: O_2  and  C_3
REMARK    3  A    between atoms: C_10  and  N_11
REMARK    4  A    between atoms: N_14  and  C_15
REMARK    5  A    between atoms: C_15  and  C_16
REMARK    6  A    between atoms: C_16  and  N_17
REMARK    7  A    between atoms: N_17  and  C_18
REMARK    8  A    between atoms: C_18  and  C_19
REMARK                            x       y       z     vdW  Elec       q    Type
REMARK                         _______ _______ _______ _____ _____    ______ ____
ROOT
ATOM      1  N   UNL     1       4.967   5.237  17.905  0.00  0.00    +0.000 N 
ATOM      2  C   UNL     1       6.131   5.539  18.753  0.00  0.00    +0.000 C 
ATOM      3  C   UNL     1       7.453   5.304  17.987  0.00  0.00    +0.000 C 
ATOM      4  N   UNL     1       7.560   6.052  16.707  0.00  0.00    +0.000 NA
ATOM      5  C   UNL     1       6.397   5.630  15.877  0.00  0.00    +0.000 C 
ATOM      6  C   UNL     1       4.998   5.789  16.538  0.00  0.00    +0.000 C 
ENDROOT
BRANCH   1  14
ATOM      7  C   UNL     1       1.563   5.511  20.484  0.00  0.00    +0.000 A 
ATOM      8  C   UNL     1       0.723   4.441  20.671  0.00  0.00    +0.000 A 
ATOM      9  C   UNL     1       1.041   3.249  20.026  0.00  0.00    +0.000 A 
ATOM     10  C   UNL     1       2.156   3.150  19.209  0.00  0.00    +0.000 A 
ATOM     11  N   UNL     1       2.387   1.972  18.602  0.00  0.00    +0.000 NA
ATOM     12  C   UNL     1       3.452   1.896  17.793  0.00  0.00    +0.000 A 
ATOM     13  C   UNL     1       4.310   2.953  17.568  0.00  0.00    +0.000 A 
ATOM     14  C   UNL     1       4.087   4.187  18.203  0.00  0.00    +0.000 A 
ATOM     15  C   UNL     1       2.965   4.303  19.061  0.00  0.00    +0.000 A 
ATOM     16  N   UNL     1       2.671   5.457  19.724  0.00  0.00    +0.000 NA
BRANCH   7  18
ATOM     17  C   UNL     1       1.677   7.846  20.389  0.00  0.00    +0.000 C 
ATOM     18  O   UNL     1       1.207   6.699  21.091  0.00  0.00    +0.000 OA
ENDBRANCH   7  18
ENDBRANCH   1  14
BRANCH   4  19
ATOM     19  C   UNL     1       7.524   7.514  16.895  0.00  0.00    +0.000 C 
BRANCH  19  20
ATOM     20  C   UNL     1       8.183   8.043  18.192  0.00  0.00    +0.000 C 
BRANCH  20  21
ATOM     21  N   UNL     1       8.351   9.505  18.216  0.00  0.00    +0.000 NA
ATOM     22  H   UNL     1       7.477   9.941  18.510  0.00  0.00    +0.000 HD
BRANCH  21  23
ATOM     23  C   UNL     1       9.415   9.914  19.146  0.00  0.00    +0.000 C 
BRANCH  23  24
ATOM     24  C   UNL     1       9.780  11.374  19.010  0.00  0.00    +0.000 A 
ATOM     25  C   UNL     1      10.072  11.914  17.761  0.00  0.00    +0.000 A 
ATOM     26  C   UNL     1      10.393  13.265  17.675  0.00  0.00    +0.000 A 
ATOM     27  C   UNL     1      10.412  14.031  18.831  0.00  0.00    +0.000 A 
ATOM     28  C   UNL     1      10.145  13.402  20.043  0.00  0.00    +0.000 A 
ATOM     29  N   UNL     1       9.820  12.102  20.154  0.00  0.00    +0.000 NA
ATOM     30  N   UNL     1      10.286  14.109  21.229  0.00  0.00    +0.000 N 
ATOM     31  C   UNL     1      10.596  15.437  21.235  0.00  0.00    +0.000 C 
ATOM     32  O   UNL     1      10.868  16.040  22.268  0.00  0.00    +0.000 OA
ATOM     33  C   UNL     1      10.464  16.117  19.871  0.00  0.00    +0.000 C 
ATOM     34  O   UNL     1      10.766  15.349  18.711  0.00  0.00    +0.000 OA
ATOM     35  H   UNL     1      10.245  13.593  22.094  0.00  0.00    +0.000 HD
ENDBRANCH  23  24
ENDBRANCH  21  23
ENDBRANCH  20  21
ENDBRANCH  19  20
ENDBRANCH   4  19
TORSDOF 7
ENDMDL
MODEL 2
REMARK VINA RESULT:      -8.1      1.157      1.637
REMARK  Name = 
REMARK  8 active torsions:
REMARK  status: ('A' for Active; 'I' for Inactive)
REMARK    1  A    between atoms: C_1  and  O_2
REMARK    2  A    between atoms: O_2  and  C_3
REMARK    3  A    between atoms: C_10  and  N_11
REMARK    4  A    between atoms: N_14  and  C_15
REMARK    5  A    between atoms: C_15  and  C_16
REMARK    6  A    between atoms: C_16  and  N_17
REMARK    7  A    between atoms: N_17  and  C_18
REMARK    8  A    between atoms: C_18  and  C_19
REMARK                            x       y       z     vdW  Elec       q    Type
REMARK                         _______ _______ _______ _____ _____    ______ ____
ROOT
ATOM      1  N   UNL     1       5.059   5.353  18.065  0.00  0.00    +0.000 N 
ATOM      2  C   UNL     1       6.240   5.589  18.912  0.00  0.00    +0.000 C 
ATOM      3  C   UNL     1       7.544   5.489  18.088  0.00  0.00    +0.000 C 
ATOM      4  N   UNL     1       7.590   6.388  16.905  0.00  0.00    +0.000 NA
ATOM      5  C   UNL     1       6.415   6.031  16.061  0.00  0.00    +0.000 C 
ATOM      6  C   UNL     1       5.033   6.065  16.774  0.00  0.00    +0.000 C 
ENDROOT
BRANCH   1  14
ATOM      7  C   UNL     1       1.533   5.314  20.489  0.00  0.00    +0.000 A 
ATOM      8  C   UNL     1       0.738   4.196  20.573  0.00  0.00    +0.000 A 
ATOM      9  C   UNL     1       1.142   3.062  19.875  0.00  0.00    +0.000 A 
ATOM     10  C   UNL     1       2.297   3.065  19.108  0.00  0.00    +0.000 A 
ATOM     11  N   UNL     1       2.611   1.938  18.444  0.00  0.00    +0.000 NA
ATOM     12  C   UNL     1       3.715   1.959  17.684  0.00  0.00    +0.000 A 
ATOM     13  C   UNL     1       4.530   3.067  17.563  0.00  0.00    +0.000 A 
ATOM     14  C   UNL     1       4.219   4.248  18.258  0.00  0.00    +0.000 A 
ATOM     15  C   UNL     1       3.055   4.260  19.067  0.00  0.00    +0.000 A 
ATOM     16  N   UNL     1       2.676   5.356  19.782  0.00  0.00    +0.000 NA
BRANCH   7  18
ATOM     17  C   UNL     1       1.709   7.638  20.677  0.00  0.00    +0.000 C 
ATOM     18  O   UNL     1       1.092   6.444  21.148  0.00  0.00    +0.000 OA
ENDBRANCH   7  18
ENDBRANCH   1  14
BRANCH   4  19
ATOM     19  C   UNL     1       7.519   7.814  17.268  0.00  0.00    +0.000 C 
BRANCH  19  20
ATOM     20  C   UNL     1       8.505   8.280  18.367  0.00  0.00    +0.000 C 
BRANCH  20  21
ATOM     21  N   UNL     1       8.474   9.730  18.613  0.00  0.00    +0.000 NA
ATOM     22  H   UNL     1       8.580   9.905  19.613  0.00  0.00    +0.000 HD
BRANCH  21  23
ATOM     23  C   UNL     1       9.555  10.425  17.899  0.00  0.00    +0.000 C 
BRANCH  23  24
ATOM     24  C   UNL     1       9.886  11.770  18.505  0.00  0.00    +0.000 A 
ATOM     25  C   UNL     1      10.148  11.883  19.868  0.00  0.00    +0.000 A 
ATOM     26  C   UNL     1      10.460  13.136  20.386  0.00  0.00    +0.000 A 
ATOM     27  C   UNL     1      10.503  14.230  19.535  0.00  0.00    +0.000 A 
ATOM     28  C   UNL     1      10.189  14.034  18.193  0.00  0.00    +0.000 A 
ATOM     29  N   UNL     1       9.897  12.833  17.663  0.00  0.00    +0.000 NA
ATOM     30  N   UNL     1      10.093  15.126  17.344  0.00  0.00    +0.000 N 
ATOM     31  C   UNL     1      10.384  16.389  17.770  0.00  0.00    +0.000 C 
ATOM     32  O   UNL     1      10.163  17.379  17.080  0.00  0.00    +0.000 OA
ATOM     33  C   UNL     1      11.103  16.444  19.119  0.00  0.00    +0.000 C 
ATOM     34  O   UNL     1      10.779  15.452  20.088  0.00  0.00    +0.000 OA
ATOM     35  H   UNL     1       9.711  14.976  16.423  0.00  0.00    +0.000 HD
ENDBRANCH  23  24
ENDBRANCH  21  23
ENDBRANCH  20  21
ENDBRANCH  19  20
ENDBRANCH   4  19
TORSDOF 7
ENDMDL
MODEL 3
REMARK VINA RESULT:      -8.0      1.904      2.226
REMARK  Name = 
REMARK  8 active torsions:
REMARK  status: ('A' for Active; 'I' for Inactive)
REMARK    1  A    between atoms: C_1  and  O_2
REMARK    2  A    between atoms: O_2  and  C_3
REMARK    3  A    between atoms: C_10  and  N_11
REMARK    4  A    between atoms: N_14  and  C_15
REMARK    5  A    between atoms: C_15  and  C_16
REMARK    6  A    between atoms: C_16  and  N_17
REMARK    7  A    between atoms: N_17  and  C_18
REMARK    8  A    between atoms: C_18  and  C_19
REMARK                            x       y       z     vdW  Elec       q    Type
REMARK                         _______ _______ _______ _____ _____    ______ ____
ROOT
ATOM      1  N   UNL     1       5.025   5.494  18.046  0.00  0.00    +0.000 N 
ATOM      2  C   UNL     1       6.139   5.811  18.955  0.00  0.00    +0.000 C 
ATOM      3  C   UNL     1       7.498   5.702  18.228  0.00  0.00    +0.000 C 
ATOM      4  N   UNL     1       7.604   6.533  17.000  0.00  0.00    +0.000 NA
ATOM      5  C   UNL     1       6.499   6.095  16.102  0.00  0.00    +0.000 C 
ATOM      6  C   UNL     1       5.070   6.130  16.717  0.00  0.00    +0.000 C 
ENDROOT
BRANCH   1  14
ATOM      7  C   UNL     1       1.560   5.389  20.555  0.00  0.00    +0.000 A 
ATOM      8  C   UNL     1       0.779   4.262  20.645  0.00  0.00    +0.000 A 
ATOM      9  C   UNL     1       1.178   3.140  19.924  0.00  0.00    +0.000 A 
ATOM     10  C   UNL     1       2.313   3.164  19.129  0.00  0.00    +0.000 A 
ATOM     11  N   UNL     1       2.623   2.048  18.445  0.00  0.00    +0.000 NA
ATOM     12  C   UNL     1       3.707   2.090  17.658  0.00  0.00    +0.000 A 
ATOM     13  C   UNL     1       4.508   3.208  17.530  0.00  0.00    +0.000 A 
ATOM     14  C   UNL     1       4.201   4.378  18.246  0.00  0.00    +0.000 A 
ATOM     15  C   UNL     1       3.058   4.367  19.084  0.00  0.00    +0.000 A 
ATOM     16  N   UNL     1       2.685   5.452  19.820  0.00  0.00    +0.000 NA
BRANCH   7  18
ATOM     17  C   UNL     1       1.567   7.726  20.649  0.00  0.00    +0.000 C 
ATOM     18  O   UNL     1       1.124   6.507  21.238  0.00  0.00    +0.000 OA
ENDBRANCH   7  18
ENDBRANCH   1  14
BRANCH   4  19
ATOM     19  C   UNL     1       7.472   7.975  17.274  0.00  0.00    +0.000 C 
BRANCH  19  20
ATOM     20  C   UNL     1       8.431   8.548  18.346  0.00  0.00    +0.000 C 
BRANCH  20  21
ATOM     21  N   UNL     1       8.671   9.994  18.213  0.00  0.00    +0.000 NA
ATOM     22  H   UNL     1       7.824  10.502  18.472  0.00  0.00    +0.000 HD
BRANCH  21  23
ATOM     23  C   UNL     1       9.771  10.444  19.078  0.00  0.00    +0.000 C 
BRANCH  23  24
ATOM     24  C   UNL     1       9.353  11.537  20.034  0.00  0.00    +0.000 A 
ATOM     25  C   UNL     1       9.218  12.849  19.589  0.00  0.00    +0.000 A 
ATOM     26  C   UNL     1       8.820  13.825  20.497  0.00  0.00    +0.000 A 
ATOM     27  C   UNL     1       8.571  13.465  21.812  0.00  0.00    +0.000 A 
ATOM     28  C   UNL     1       8.769  12.138  22.182  0.00  0.00    +0.000 A 
ATOM     29  N   UNL     1       9.140  11.172  21.324  0.00  0.00    +0.000 NA
ATOM     30  N   UNL     1       8.658  11.773  23.515  0.00  0.00    +0.000 N 
ATOM     31  C   UNL     1       8.271  12.667  24.470  0.00  0.00    +0.000 C 
ATOM     32  O   UNL     1       8.309  12.402  25.667  0.00  0.00    +0.000 OA
ATOM     33  C   UNL     1       7.688  13.966  23.911  0.00  0.00    +0.000 C 
ATOM     34  O   UNL     1       8.215  14.460  22.684  0.00  0.00    +0.000 OA
ATOM     35  H   UNL     1       8.961  10.848  23.779  0.00  0.00    +0.000 HD
ENDBRANCH  23  24
ENDBRANCH  21  23
ENDBRANCH  20  21
ENDBRANCH  19  20
ENDBRANCH   4  19
TORSDOF 7
ENDMDL
MODEL 4
REMARK VINA RESULT:      -8.0      5.132      9.406
REMARK  Name = 
REMARK  8 active torsions:
REMARK  status: ('A' for Active; 'I' for Inactive)
REMARK    1  A    between atoms: C_1  and  O_2
REMARK    2  A    between atoms: O_2  and  C_3
REMARK    3  A    between atoms: C_10  and  N_11
REMARK    4  A    between atoms: N_14  and  C_15
REMARK    5  A    between atoms: C_15  and  C_16
REMARK    6  A    between atoms: C_16  and  N_17
REMARK    7  A    between atoms: N_17  and  C_18
REMARK    8  A    between atoms: C_18  and  C_19
REMARK                            x       y       z     vdW  Elec       q    Type
REMARK                         _______ _______ _______ _____ _____    ______ ____
ROOT
ATOM      1  N   UNL     1       2.582   7.404  18.752  0.00  0.00    +0.000 N 
ATOM      2  C   UNL     1       2.377   8.615  17.940  0.00  0.00    +0.000 C 
ATOM      3  C   UNL     1       0.957   9.189  18.148  0.00  0.00    +0.000 C 
ATOM      4  N   UNL     1       0.615   9.474  19.566  0.00  0.00    +0.000 NA
ATOM      5  C   UNL     1       0.765   8.187  20.301  0.00  0.00    +0.000 C 
ATOM      6  C   UNL     1       2.145   7.482  20.158  0.00  0.00    +0.000 C 
ENDROOT
BRANCH   1  14
ATOM      7  C   UNL     1       6.164   6.168  16.763  0.00  0.00    +0.000 A 
ATOM      8  C   UNL     1       6.302   4.893  16.269  0.00  0.00    +0.000 A 
ATOM      9  C   UNL     1       5.218   4.029  16.400  0.00  0.00    +0.000 A 
ATOM     10  C   UNL     1       4.048   4.435  17.022  0.00  0.00    +0.000 A 
ATOM     11  N   UNL     1       3.052   3.537  17.131  0.00  0.00    +0.000 NA
ATOM     12  C   UNL     1       1.935   3.930  17.758  0.00  0.00    +0.000 A 
ATOM     13  C   UNL     1       1.766   5.197  18.281  0.00  0.00    +0.000 A 
ATOM     14  C   UNL     1       2.794   6.147  18.167  0.00  0.00    +0.000 A 
ATOM     15  C   UNL     1       3.991   5.762  17.512  0.00  0.00    +0.000 A 
ATOM     16  N   UNL     1       5.040   6.616  17.349  0.00  0.00    +0.000 NA
BRANCH   7  18
ATOM     17  C   UNL     1       7.815   7.337  17.937  0.00  0.00    +0.000 C 
ATOM     18  O   UNL     1       7.265   6.996  16.669  0.00  0.00    +0.000 OA
ENDBRANCH   7  18
ENDBRANCH   1  14
BRANCH   4  19
ATOM     19  C   UNL     1       1.492  10.492  20.172  0.00  0.00    +0.000 C 
BRANCH  19  20
ATOM     20  C   UNL     1       0.774  11.645  20.914  0.00  0.00    +0.000 C 
BRANCH  20  21
ATOM     21  N   UNL     1       1.295  12.980  20.577  0.00  0.00    +0.000 NA
ATOM     22  H   UNL     1       1.980  12.895  19.826  0.00  0.00    +0.000 HD
BRANCH  21  23
ATOM     23  C   UNL     1       0.223  13.884  20.133  0.00  0.00    +0.000 C 
BRANCH  23  24
ATOM     24  C   UNL     1      -0.982  13.144  19.600  0.00  0.00    +0.000 A 
ATOM     25  C   UNL     1      -2.087  12.915  20.416  0.00  0.00    +0.000 A 
ATOM     26  C   UNL     1      -3.181  12.241  19.886  0.00  0.00    +0.000 A 
ATOM     27  C   UNL     1      -3.142  11.819  18.566  0.00  0.00    +0.000 A 
ATOM     28  C   UNL     1      -1.983  12.055  17.832  0.00  0.00    +0.000 A 
ATOM     29  N   UNL     1      -0.916  12.715  18.315  0.00  0.00    +0.000 NA
ATOM     30  N   UNL     1      -1.861  11.529  16.554  0.00  0.00    +0.000 N 
ATOM     31  C   UNL     1      -2.887  10.857  15.958  0.00  0.00    +0.000 C 
ATOM     32  O   UNL     1      -2.748  10.262  14.894  0.00  0.00    +0.000 OA
ATOM     33  C   UNL     1      -4.232  11.008  16.671  0.00  0.00    +0.000 C 
ATOM     34  O   UNL     1      -4.225  11.128  18.089  0.00  0.00    +0.000 OA
ATOM     35  H   UNL     1      -0.957  11.577  16.108  0.00  0.00    +0.000 HD
ENDBRANCH  23  24
ENDBRANCH  21  23
ENDBRANCH  20  21
ENDBRANCH  19  20
ENDBRANCH   4  19
TORSDOF 7
ENDMDL
MODEL 5
REMARK VINA RESULT:      -7.9      1.599      1.727
REMARK  Name = 
REMARK  8 active torsions:
REMARK  status: ('A' for Active; 'I' for Inactive)
REMARK    1  A    between atoms: C_1  and  O_2
REMARK    2  A    between atoms: O_2  and  C_3
REMARK    3  A    between atoms: C_10  and  N_11
REMARK    4  A    between atoms: N_14  and  C_15
REMARK    5  A    between atoms: C_15  and  C_16
REMARK    6  A    between atoms: C_16  and  N_17
REMARK    7  A    between atoms: N_17  and  C_18
REMARK    8  A    between atoms: C_18  and  C_19
REMARK                            x       y       z     vdW  Elec       q    Type
REMARK                         _______ _______ _______ _____ _____    ______ ____
ROOT
ATOM      1  N   UNL     1       5.084   5.584  18.073  0.00  0.00    +0.000 N 
ATOM      2  C   UNL     1       6.237   5.828  18.955  0.00  0.00    +0.000 C 
ATOM      3  C   UNL     1       7.565   5.765  18.166  0.00  0.00    +0.000 C 
ATOM      4  N   UNL     1       7.626   6.684  16.999  0.00  0.00    +0.000 NA
ATOM      5  C   UNL     1       6.481   6.319  16.118  0.00  0.00    +0.000 C 
ATOM      6  C   UNL     1       5.080   6.317  16.793  0.00  0.00    +0.000 C 
ENDROOT
BRANCH   1  14
ATOM      7  C   UNL     1       1.613   5.377  20.567  0.00  0.00    +0.000 A 
ATOM      8  C   UNL     1       0.832   4.248  20.608  0.00  0.00    +0.000 A 
ATOM      9  C   UNL     1       1.232   3.156  19.843  0.00  0.00    +0.000 A 
ATOM     10  C   UNL     1       2.370   3.213  19.052  0.00  0.00    +0.000 A 
ATOM     11  N   UNL     1       2.681   2.126  18.323  0.00  0.00    +0.000 NA
ATOM     12  C   UNL     1       3.767   2.200  17.542  0.00  0.00    +0.000 A 
ATOM     13  C   UNL     1       4.568   3.322  17.462  0.00  0.00    +0.000 A 
ATOM     14  C   UNL     1       4.260   4.461  18.225  0.00  0.00    +0.000 A 
ATOM     15  C   UNL     1       3.114   4.417  19.059  0.00  0.00    +0.000 A 
ATOM     16  N   UNL     1       2.740   5.470  19.838  0.00  0.00    +0.000 NA
BRANCH   7  18
ATOM     17  C   UNL     1       1.641   7.707  20.772  0.00  0.00    +0.000 C 
ATOM     18  O   UNL     1       1.176   6.466  21.294  0.00  0.00    +0.000 OA
ENDBRANCH   7  18
ENDBRANCH   1  14
BRANCH   4  19
ATOM     19  C   UNL     1       7.519   8.102  17.384  0.00  0.00    +0.000 C 
BRANCH  19  20
ATOM     20  C   UNL     1       8.466   8.568  18.516  0.00  0.00    +0.000 C 
BRANCH  20  21
ATOM     21  N   UNL     1       9.192   9.810  18.207  0.00  0.00    +0.000 NA
ATOM     22  H   UNL     1       9.760   9.670  17.370  0.00  0.00    +0.000 HD
BRANCH  21  23
ATOM     23  C   UNL     1       8.272  10.931  17.966  0.00  0.00    +0.000 C 
BRANCH  23  24
ATOM     24  C   UNL     1       8.981  12.265  17.904  0.00  0.00    +0.000 A 
ATOM     25  C   UNL     1      10.365  12.323  17.770  0.00  0.00    +0.000 A 
ATOM     26  C   UNL     1      10.979  13.569  17.704  0.00  0.00    +0.000 A 
ATOM     27  C   UNL     1      10.198  14.713  17.774  0.00  0.00    +0.000 A 
ATOM     28  C   UNL     1       8.825  14.565  17.947  0.00  0.00    +0.000 A 
ATOM     29  N   UNL     1       8.204  13.374  18.001  0.00  0.00    +0.000 NA
ATOM     30  N   UNL     1       8.034  15.686  18.154  0.00  0.00    +0.000 N 
ATOM     31  C   UNL     1       8.556  16.945  18.104  0.00  0.00    +0.000 C 
ATOM     32  O   UNL     1       7.906  17.934  18.428  0.00  0.00    +0.000 OA
ATOM     33  C   UNL     1       9.963  17.018  17.509  0.00  0.00    +0.000 C 
ATOM     34  O   UNL     1      10.842  15.922  17.741  0.00  0.00    +0.000 OA
ATOM     35  H   UNL     1       7.077  15.543  18.435  0.00  0.00    +0.000 HD
ENDBRANCH  23  24
ENDBRANCH  21  23
ENDBRANCH  20  21
ENDBRANCH  19  20
ENDBRANCH   4  19
TORSDOF 7
ENDMDL
MODEL 6
REMARK VINA RESULT:      -7.9      6.243      9.504
REMARK  Name = 
REMARK  8 active torsions:
REMARK  status: ('A' for Active; 'I' for Inactive)
REMARK    1  A    between atoms: C_1  and  O_2
REMARK    2  A    between atoms: O_2  and  C_3
REMARK    3  A    between atoms: C_10  and  N_11
REMARK    4  A    between atoms: N_14  and  C_15
REMARK    5  A    between atoms: C_15  and  C_16
REMARK    6  A    between atoms: C_16  and  N_17
REMARK    7  A    between atoms: N_17  and  C_18
REMARK    8  A    between atoms: C_18  and  C_19
REMARK                            x       y       z     vdW  Elec       q    Type
REMARK                         _______ _______ _______ _____ _____    ______ ____
ROOT
ATOM      1  N   UNL     1       2.287   7.589  19.344  0.00  0.00    +0.000 N 
ATOM      2  C   UNL     1       2.297   8.306  18.058  0.00  0.00    +0.000 C 
ATOM      3  C   UNL     1       0.989   9.104  17.856  0.00  0.00    +0.000 C 
ATOM      4  N   UNL     1       0.677  10.055  18.956  0.00  0.00    +0.000 NA
ATOM      5  C   UNL     1       0.602   9.243  20.203  0.00  0.00    +0.000 C 
ATOM      6  C   UNL     1       1.848   8.367  20.517  0.00  0.00    +0.000 C 
ENDROOT
BRANCH   1  14
ATOM      7  C   UNL     1       4.540   5.000  16.788  0.00  0.00    +0.000 A 
ATOM      8  C   UNL     1       4.531   3.638  16.967  0.00  0.00    +0.000 A 
ATOM      9  C   UNL     1       3.730   3.125  17.982  0.00  0.00    +0.000 A 
ATOM     10  C   UNL     1       2.980   3.960  18.797  0.00  0.00    +0.000 A 
ATOM     11  N   UNL     1       2.247   3.392  19.771  0.00  0.00    +0.000 NA
ATOM     12  C   UNL     1       1.548   4.210  20.570  0.00  0.00    +0.000 A 
ATOM     13  C   UNL     1       1.543   5.583  20.431  0.00  0.00    +0.000 A 
ATOM     14  C   UNL     1       2.298   6.189  19.412  0.00  0.00    +0.000 A 
ATOM     15  C   UNL     1       3.052   5.352  18.552  0.00  0.00    +0.000 A 
ATOM     16  N   UNL     1       3.809   5.848  17.533  0.00  0.00    +0.000 NA
BRANCH   7  18
ATOM     17  C   UNL     1       6.018   4.472  15.054  0.00  0.00    +0.000 C 
ATOM     18  O   UNL     1       5.377   5.496  15.808  0.00  0.00    +0.000 OA
ENDBRANCH   7  18
ENDBRANCH   1  14
BRANCH   4  19
ATOM     19  C   UNL     1       1.701  11.103  19.111  0.00  0.00    +0.000 C 
BRANCH  19  20
ATOM     20  C   UNL     1       1.446  12.132  20.239  0.00  0.00    +0.000 C 
BRANCH  20  21
ATOM     21  N   UNL     1       0.960  13.434  19.754  0.00  0.00    +0.000 NA
ATOM     22  H   UNL     1       0.896  13.412  18.735  0.00  0.00    +0.000 HD
BRANCH  21  23
ATOM     23  C   UNL     1      -0.366  13.756  20.300  0.00  0.00    +0.000 C 
BRANCH  23  24
ATOM     24  C   UNL     1      -1.480  12.997  19.615  0.00  0.00    +0.000 A 
ATOM     25  C   UNL     1      -2.643  12.674  20.309  0.00  0.00    +0.000 A 
ATOM     26  C   UNL     1      -3.650  11.986  19.640  0.00  0.00    +0.000 A 
ATOM     27  C   UNL     1      -3.468  11.643  18.309  0.00  0.00    +0.000 A 
ATOM     28  C   UNL     1      -2.258  11.971  17.703  0.00  0.00    +0.000 A 
ATOM     29  N   UNL     1      -1.274  12.647  18.321  0.00  0.00    +0.000 NA
ATOM     30  N   UNL     1      -1.992  11.527  16.416  0.00  0.00    +0.000 N 
ATOM     31  C   UNL     1      -2.925  10.847  15.690  0.00  0.00    +0.000 C 
ATOM     32  O   UNL     1      -2.659  10.322  14.613  0.00  0.00    +0.000 OA
ATOM     33  C   UNL     1      -4.336  10.898  16.277  0.00  0.00    +0.000 C 
ATOM     34  O   UNL     1      -4.467  10.935  17.695  0.00  0.00    +0.000 OA
ATOM     35  H   UNL     1      -1.055  11.639  16.062  0.00  0.00    +0.000 HD
ENDBRANCH  23  24
ENDBRANCH  21  23
ENDBRANCH  20  21
ENDBRANCH  19  20
ENDBRANCH   4  19
TORSDOF 7
ENDMDL
MODEL 7
REMARK VINA RESULT:      -7.8      5.406     10.767
REMARK  Name = 
REMARK  8 active torsions:
REMARK  status: ('A' for Active; 'I' for Inactive)
REMARK    1  A    between atoms: C_1  and  O_2
REMARK    2  A    between atoms: O_2  and  C_3
REMARK    3  A    between atoms: C_10  and  N_11
REMARK    4  A    between atoms: N_14  and  C_15
REMARK    5  A    between atoms: C_15  and  C_16
REMARK    6  A    between atoms: C_16  and  N_17
REMARK    7  A    between atoms: N_17  and  C_18
REMARK    8  A    between atoms: C_18  and  C_19
REMARK                            x       y       z     vdW  Elec       q    Type
REMARK                         _______ _______ _______ _____ _____    ______ ____
ROOT
ATOM      1  N   UNL     1       0.757  12.683  19.255  0.00  0.00    +0.000 N 
ATOM      2  C   UNL     1       1.388  12.052  20.426  0.00  0.00    +0.000 C 
ATOM      3  C   UNL     1       0.328  11.421  21.357  0.00  0.00    +0.000 C 
ATOM      4  N   UNL     1      -0.571  10.445  20.687  0.00  0.00    +0.000 NA
ATOM      5  C   UNL     1      -1.231  11.180  19.572  0.00  0.00    +0.000 C 
ATOM      6  C   UNL     1      -0.277  11.888  18.568  0.00  0.00    +0.000 C 
ENDROOT
BRANCH   1  14
ATOM      7  C   UNL     1       4.249  14.845  18.054  0.00  0.00    +0.000 A 
ATOM      8  C   UNL     1       4.202  16.196  17.807  0.00  0.00    +0.000 A 
ATOM      9  C   UNL     1       2.986  16.846  18.002  0.00  0.00    +0.000 A 
ATOM     10  C   UNL     1       1.859  16.152  18.414  0.00  0.00    +0.000 A 
ATOM     11  N   UNL     1       0.715  16.844  18.560  0.00  0.00    +0.000 NA
ATOM     12  C   UNL     1      -0.375  16.160  18.932  0.00  0.00    +0.000 A 
ATOM     13  C   UNL     1      -0.370  14.801  19.175  0.00  0.00    +0.000 A 
ATOM     14  C   UNL     1       0.820  14.066  19.035  0.00  0.00    +0.000 A 
ATOM     15  C   UNL     1       1.990  14.760  18.638  0.00  0.00    +0.000 A 
ATOM     16  N   UNL     1       3.191  14.134  18.482  0.00  0.00    +0.000 NA
BRANCH   7  18
ATOM     17  C   UNL     1       6.567  15.089  17.853  0.00  0.00    +0.000 C 
ATOM     18  O   UNL     1       5.449  14.207  17.810  0.00  0.00    +0.000 OA
ENDBRANCH   7  18
ENDBRANCH   1  14
BRANCH   4  19
ATOM     19  C   UNL     1       0.153   9.280  20.148  0.00  0.00    +0.000 C 
BRANCH  19  20
ATOM     20  C   UNL     1       1.119   8.573  21.129  0.00  0.00    +0.000 C 
BRANCH  20  21
ATOM     21  N   UNL     1       1.912   7.500  20.508  0.00  0.00    +0.000 NA
ATOM     22  H   UNL     1       1.392   6.623  20.559  0.00  0.00    +0.000 HD
BRANCH  21  23
ATOM     23  C   UNL     1       2.204   7.789  19.096  0.00  0.00    +0.000 C 
BRANCH  23  24
ATOM     24  C   UNL     1       2.923   6.653  18.404  0.00  0.00    +0.000 A 
ATOM     25  C   UNL     1       2.508   5.338  18.592  0.00  0.00    +0.000 A 
ATOM     26  C   UNL     1       3.188   4.322  17.928  0.00  0.00    +0.000 A 
ATOM     27  C   UNL     1       4.253   4.646  17.102  0.00  0.00    +0.000 A 
ATOM     28  C   UNL     1       4.626   5.984  17.002  0.00  0.00    +0.000 A 
ATOM     29  N   UNL     1       3.980   6.987  17.621  0.00  0.00    +0.000 NA
ATOM     30  N   UNL     1       5.767   6.327  16.291  0.00  0.00    +0.000 N 
ATOM     31  C   UNL     1       6.490   5.393  15.610  0.00  0.00    +0.000 C 
ATOM     32  O   UNL     1       7.576   5.651  15.101  0.00  0.00    +0.000 OA
ATOM     33  C   UNL     1       5.780   4.048  15.445  0.00  0.00    +0.000 C 
ATOM     34  O   UNL     1       4.919   3.616  16.493  0.00  0.00    +0.000 OA
ATOM     35  H   UNL     1       6.103   7.274  16.366  0.00  0.00    +0.000 HD
ENDBRANCH  23  24
ENDBRANCH  21  23
ENDBRANCH  20  21
ENDBRANCH  19  20
ENDBRANCH   4  19
TORSDOF 7
ENDMDL
MODEL 8
REMARK VINA RESULT:      -7.8      5.671     10.412
REMARK  Name = 
REMARK  8 active torsions:
REMARK  status: ('A' for Active; 'I' for Inactive)
REMARK    1  A    between atoms: C_1  and  O_2
REMARK    2  A    between atoms: O_2  and  C_3
REMARK    3  A    between atoms: C_10  and  N_11
REMARK    4  A    between atoms: N_14  and  C_15
REMARK    5  A    between atoms: C_15  and  C_16
REMARK    6  A    between atoms: C_16  and  N_17
REMARK    7  A    between atoms: N_17  and  C_18
REMARK    8  A    between atoms: C_18  and  C_19
REMARK                            x       y       z     vdW  Elec       q    Type
REMARK                         _______ _______ _______ _____ _____    ______ ____
ROOT
ATOM      1  N   UNL     1       2.726   7.456  18.506  0.00  0.00    +0.000 N 
ATOM      2  C   UNL     1       2.448   8.604  17.627  0.00  0.00    +0.000 C 
ATOM      3  C   UNL     1       1.032   9.168  17.880  0.00  0.00    +0.000 C 
ATOM      4  N   UNL     1       0.767   9.546  19.293  0.00  0.00    +0.000 NA
ATOM      5  C   UNL     1       0.988   8.315  20.104  0.00  0.00    +0.000 C 
ATOM      6  C   UNL     1       2.371   7.626  19.927  0.00  0.00    +0.000 C 
ENDROOT
BRANCH   1  14
ATOM      7  C   UNL     1       6.327   6.055  16.667  0.00  0.00    +0.000 A 
ATOM      8  C   UNL     1       6.453   4.753  16.248  0.00  0.00    +0.000 A 
ATOM      9  C   UNL     1       5.353   3.914  16.404  0.00  0.00    +0.000 A 
ATOM     10  C   UNL     1       4.177   4.372  16.978  0.00  0.00    +0.000 A 
ATOM     11  N   UNL     1       3.165   3.497  17.115  0.00  0.00    +0.000 NA
ATOM     12  C   UNL     1       2.042   3.943  17.695  0.00  0.00    +0.000 A 
ATOM     13  C   UNL     1       1.883   5.239  18.142  0.00  0.00    +0.000 A 
ATOM     14  C   UNL     1       2.929   6.166  17.997  0.00  0.00    +0.000 A 
ATOM     15  C   UNL     1       4.132   5.725  17.391  0.00  0.00    +0.000 A 
ATOM     16  N   UNL     1       5.198   6.553  17.203  0.00  0.00    +0.000 NA
BRANCH   7  18
ATOM     17  C   UNL     1       7.645   7.699  17.682  0.00  0.00    +0.000 C 
ATOM     18  O   UNL     1       7.442   6.860  16.549  0.00  0.00    +0.000 OA
ENDBRANCH   7  18
ENDBRANCH   1  14
BRANCH   4  19
ATOM     19  C   UNL     1       1.657  10.618  19.774  0.00  0.00    +0.000 C 
BRANCH  19  20
ATOM     20  C   UNL     1       1.022  12.025  19.878  0.00  0.00    +0.000 C 
BRANCH  20  21
ATOM     21  N   UNL     1      -0.449  12.014  19.852  0.00  0.00    +0.000 NA
ATOM     22  H   UNL     1      -0.804  12.723  20.495  0.00  0.00    +0.000 HD
BRANCH  21  23
ATOM     23  C   UNL     1      -0.970  12.299  18.507  0.00  0.00    +0.000 C 
BRANCH  23  24
ATOM     24  C   UNL     1      -2.428  11.931  18.355  0.00  0.00    +0.000 A 
ATOM     25  C   UNL     1      -2.884  11.324  17.189  0.00  0.00    +0.000 A 
ATOM     26  C   UNL     1      -4.231  10.989  17.092  0.00  0.00    +0.000 A 
ATOM     27  C   UNL     1      -5.076  11.269  18.155  0.00  0.00    +0.000 A 
ATOM     28  C   UNL     1      -4.545  11.914  19.268  0.00  0.00    +0.000 A 
ATOM     29  N   UNL     1      -3.246  12.237  19.394  0.00  0.00    +0.000 NA
ATOM     30  N   UNL     1      -5.388  12.327  20.289  0.00  0.00    +0.000 N 
ATOM     31  C   UNL     1      -6.721  12.039  20.274  0.00  0.00    +0.000 C 
ATOM     32  O   UNL     1      -7.503  12.519  21.089  0.00  0.00    +0.000 OA
ATOM     33  C   UNL     1      -7.124  10.991  19.235  0.00  0.00    +0.000 C 
ATOM     34  O   UNL     1      -6.402  10.957  18.008  0.00  0.00    +0.000 OA
ATOM     35  H   UNL     1      -5.006  12.928  21.003  0.00  0.00    +0.000 HD
ENDBRANCH  23  24
ENDBRANCH  21  23
ENDBRANCH  20  21
ENDBRANCH  19  20
ENDBRANCH   4  19
TORSDOF 7
ENDMDL
MODEL 9
REMARK VINA RESULT:      -7.7      5.044     10.593
REMARK  Name = 
REMARK  8 active torsions:
REMARK  status: ('A' for Active; 'I' for Inactive)
REMARK    1  A    between atoms: C_1  and  O_2
REMARK    2  A    between atoms: O_2  and  C_3
REMARK    3  A    between atoms: C_10  and  N_11
REMARK    4  A    between atoms: N_14  and  C_15
REMARK    5  A    between atoms: C_15  and  C_16
REMARK    6  A    between atoms: C_16  and  N_17
REMARK    7  A    between atoms: N_17  and  C_18
REMARK    8  A    between atoms: C_18  and  C_19
REMARK                            x       y       z     vdW  Elec       q    Type
REMARK                         _______ _______ _______ _____ _____    ______ ____
ROOT
ATOM      1  N   UNL     1       1.454  12.209  19.440  0.00  0.00    +0.000 N 
ATOM      2  C   UNL     1       1.040  11.580  20.705  0.00  0.00    +0.000 C 
ATOM      3  C   UNL     1      -0.053  10.514  20.466  0.00  0.00    +0.000 C 
ATOM      4  N   UNL     1       0.324   9.462  19.485  0.00  0.00    +0.000 NA
ATOM      5  C   UNL     1       0.646  10.170  18.214  0.00  0.00    +0.000 C 
ATOM      6  C   UNL     1       1.718  11.292  18.316  0.00  0.00    +0.000 C 
ENDROOT
BRANCH   1  14
ATOM      7  C   UNL     1       4.403  14.983  18.054  0.00  0.00    +0.000 A 
ATOM      8  C   UNL     1       4.077  16.288  17.773  0.00  0.00    +0.000 A 
ATOM      9  C   UNL     1       2.763  16.688  17.995  0.00  0.00    +0.000 A 
ATOM     10  C   UNL     1       1.811  15.797  18.467  0.00  0.00    +0.000 A 
ATOM     11  N   UNL     1       0.556  16.252  18.635  0.00  0.00    +0.000 NA
ATOM     12  C   UNL     1      -0.362  15.376  19.066  0.00  0.00    +0.000 A 
ATOM     13  C   UNL     1      -0.077  14.055  19.345  0.00  0.00    +0.000 A 
ATOM     14  C   UNL     1       1.231  13.568  19.181  0.00  0.00    +0.000 A 
ATOM     15  C   UNL     1       2.226  14.468  18.723  0.00  0.00    +0.000 A 
ATOM     16  N   UNL     1       3.522  14.090  18.540  0.00  0.00    +0.000 NA
BRANCH   7  18
ATOM     17  C   UNL     1       6.672  15.372  18.469  0.00  0.00    +0.000 C 
ATOM     18  O   UNL     1       5.698  14.590  17.783  0.00  0.00    +0.000 OA
ENDBRANCH   7  18
ENDBRANCH   1  14
BRANCH   4  19
ATOM     19  C   UNL     1       1.490   8.671  19.916  0.00  0.00    +0.000 C 
BRANCH  19  20
ATOM     20  C   UNL     1       1.268   7.756  21.145  0.00  0.00    +0.000 C 
BRANCH  20  21
ATOM     21  N   UNL     1       2.174   6.598  21.191  0.00  0.00    +0.000 NA
ATOM     22  H   UNL     1       2.330   6.330  22.164  0.00  0.00    +0.000 HD
BRANCH  21  23
ATOM     23  C   UNL     1       1.617   5.443  20.472  0.00  0.00    +0.000 C 
BRANCH  23  24
ATOM     24  C   UNL     1       2.502   4.978  19.338  0.00  0.00    +0.000 A 
ATOM     25  C   UNL     1       1.951   4.342  18.229  0.00  0.00    +0.000 A 
ATOM     26  C   UNL     1       2.798   3.940  17.201  0.00  0.00    +0.000 A 
ATOM     27  C   UNL     1       4.158   4.184  17.309  0.00  0.00    +0.000 A 
ATOM     28  C   UNL     1       4.629   4.790  18.470  0.00  0.00    +0.000 A 
ATOM     29  N   UNL     1       3.834   5.201  19.473  0.00  0.00    +0.000 NA
ATOM     30  N   UNL     1       5.995   4.927  18.667  0.00  0.00    +0.000 N 
ATOM     31  C   UNL     1       6.894   4.560  17.710  0.00  0.00    +0.000 C 
ATOM     32  O   UNL     1       8.103   4.536  17.922  0.00  0.00    +0.000 OA
ATOM     33  C   UNL     1       6.274   4.296  16.337  0.00  0.00    +0.000 C 
ATOM     34  O   UNL     1       4.964   3.741  16.293  0.00  0.00    +0.000 OA
ATOM     35  H   UNL     1       6.314   5.221  19.578  0.00  0.00    +0.000 HD
ENDBRANCH  23  24
ENDBRANCH  21  23
ENDBRANCH  20  21
ENDBRANCH  19  20
ENDBRANCH   4  19
TORSDOF 7
ENDMDL
