MODEL 1
REMARK VINA RESULT:      -8.4      0.000      0.000
REMARK  Name = 
REMARK  4 active torsions:
REMARK  status: ('A' for Active; 'I' for Inactive)
REMARK    1  A    between atoms: N_6  and  C_7
REMARK    2  A    between atoms: N_6  and  C_13
REMARK    3  A    between atoms: C_7  and  C_8
REMARK    4  A    between atoms: C_16  and  O_17
REMARK                            x       y       z     vdW  Elec       q    Type
REMARK                         _______ _______ _______ _____ _____    ______ ____
ROOT
ATOM      1  O   UNL     1       2.559   1.935  19.864  0.00  0.00    +0.000 OA
ATOM      2  S   UNL     1       2.180   2.754  18.734  0.00  0.00    +0.000 S 
ATOM      3  O   UNL     1       0.953   2.563  17.999  0.00  0.00    +0.000 OA
ATOM      4  N   UNL     1       3.441   2.885  17.694  0.00  0.00    +0.000 NA
ATOM      5  C   UNL     1       3.932   4.099  17.662  0.00  0.00    +0.000 C 
ATOM      6  N   UNL     1       5.090   4.418  16.941  0.00  0.00    +0.000 N 
ATOM      7  C   UNL     1       3.146   5.085  18.486  0.00  0.00    +0.000 A 
ATOM      8  C   UNL     1       3.230   6.461  18.597  0.00  0.00    +0.000 A 
ATOM      9  C   UNL     1       2.485   7.097  19.603  0.00  0.00    +0.000 A 
ATOM     10  C   UNL     1       1.643   6.362  20.456  0.00  0.00    +0.000 A 
ATOM     11  C   UNL     1       1.480   4.991  20.269  0.00  0.00    +0.000 A 
ATOM     12  C   UNL     1       2.223   4.406  19.259  0.00  0.00    +0.000 A 
ENDROOT
BRANCH   6  13
ATOM     13  C   UNL     1       6.081   5.344  17.384  0.00  0.00    +0.000 A 
ATOM     14  C   UNL     1       7.053   4.993  18.343  0.00  0.00    +0.000 A 
ATOM     15  C   UNL     1       7.948   5.930  18.876  0.00  0.00    +0.000 A 
ATOM     16  C   UNL     1       7.937   7.230  18.397  0.00  0.00    +0.000 A 
ATOM     17  C   UNL     1       7.047   7.600  17.402  0.00  0.00    +0.000 A 
ATOM     18  C   UNL     1       6.118   6.672  16.916  0.00  0.00    +0.000 A 
BRANCH  16  19
ATOM     19  O   UNL     1       8.787   8.178  18.880  0.00  0.00    +0.000 OA
ATOM     20  H   UNL     1       9.527   7.737  19.326  0.00  0.00    +0.000 HD
ENDBRANCH  16  19
ENDBRANCH   6  13
BRANCH   6  21
ATOM     21  C   UNL     1       5.569   3.446  15.912  0.00  0.00    +0.000 C 
BRANCH  21  22
ATOM     22  C   UNL     1       6.267   4.012  14.693  0.00  0.00    +0.000 A 
ATOM     23  C   UNL     1       7.367   4.850  14.641  0.00  0.00    +0.000 A 
ATOM     24  C   UNL     1       7.733   5.195  13.308  0.00  0.00    +0.000 A 
ATOM     25  C   UNL     1       6.936   4.569  12.377  0.00  0.00    +0.000 A 
ATOM     26  S   UNL     1       5.753   3.577  13.113  0.00  0.00    +0.000 S 
ENDBRANCH  21  22
ENDBRANCH   6  21
TORSDOF 4
ENDMDL
MODEL 2
REMARK VINA RESULT:      -8.2      3.547      5.451
REMARK  Name = 
REMARK  4 active torsions:
REMARK  status: ('A' for Active; 'I' for Inactive)
REMARK    1  A    between atoms: N_6  and  C_7
REMARK    2  A    between atoms: N_6  and  C_13
REMARK    3  A    between atoms: C_7  and  C_8
REMARK    4  A    between atoms: C_16  and  O_17
REMARK                            x       y       z     vdW  Elec       q    Type
REMARK                         _______ _______ _______ _____ _____    ______ ____
ROOT
ATOM      1  O   UNL     1      -0.087  10.213  17.408  0.00  0.00    +0.000 OA
ATOM      2  S   UNL     1       1.115  10.223  18.211  0.00  0.00    +0.000 S 
ATOM      3  O   UNL     1       1.803  11.436  18.583  0.00  0.00    +0.000 OA
ATOM      4  N   UNL     1       2.186   9.129  17.624  0.00  0.00    +0.000 NA
ATOM      5  C   UNL     1       2.354   8.116  18.438  0.00  0.00    +0.000 C 
ATOM      6  N   UNL     1       3.126   7.000  18.092  0.00  0.00    +0.000 N 
ATOM      7  C   UNL     1       1.624   8.271  19.746  0.00  0.00    +0.000 A 
ATOM      8  C   UNL     1       1.660   7.525  20.911  0.00  0.00    +0.000 A 
ATOM      9  C   UNL     1       0.712   7.801  21.909  0.00  0.00    +0.000 A 
ATOM     10  C   UNL     1      -0.229   8.834  21.752  0.00  0.00    +0.000 A 
ATOM     11  C   UNL     1      -0.190   9.651  20.624  0.00  0.00    +0.000 A 
ATOM     12  C   UNL     1       0.767   9.352  19.669  0.00  0.00    +0.000 A 
ENDROOT
BRANCH   6  13
ATOM     13  C   UNL     1       2.801   5.657  18.450  0.00  0.00    +0.000 A 
ATOM     14  C   UNL     1       3.518   4.955  19.440  0.00  0.00    +0.000 A 
ATOM     15  C   UNL     1       3.289   3.599  19.707  0.00  0.00    +0.000 A 
ATOM     16  C   UNL     1       2.276   2.935  19.034  0.00  0.00    +0.000 A 
ATOM     17  C   UNL     1       1.499   3.606  18.105  0.00  0.00    +0.000 A 
ATOM     18  C   UNL     1       1.772   4.946  17.803  0.00  0.00    +0.000 A 
BRANCH  16  19
ATOM     19  O   UNL     1       2.012   1.618  19.258  0.00  0.00    +0.000 OA
ATOM     20  H   UNL     1       2.655   1.274  19.898  0.00  0.00    +0.000 HD
ENDBRANCH  16  19
ENDBRANCH   6  13
BRANCH   6  21
ATOM     21  C   UNL     1       4.056   7.120  16.928  0.00  0.00    +0.000 C 
BRANCH  21  22
ATOM     22  C   UNL     1       5.140   6.071  16.793  0.00  0.00    +0.000 A 
ATOM     23  C   UNL     1       5.153   4.943  15.991  0.00  0.00    +0.000 A 
ATOM     24  C   UNL     1       6.341   4.173  16.145  0.00  0.00    +0.000 A 
ATOM     25  C   UNL     1       7.224   4.759  17.022  0.00  0.00    +0.000 A 
ATOM     26  S   UNL     1       6.618   6.228  17.654  0.00  0.00    +0.000 S 
ENDBRANCH  21  22
ENDBRANCH   6  21
TORSDOF 4
ENDMDL
MODEL 3
REMARK VINA RESULT:      -8.1      3.400      5.883
REMARK  Name = 
REMARK  4 active torsions:
REMARK  status: ('A' for Active; 'I' for Inactive)
REMARK    1  A    between atoms: N_6  and  C_7
REMARK    2  A    between atoms: N_6  and  C_13
REMARK    3  A    between atoms: C_7  and  C_8
REMARK    4  A    between atoms: C_16  and  O_17
REMARK                            x       y       z     vdW  Elec       q    Type
REMARK                         _______ _______ _______ _____ _____    ______ ____
ROOT
ATOM      1  O   UNL     1       0.093   9.546  17.254  0.00  0.00    +0.000 OA
ATOM      2  S   UNL     1       1.342   9.632  17.975  0.00  0.00    +0.000 S 
ATOM      3  O   UNL     1       2.215  10.780  17.905  0.00  0.00    +0.000 OA
ATOM      4  N   UNL     1       2.208   8.257  17.754  0.00  0.00    +0.000 NA
ATOM      5  C   UNL     1       2.299   7.548  18.852  0.00  0.00    +0.000 C 
ATOM      6  N   UNL     1       2.884   6.276  18.874  0.00  0.00    +0.000 N 
ATOM      7  C   UNL     1       1.699   8.227  20.055  0.00  0.00    +0.000 A 
ATOM      8  C   UNL     1       1.722   7.901  21.399  0.00  0.00    +0.000 A 
ATOM      9  C   UNL     1       0.898   8.627  22.276  0.00  0.00    +0.000 A 
ATOM     10  C   UNL     1       0.097   9.684  21.812  0.00  0.00    +0.000 A 
ATOM     11  C   UNL     1       0.160  10.077  20.476  0.00  0.00    +0.000 A 
ATOM     12  C   UNL     1       0.992   9.343  19.648  0.00  0.00    +0.000 A 
ENDROOT
BRANCH   6  13
ATOM     13  C   UNL     1       2.409   5.187  19.664  0.00  0.00    +0.000 A 
ATOM     14  C   UNL     1       1.285   4.426  19.286  0.00  0.00    +0.000 A 
ATOM     15  C   UNL     1       0.736   3.441  20.116  0.00  0.00    +0.000 A 
ATOM     16  C   UNL     1       1.356   3.144  21.319  0.00  0.00    +0.000 A 
ATOM     17  C   UNL     1       2.505   3.817  21.698  0.00  0.00    +0.000 A 
ATOM     18  C   UNL     1       3.014   4.840  20.888  0.00  0.00    +0.000 A 
BRANCH  16  19
ATOM     19  O   UNL     1       0.864   2.193  22.162  0.00  0.00    +0.000 OA
ATOM     20  H   UNL     1      -0.032   1.955  21.877  0.00  0.00    +0.000 HD
ENDBRANCH  16  19
ENDBRANCH   6  13
BRANCH   6  21
ATOM     21  C   UNL     1       3.731   5.871  17.711  0.00  0.00    +0.000 C 
BRANCH  21  22
ATOM     22  C   UNL     1       5.220   6.125  17.812  0.00  0.00    +0.000 A 
ATOM     23  C   UNL     1       5.988   7.043  17.116  0.00  0.00    +0.000 A 
ATOM     24  C   UNL     1       7.368   6.981  17.462  0.00  0.00    +0.000 A 
ATOM     25  C   UNL     1       7.610   6.053  18.449  0.00  0.00    +0.000 A 
ATOM     26  S   UNL     1       6.178   5.264  18.949  0.00  0.00    +0.000 S 
ENDBRANCH  21  22
ENDBRANCH   6  21
TORSDOF 4
ENDMDL
MODEL 4
REMARK VINA RESULT:      -7.8      3.563      5.229
REMARK  Name = 
REMARK  4 active torsions:
REMARK  status: ('A' for Active; 'I' for Inactive)
REMARK    1  A    between atoms: N_6  and  C_7
REMARK    2  A    between atoms: N_6  and  C_13
REMARK    3  A    between atoms: C_7  and  C_8
REMARK    4  A    between atoms: C_16  and  O_17
REMARK                            x       y       z     vdW  Elec       q    Type
REMARK                         _______ _______ _______ _____ _____    ______ ____
ROOT
ATOM      1  O   UNL     1       1.578   9.228  22.675  0.00  0.00    +0.000 OA
ATOM      2  S   UNL     1       0.809   8.623  21.610  0.00  0.00    +0.000 S 
ATOM      3  O   UNL     1      -0.631   8.527  21.635  0.00  0.00    +0.000 OA
ATOM      4  N   UNL     1       1.461   7.174  21.207  0.00  0.00    +0.000 NA
ATOM      5  C   UNL     1       2.002   7.189  20.014  0.00  0.00    +0.000 C 
ATOM      6  N   UNL     1       2.728   6.103  19.508  0.00  0.00    +0.000 N 
ATOM      7  C   UNL     1       1.784   8.482  19.274  0.00  0.00    +0.000 A 
ATOM      8  C   UNL     1       2.048   8.847  17.966  0.00  0.00    +0.000 A 
ATOM      9  C   UNL     1       1.913  10.199  17.609  0.00  0.00    +0.000 A 
ATOM     10  C   UNL     1       1.486  11.157  18.544  0.00  0.00    +0.000 A 
ATOM     11  C   UNL     1       1.118  10.765  19.830  0.00  0.00    +0.000 A 
ATOM     12  C   UNL     1       1.254   9.423  20.137  0.00  0.00    +0.000 A 
ENDROOT
BRANCH   6  13
ATOM     13  C   UNL     1       3.900   6.225  18.704  0.00  0.00    +0.000 A 
ATOM     14  C   UNL     1       3.834   6.569  17.338  0.00  0.00    +0.000 A 
ATOM     15  C   UNL     1       4.965   6.566  16.512  0.00  0.00    +0.000 A 
ATOM     16  C   UNL     1       6.207   6.291  17.062  0.00  0.00    +0.000 A 
ATOM     17  C   UNL     1       6.328   6.019  18.414  0.00  0.00    +0.000 A 
ATOM     18  C   UNL     1       5.184   5.968  19.221  0.00  0.00    +0.000 A 
BRANCH  16  19
ATOM     19  O   UNL     1       7.338   6.277  16.303  0.00  0.00    +0.000 OA
ATOM     20  H   UNL     1       7.099   6.058  15.389  0.00  0.00    +0.000 HD
ENDBRANCH  16  19
ENDBRANCH   6  13
BRANCH   6  21
ATOM     21  C   UNL     1       2.583   4.781  20.190  0.00  0.00    +0.000 C 
BRANCH  21  22
ATOM     22  C   UNL     1       2.768   3.538  19.345  0.00  0.00    +0.000 A 
ATOM     23  C   UNL     1       2.079   3.159  18.206  0.00  0.00    +0.000 A 
ATOM     24  C   UNL     1       2.517   1.906  17.690  0.00  0.00    +0.000 A 
ATOM     25  C   UNL     1       3.562   1.386  18.418  0.00  0.00    +0.000 A 
ATOM     26  S   UNL     1       4.006   2.406  19.717  0.00  0.00    +0.000 S 
ENDBRANCH  21  22
ENDBRANCH   6  21
TORSDOF 4
ENDMDL
MODEL 5
REMARK VINA RESULT:      -7.8      2.523      6.935
REMARK  Name = 
REMARK  4 active torsions:
REMARK  status: ('A' for Active; 'I' for Inactive)
REMARK    1  A    between atoms: N_6  and  C_7
REMARK    2  A    between atoms: N_6  and  C_13
REMARK    3  A    between atoms: C_7  and  C_8
REMARK    4  A    between atoms: C_16  and  O_17
REMARK                            x       y       z     vdW  Elec       q    Type
REMARK                         _______ _______ _______ _____ _____    ______ ____
ROOT
ATOM      1  O   UNL     1       8.185   6.104  18.487  0.00  0.00    +0.000 OA
ATOM      2  S   UNL     1       7.205   6.763  17.654  0.00  0.00    +0.000 S 
ATOM      3  O   UNL     1       7.465   8.003  16.961  0.00  0.00    +0.000 OA
ATOM      4  N   UNL     1       5.772   6.855  18.446  0.00  0.00    +0.000 NA
ATOM      5  C   UNL     1       4.857   6.091  17.904  0.00  0.00    +0.000 C 
ATOM      6  N   UNL     1       3.594   5.911  18.482  0.00  0.00    +0.000 N 
ATOM      7  C   UNL     1       5.310   5.423  16.632  0.00  0.00    +0.000 A 
ATOM      8  C   UNL     1       4.622   4.681  15.690  0.00  0.00    +0.000 A 
ATOM      9  C   UNL     1       5.359   4.014  14.696  0.00  0.00    +0.000 A 
ATOM     10  C   UNL     1       6.759   4.126  14.634  0.00  0.00    +0.000 A 
ATOM     11  C   UNL     1       7.435   4.962  15.520  0.00  0.00    +0.000 A 
ATOM     12  C   UNL     1       6.671   5.609  16.475  0.00  0.00    +0.000 A 
ENDROOT
BRANCH   6  13
ATOM     13  C   UNL     1       2.880   4.676  18.485  0.00  0.00    +0.000 A 
ATOM     14  C   UNL     1       1.616   4.544  17.877  0.00  0.00    +0.000 A 
ATOM     15  C   UNL     1       0.853   3.374  17.985  0.00  0.00    +0.000 A 
ATOM     16  C   UNL     1       1.382   2.276  18.645  0.00  0.00    +0.000 A 
ATOM     17  C   UNL     1       2.652   2.338  19.195  0.00  0.00    +0.000 A 
ATOM     18  C   UNL     1       3.383   3.530  19.132  0.00  0.00    +0.000 A 
BRANCH  16  19
ATOM     19  O   UNL     1       0.684   1.114  18.776  0.00  0.00    +0.000 OA
ATOM     20  H   UNL     1       1.312   0.381  18.870  0.00  0.00    +0.000 HD
ENDBRANCH  16  19
ENDBRANCH   6  13
BRANCH   6  21
ATOM     21  C   UNL     1       3.160   6.877  19.537  0.00  0.00    +0.000 C 
BRANCH  21  22
ATOM     22  C   UNL     1       2.222   7.990  19.117  0.00  0.00    +0.000 A 
ATOM     23  C   UNL     1       1.966   8.467  17.843  0.00  0.00    +0.000 A 
ATOM     24  C   UNL     1       1.035   9.545  17.837  0.00  0.00    +0.000 A 
ATOM     25  C   UNL     1       0.568   9.829  19.099  0.00  0.00    +0.000 A 
ATOM     26  S   UNL     1       1.253   8.800  20.281  0.00  0.00    +0.000 S 
ENDBRANCH  21  22
ENDBRANCH   6  21
TORSDOF 4
ENDMDL
MODEL 6
REMARK VINA RESULT:      -7.7      0.379      1.028
REMARK  Name = 
REMARK  4 active torsions:
REMARK  status: ('A' for Active; 'I' for Inactive)
REMARK    1  A    between atoms: N_6  and  C_7
REMARK    2  A    between atoms: N_6  and  C_13
REMARK    3  A    between atoms: C_7  and  C_8
REMARK    4  A    between atoms: C_16  and  O_17
REMARK                            x       y       z     vdW  Elec       q    Type
REMARK                         _______ _______ _______ _____ _____    ______ ____
ROOT
ATOM      1  O   UNL     1       2.833   2.045  20.371  0.00  0.00    +0.000 OA
ATOM      2  S   UNL     1       2.377   2.729  19.182  0.00  0.00    +0.000 S 
ATOM      3  O   UNL     1       1.177   2.358  18.471  0.00  0.00    +0.000 OA
ATOM      4  N   UNL     1       3.622   2.901  18.128  0.00  0.00    +0.000 NA
ATOM      5  C   UNL     1       3.989   4.151  17.995  0.00  0.00    +0.000 C 
ATOM      6  N   UNL     1       5.111   4.525  17.245  0.00  0.00    +0.000 N 
ATOM      7  C   UNL     1       3.106   5.117  18.741  0.00  0.00    +0.000 A 
ATOM      8  C   UNL     1       3.053   6.499  18.741  0.00  0.00    +0.000 A 
ATOM      9  C   UNL     1       2.245   7.136  19.697  0.00  0.00    +0.000 A 
ATOM     10  C   UNL     1       1.478   6.393  20.611  0.00  0.00    +0.000 A 
ATOM     11  C   UNL     1       1.453   5.001  20.535  0.00  0.00    +0.000 A 
ATOM     12  C   UNL     1       2.254   4.414  19.572  0.00  0.00    +0.000 A 
ENDROOT
BRANCH   6  13
ATOM     13  C   UNL     1       6.004   5.578  17.606  0.00  0.00    +0.000 A 
ATOM     14  C   UNL     1       5.928   6.855  17.017  0.00  0.00    +0.000 A 
ATOM     15  C   UNL     1       6.878   7.853  17.271  0.00  0.00    +0.000 A 
ATOM     16  C   UNL     1       7.887   7.612  18.189  0.00  0.00    +0.000 A 
ATOM     17  C   UNL     1       7.958   6.395  18.846  0.00  0.00    +0.000 A 
ATOM     18  C   UNL     1       7.038   5.384  18.543  0.00  0.00    +0.000 A 
BRANCH  16  19
ATOM     19  O   UNL     1       8.835   8.548  18.474  0.00  0.00    +0.000 OA
ATOM     20  H   UNL     1       9.257   8.827  17.646  0.00  0.00    +0.000 HD
ENDBRANCH  16  19
ENDBRANCH   6  13
BRANCH   6  21
ATOM     21  C   UNL     1       5.687   3.526  16.295  0.00  0.00    +0.000 C 
BRANCH  21  22
ATOM     22  C   UNL     1       6.293   4.055  15.011  0.00  0.00    +0.000 A 
ATOM     23  C   UNL     1       7.428   4.829  14.848  0.00  0.00    +0.000 A 
ATOM     24  C   UNL     1       7.679   5.157  13.486  0.00  0.00    +0.000 A 
ATOM     25  C   UNL     1       6.758   4.584  12.640  0.00  0.00    +0.000 A 
ATOM     26  S   UNL     1       5.599   3.658  13.491  0.00  0.00    +0.000 S 
ENDBRANCH  21  22
ENDBRANCH   6  21
TORSDOF 4
ENDMDL
MODEL 7
REMARK VINA RESULT:      -7.7      1.170      1.357
REMARK  Name = 
REMARK  4 active torsions:
REMARK  status: ('A' for Active; 'I' for Inactive)
REMARK    1  A    between atoms: N_6  and  C_7
REMARK    2  A    between atoms: N_6  and  C_13
REMARK    3  A    between atoms: C_7  and  C_8
REMARK    4  A    between atoms: C_16  and  O_17
REMARK                            x       y       z     vdW  Elec       q    Type
REMARK                         _______ _______ _______ _____ _____    ______ ____
ROOT
ATOM      1  O   UNL     1       3.252   2.372  19.160  0.00  0.00    +0.000 OA
ATOM      2  S   UNL     1       3.062   3.111  17.932  0.00  0.00    +0.000 S 
ATOM      3  O   UNL     1       2.043   2.783  16.964  0.00  0.00    +0.000 OA
ATOM      4  N   UNL     1       4.504   3.319  17.179  0.00  0.00    +0.000 NA
ATOM      5  C   UNL     1       4.890   4.571  17.186  0.00  0.00    +0.000 C 
ATOM      6  N   UNL     1       6.146   4.968  16.712  0.00  0.00    +0.000 N 
ATOM      7  C   UNL     1       3.866   5.510  17.767  0.00  0.00    +0.000 A 
ATOM      8  C   UNL     1       3.812   6.892  17.817  0.00  0.00    +0.000 A 
ATOM      9  C   UNL     1       2.817   7.493  18.605  0.00  0.00    +0.000 A 
ATOM     10  C   UNL     1       1.872   6.716  19.298  0.00  0.00    +0.000 A 
ATOM     11  C   UNL     1       1.866   5.330  19.157  0.00  0.00    +0.000 A 
ATOM     12  C   UNL     1       2.856   4.778  18.363  0.00  0.00    +0.000 A 
ENDROOT
BRANCH   6  13
ATOM     13  C   UNL     1       6.940   5.996  17.304  0.00  0.00    +0.000 A 
ATOM     14  C   UNL     1       7.667   5.784  18.493  0.00  0.00    +0.000 A 
ATOM     15  C   UNL     1       8.344   6.821  19.148  0.00  0.00    +0.000 A 
ATOM     16  C   UNL     1       8.369   8.083  18.578  0.00  0.00    +0.000 A 
ATOM     17  C   UNL     1       7.729   8.318  17.373  0.00  0.00    +0.000 A 
ATOM     18  C   UNL     1       7.007   7.291  16.754  0.00  0.00    +0.000 A 
BRANCH  16  19
ATOM     19  O   UNL     1       9.014   9.125  19.173  0.00  0.00    +0.000 OA
ATOM     20  H   UNL     1       8.413   9.543  19.809  0.00  0.00    +0.000 HD
ENDBRANCH  16  19
ENDBRANCH   6  13
BRANCH   6  21
ATOM     21  C   UNL     1       6.915   4.007  15.864  0.00  0.00    +0.000 C 
BRANCH  21  22
ATOM     22  C   UNL     1       6.698   4.073  14.366  0.00  0.00    +0.000 A 
ATOM     23  C   UNL     1       5.660   3.541  13.621  0.00  0.00    +0.000 A 
ATOM     24  C   UNL     1       5.803   3.785  12.225  0.00  0.00    +0.000 A 
ATOM     25  C   UNL     1       6.919   4.540  11.947  0.00  0.00    +0.000 A 
ATOM     26  S   UNL     1       7.786   4.946  13.364  0.00  0.00    +0.000 S 
ENDBRANCH  21  22
ENDBRANCH   6  21
TORSDOF 4
ENDMDL
MODEL 8
REMARK VINA RESULT:      -7.6      1.041      1.559
REMARK  Name = 
REMARK  4 active torsions:
REMARK  status: ('A' for Active; 'I' for Inactive)
REMARK    1  A    between atoms: N_6  and  C_7
REMARK    2  A    between atoms: N_6  and  C_13
REMARK    3  A    between atoms: C_7  and  C_8
REMARK    4  A    between atoms: C_16  and  O_17
REMARK                            x       y       z     vdW  Elec       q    Type
REMARK                         _______ _______ _______ _____ _____    ______ ____
ROOT
ATOM      1  O   UNL     1       3.630   1.793  19.477  0.00  0.00    +0.000 OA
ATOM      2  S   UNL     1       3.253   2.560  18.311  0.00  0.00    +0.000 S 
ATOM      3  O   UNL     1       2.193   2.162  17.415  0.00  0.00    +0.000 OA
ATOM      4  N   UNL     1       4.591   2.962  17.453  0.00  0.00    +0.000 NA
ATOM      5  C   UNL     1       4.837   4.248  17.495  0.00  0.00    +0.000 C 
ATOM      6  N   UNL     1       5.996   4.805  16.940  0.00  0.00    +0.000 N 
ATOM      7  C   UNL     1       3.774   5.039  18.209  0.00  0.00    +0.000 A 
ATOM      8  C   UNL     1       3.575   6.402  18.338  0.00  0.00    +0.000 A 
ATOM      9  C   UNL     1       2.594   6.852  19.238  0.00  0.00    +0.000 A 
ATOM     10  C   UNL     1       1.804   5.943  19.964  0.00  0.00    +0.000 A 
ATOM     11  C   UNL     1       1.936   4.573  19.749  0.00  0.00    +0.000 A 
ATOM     12  C   UNL     1       2.905   4.173  18.847  0.00  0.00    +0.000 A 
ENDROOT
BRANCH   6  13
ATOM     13  C   UNL     1       6.723   5.889  17.518  0.00  0.00    +0.000 A 
ATOM     14  C   UNL     1       6.714   7.179  16.952  0.00  0.00    +0.000 A 
ATOM     15  C   UNL     1       7.523   8.214  17.438  0.00  0.00    +0.000 A 
ATOM     16  C   UNL     1       8.306   7.994  18.560  0.00  0.00    +0.000 A 
ATOM     17  C   UNL     1       8.290   6.763  19.192  0.00  0.00    +0.000 A 
ATOM     18  C   UNL     1       7.522   5.717  18.665  0.00  0.00    +0.000 A 
BRANCH  16  19
ATOM     19  O   UNL     1       9.109   8.967  19.074  0.00  0.00    +0.000 OA
ATOM     20  H   UNL     1       9.732   9.253  18.388  0.00  0.00    +0.000 HD
ENDBRANCH  16  19
ENDBRANCH   6  13
BRANCH   6  21
ATOM     21  C   UNL     1       6.786   3.975  15.980  0.00  0.00    +0.000 C 
BRANCH  21  22
ATOM     22  C   UNL     1       6.368   4.007  14.525  0.00  0.00    +0.000 A 
ATOM     23  C   UNL     1       5.134   3.705  13.976  0.00  0.00    +0.000 A 
ATOM     24  C   UNL     1       5.119   3.827  12.557  0.00  0.00    +0.000 A 
ATOM     25  C   UNL     1       6.326   4.268  12.065  0.00  0.00    +0.000 A 
ATOM     26  S   UNL     1       7.467   4.529  13.312  0.00  0.00    +0.000 S 
ENDBRANCH  21  22
ENDBRANCH   6  21
TORSDOF 4
ENDMDL
MODEL 9
REMARK VINA RESULT:      -7.3      3.518      5.086
REMARK  Name = 
REMARK  4 active torsions:
REMARK  status: ('A' for Active; 'I' for Inactive)
REMARK    1  A    between atoms: N_6  and  C_7
REMARK    2  A    between atoms: N_6  and  C_13
REMARK    3  A    between atoms: C_7  and  C_8
REMARK    4  A    between atoms: C_16  and  O_17
REMARK                            x       y       z     vdW  Elec       q    Type
REMARK                         _______ _______ _______ _____ _____    ______ ____
ROOT
ATOM      1  O   UNL     1       1.668   9.167  22.619  0.00  0.00    +0.000 OA
ATOM      2  S   UNL     1       0.876   8.540  21.585  0.00  0.00    +0.000 S 
ATOM      3  O   UNL     1      -0.566   8.487  21.621  0.00  0.00    +0.000 OA
ATOM      4  N   UNL     1       1.482   7.055  21.243  0.00  0.00    +0.000 NA
ATOM      5  C   UNL     1       2.016   7.003  20.048  0.00  0.00    +0.000 C 
ATOM      6  N   UNL     1       2.706   5.875  19.586  0.00  0.00    +0.000 N 
ATOM      7  C   UNL     1       1.831   8.269  19.252  0.00  0.00    +0.000 A 
ATOM      8  C   UNL     1       2.098   8.568  17.928  0.00  0.00    +0.000 A 
ATOM      9  C   UNL     1       2.001   9.907  17.514  0.00  0.00    +0.000 A 
ATOM     10  C   UNL     1       1.607  10.917  18.409  0.00  0.00    +0.000 A 
ATOM     11  C   UNL     1       1.236  10.593  19.712  0.00  0.00    +0.000 A 
ATOM     12  C   UNL     1       1.335   9.261  20.077  0.00  0.00    +0.000 A 
ENDROOT
BRANCH   6  13
ATOM     13  C   UNL     1       3.877   5.928  18.771  0.00  0.00    +0.000 A 
ATOM     14  C   UNL     1       5.172   5.857  19.321  0.00  0.00    +0.000 A 
ATOM     15  C   UNL     1       6.324   6.035  18.544  0.00  0.00    +0.000 A 
ATOM     16  C   UNL     1       6.201   6.213  17.176  0.00  0.00    +0.000 A 
ATOM     17  C   UNL     1       4.949   6.216  16.583  0.00  0.00    +0.000 A 
ATOM     18  C   UNL     1       3.801   6.095  17.374  0.00  0.00    +0.000 A 
BRANCH  16  19
ATOM     19  O   UNL     1       7.288   6.388  16.376  0.00  0.00    +0.000 OA
ATOM     20  H   UNL     1       7.353   5.636  15.766  0.00  0.00    +0.000 HD
ENDBRANCH  16  19
ENDBRANCH   6  13
BRANCH   6  21
ATOM     21  C   UNL     1       2.527   4.589  20.325  0.00  0.00    +0.000 C 
BRANCH  21  22
ATOM     22  C   UNL     1       3.020   3.325  19.652  0.00  0.00    +0.000 A 
ATOM     23  C   UNL     1       4.063   2.497  20.029  0.00  0.00    +0.000 A 
ATOM     24  C   UNL     1       4.250   1.405  19.134  0.00  0.00    +0.000 A 
ATOM     25  C   UNL     1       3.313   1.399  18.126  0.00  0.00    +0.000 A 
ATOM     26  S   UNL     1       2.219   2.707  18.263  0.00  0.00    +0.000 S 
ENDBRANCH  21  22
ENDBRANCH   6  21
TORSDOF 4
ENDMDL
