MODEL 1
REMARK VINA RESULT:      -7.3      0.000      0.000
REMARK  Name = 
REMARK  2 active torsions:
REMARK  status: ('A' for Active; 'I' for Inactive)
REMARK    1  A    between atoms: C_1  and  C_2
REMARK    2  A    between atoms: N_11  and  C_12
REMARK                            x       y       z     vdW  Elec       q    Type
REMARK                         _______ _______ _______ _____ _____    ______ ____
ROOT
ATOM      1  C   UNL     1       1.442   4.053  17.077  0.00  0.00    +0.000 C 
ATOM      2  C   UNL     1       2.329   3.781  18.255  0.00  0.00    +0.000 A 
ATOM      3  C   UNL     1       1.833   3.319  19.447  0.00  0.00    +0.000 A 
ATOM      4  C   UNL     1       2.767   3.150  20.440  0.00  0.00    +0.000 A 
ATOM      5 CL   UNL     1       2.302   2.543  21.978  0.00  0.00    +0.000 Cl
ATOM      6  N   UNL     1       4.079   3.404  20.324  0.00  0.00    +0.000 NA
ATOM      7  C   UNL     1       4.470   3.809  19.117  0.00  0.00    +0.000 A 
ATOM      8  N   UNL     1       5.828   4.002  18.949  0.00  0.00    +0.000 N 
ATOM      9  C   UNL     1       6.535   4.188  17.795  0.00  0.00    +0.000 C 
ATOM     10  O   UNL     1       7.754   4.329  17.880  0.00  0.00    +0.000 OA
ATOM     11  N   UNL     1       5.803   4.195  16.633  0.00  0.00    +0.000 N 
ATOM     12  N   UNL     1       3.641   4.016  18.077  0.00  0.00    +0.000 NA
ATOM     13  H   UNL     1       6.381   3.923  19.787  0.00  0.00    +0.000 HD
ATOM     14  H   UNL     1       4.799   4.268  16.770  0.00  0.00    +0.000 HD
ENDROOT
BRANCH  11  15
ATOM     15  C   UNL     1       6.282   4.299  15.320  0.00  0.00    +0.000 A 
ATOM     16  C   UNL     1       7.350   5.122  14.960  0.00  0.00    +0.000 A 
ATOM     17  C   UNL     1       7.724   5.251  13.622  0.00  0.00    +0.000 A 
ATOM     18  C   UNL     1       7.035   4.549  12.636  0.00  0.00    +0.000 A 
ATOM     19  C   UNL     1       6.004   3.689  12.998  0.00  0.00    +0.000 A 
ATOM     20 CL   UNL     1       5.149   2.817  11.783  0.00  0.00    +0.000 Cl
ATOM     21  C   UNL     1       5.636   3.544  14.337  0.00  0.00    +0.000 A 
ENDBRANCH  11  15
TORSDOF 1
ENDMDL
MODEL 2
REMARK VINA RESULT:      -7.3      1.956      6.653
REMARK  Name = 
REMARK  2 active torsions:
REMARK  status: ('A' for Active; 'I' for Inactive)
REMARK    1  A    between atoms: C_1  and  C_2
REMARK    2  A    between atoms: N_11  and  C_12
REMARK                            x       y       z     vdW  Elec       q    Type
REMARK                         _______ _______ _______ _____ _____    ______ ____
ROOT
ATOM      1  C   UNL     1       4.817   3.108  12.784  0.00  0.00    +0.000 C 
ATOM      2  C   UNL     1       5.941   3.939  13.326  0.00  0.00    +0.000 A 
ATOM      3  C   UNL     1       6.794   4.632  12.506  0.00  0.00    +0.000 A 
ATOM      4  C   UNL     1       7.793   5.318  13.153  0.00  0.00    +0.000 A 
ATOM      5 CL   UNL     1       8.918   6.262  12.261  0.00  0.00    +0.000 Cl
ATOM      6  N   UNL     1       7.983   5.347  14.480  0.00  0.00    +0.000 NA
ATOM      7  C   UNL     1       7.080   4.678  15.193  0.00  0.00    +0.000 A 
ATOM      8  N   UNL     1       7.207   4.757  16.567  0.00  0.00    +0.000 N 
ATOM      9  C   UNL     1       6.323   4.378  17.537  0.00  0.00    +0.000 C 
ATOM     10  O   UNL     1       6.643   4.555  18.712  0.00  0.00    +0.000 OA
ATOM     11  N   UNL     1       5.141   3.833  17.098  0.00  0.00    +0.000 N 
ATOM     12  N   UNL     1       6.068   3.965  14.665  0.00  0.00    +0.000 NA
ATOM     13  H   UNL     1       8.036   5.225  16.896  0.00  0.00    +0.000 HD
ATOM     14  H   UNL     1       5.137   3.579  16.113  0.00  0.00    +0.000 HD
ENDROOT
BRANCH  11  15
ATOM     15  C   UNL     1       4.046   3.426  17.871  0.00  0.00    +0.000 A 
ATOM     16  C   UNL     1       3.497   2.144  17.802  0.00  0.00    +0.000 A 
ATOM     17  C   UNL     1       2.352   1.825  18.532  0.00  0.00    +0.000 A 
ATOM     18  C   UNL     1       1.753   2.787  19.343  0.00  0.00    +0.000 A 
ATOM     19  C   UNL     1       2.328   4.048  19.453  0.00  0.00    +0.000 A 
ATOM     20 CL   UNL     1       1.593   5.240  20.456  0.00  0.00    +0.000 Cl
ATOM     21  C   UNL     1       3.483   4.367  18.737  0.00  0.00    +0.000 A 
ENDBRANCH  11  15
TORSDOF 1
ENDMDL
MODEL 3
REMARK VINA RESULT:      -7.0      1.243      1.663
REMARK  Name = 
REMARK  2 active torsions:
REMARK  status: ('A' for Active; 'I' for Inactive)
REMARK    1  A    between atoms: C_1  and  C_2
REMARK    2  A    between atoms: N_11  and  C_12
REMARK                            x       y       z     vdW  Elec       q    Type
REMARK                         _______ _______ _______ _____ _____    ______ ____
ROOT
ATOM      1  C   UNL     1       1.359   4.314  17.026  0.00  0.00    +0.000 C 
ATOM      2  C   UNL     1       2.331   4.035  18.133  0.00  0.00    +0.000 A 
ATOM      3  C   UNL     1       1.919   3.639  19.379  0.00  0.00    +0.000 A 
ATOM      4  C   UNL     1       2.928   3.456  20.294  0.00  0.00    +0.000 A 
ATOM      5 CL   UNL     1       2.570   2.926  21.888  0.00  0.00    +0.000 Cl
ATOM      6  N   UNL     1       4.235   3.638  20.056  0.00  0.00    +0.000 NA
ATOM      7  C   UNL     1       4.538   3.982  18.806  0.00  0.00    +0.000 A 
ATOM      8  N   UNL     1       5.884   4.099  18.515  0.00  0.00    +0.000 N 
ATOM      9  C   UNL     1       6.495   4.211  17.299  0.00  0.00    +0.000 C 
ATOM     10  O   UNL     1       7.723   4.291  17.274  0.00  0.00    +0.000 OA
ATOM     11  N   UNL     1       5.666   4.216  16.204  0.00  0.00    +0.000 N 
ATOM     12  N   UNL     1       3.632   4.197  17.834  0.00  0.00    +0.000 NA
ATOM     13  H   UNL     1       6.503   4.020  19.305  0.00  0.00    +0.000 HD
ATOM     14  H   UNL     1       4.682   4.345  16.424  0.00  0.00    +0.000 HD
ENDROOT
BRANCH  11  15
ATOM     15  C   UNL     1       6.032   4.252  14.852  0.00  0.00    +0.000 A 
ATOM     16  C   UNL     1       5.398   3.490  13.869  0.00  0.00    +0.000 A 
ATOM     17  C   UNL     1       5.865   3.502  12.554  0.00  0.00    +0.000 A 
ATOM     18  C   UNL     1       6.967   4.284  12.214  0.00  0.00    +0.000 A 
ATOM     19  C   UNL     1       7.567   5.083  13.181  0.00  0.00    +0.000 A 
ATOM     20 CL   UNL     1       8.929   6.053  12.765  0.00  0.00    +0.000 Cl
ATOM     21  C   UNL     1       7.094   5.087  14.494  0.00  0.00    +0.000 A 
ENDBRANCH  11  15
TORSDOF 1
ENDMDL
MODEL 4
REMARK VINA RESULT:      -7.0      1.696      6.645
REMARK  Name = 
REMARK  2 active torsions:
REMARK  status: ('A' for Active; 'I' for Inactive)
REMARK    1  A    between atoms: C_1  and  C_2
REMARK    2  A    between atoms: N_11  and  C_12
REMARK                            x       y       z     vdW  Elec       q    Type
REMARK                         _______ _______ _______ _____ _____    ______ ____
ROOT
ATOM      1  C   UNL     1       4.684   3.247  12.930  0.00  0.00    +0.000 C 
ATOM      2  C   UNL     1       5.823   3.996  13.553  0.00  0.00    +0.000 A 
ATOM      3  C   UNL     1       6.783   4.619  12.798  0.00  0.00    +0.000 A 
ATOM      4  C   UNL     1       7.780   5.235  13.516  0.00  0.00    +0.000 A 
ATOM      5 CL   UNL     1       9.034   6.087  12.709  0.00  0.00    +0.000 Cl
ATOM      6  N   UNL     1       7.873   5.258  14.853  0.00  0.00    +0.000 NA
ATOM      7  C   UNL     1       6.872   4.662  15.498  0.00  0.00    +0.000 A 
ATOM      8  N   UNL     1       6.903   4.740  16.878  0.00  0.00    +0.000 N 
ATOM      9  C   UNL     1       5.925   4.433  17.780  0.00  0.00    +0.000 C 
ATOM     10  O   UNL     1       6.169   4.594  18.975  0.00  0.00    +0.000 OA
ATOM     11  N   UNL     1       4.742   3.974  17.255  0.00  0.00    +0.000 N 
ATOM     12  N   UNL     1       5.852   4.022  14.897  0.00  0.00    +0.000 NA
ATOM     13  H   UNL     1       7.738   5.147  17.267  0.00  0.00    +0.000 HD
ATOM     14  H   UNL     1       4.791   3.715  16.273  0.00  0.00    +0.000 HD
ENDROOT
BRANCH  11  15
ATOM     15  C   UNL     1       3.565   3.654  17.945  0.00  0.00    +0.000 A 
ATOM     16  C   UNL     1       2.293   3.773  17.382  0.00  0.00    +0.000 A 
ATOM     17  C   UNL     1       1.155   3.523  18.149  0.00  0.00    +0.000 A 
ATOM     18  C   UNL     1       1.283   3.144  19.484  0.00  0.00    +0.000 A 
ATOM     19  C   UNL     1       2.550   2.974  20.031  0.00  0.00    +0.000 A 
ATOM     20 CL   UNL     1       2.715   2.505  21.680  0.00  0.00    +0.000 Cl
ATOM     21  C   UNL     1       3.693   3.208  19.264  0.00  0.00    +0.000 A 
ENDBRANCH  11  15
TORSDOF 1
ENDMDL
MODEL 5
REMARK VINA RESULT:      -6.9      2.863      4.049
REMARK  Name = 
REMARK  2 active torsions:
REMARK  status: ('A' for Active; 'I' for Inactive)
REMARK    1  A    between atoms: C_1  and  C_2
REMARK    2  A    between atoms: N_11  and  C_12
REMARK                            x       y       z     vdW  Elec       q    Type
REMARK                         _______ _______ _______ _____ _____    ______ ____
ROOT
ATOM      1  C   UNL     1       3.916   3.488  17.547  0.00  0.00    +0.000 C 
ATOM      2  C   UNL     1       5.216   4.234  17.570  0.00  0.00    +0.000 A 
ATOM      3  C   UNL     1       5.821   4.604  18.743  0.00  0.00    +0.000 A 
ATOM      4  C   UNL     1       6.990   5.312  18.597  0.00  0.00    +0.000 A 
ATOM      5 CL   UNL     1       7.881   5.813  19.977  0.00  0.00    +0.000 Cl
ATOM      6  N   UNL     1       7.549   5.655  17.427  0.00  0.00    +0.000 NA
ATOM      7  C   UNL     1       6.909   5.215  16.346  0.00  0.00    +0.000 A 
ATOM      8  N   UNL     1       7.508   5.488  15.130  0.00  0.00    +0.000 N 
ATOM      9  C   UNL     1       7.218   4.982  13.895  0.00  0.00    +0.000 C 
ATOM     10  O   UNL     1       7.897   5.360  12.942  0.00  0.00    +0.000 OA
ATOM     11  N   UNL     1       6.183   4.081  13.839  0.00  0.00    +0.000 N 
ATOM     12  N   UNL     1       5.756   4.523  16.372  0.00  0.00    +0.000 NA
ATOM     13  H   UNL     1       8.315   6.088  15.173  0.00  0.00    +0.000 HD
ATOM     14  H   UNL     1       5.613   4.044  14.680  0.00  0.00    +0.000 HD
ENDROOT
BRANCH  11  15
ATOM     15  C   UNL     1       5.727   3.368  12.722  0.00  0.00    +0.000 A 
ATOM     16  C   UNL     1       6.341   2.205  12.256  0.00  0.00    +0.000 A 
ATOM     17  C   UNL     1       5.894   1.589  11.087  0.00  0.00    +0.000 A 
ATOM     18  C   UNL     1       4.822   2.131  10.380  0.00  0.00    +0.000 A 
ATOM     19  C   UNL     1       4.177   3.261  10.871  0.00  0.00    +0.000 A 
ATOM     20 CL   UNL     1       2.851   3.934  10.002  0.00  0.00    +0.000 Cl
ATOM     21  C   UNL     1       4.610   3.872  12.049  0.00  0.00    +0.000 A 
ENDBRANCH  11  15
TORSDOF 1
ENDMDL
MODEL 6
REMARK VINA RESULT:      -6.9      5.097      6.098
REMARK  Name = 
REMARK  2 active torsions:
REMARK  status: ('A' for Active; 'I' for Inactive)
REMARK    1  A    between atoms: C_1  and  C_2
REMARK    2  A    between atoms: N_11  and  C_12
REMARK                            x       y       z     vdW  Elec       q    Type
REMARK                         _______ _______ _______ _____ _____    ______ ____
ROOT
ATOM      1  C   UNL     1       1.820  10.258  17.927  0.00  0.00    +0.000 C 
ATOM      2  C   UNL     1       1.266   9.843  19.256  0.00  0.00    +0.000 A 
ATOM      3  C   UNL     1       0.443  10.659  19.988  0.00  0.00    +0.000 A 
ATOM      4  C   UNL     1       0.046  10.150  21.201  0.00  0.00    +0.000 A 
ATOM      5 CL   UNL     1      -1.015  11.043  22.214  0.00  0.00    +0.000 Cl
ATOM      6  N   UNL     1       0.403   8.956  21.696  0.00  0.00    +0.000 NA
ATOM      7  C   UNL     1       1.169   8.219  20.894  0.00  0.00    +0.000 A 
ATOM      8  N   UNL     1       1.486   6.953  21.348  0.00  0.00    +0.000 N 
ATOM      9  C   UNL     1       2.047   5.910  20.668  0.00  0.00    +0.000 C 
ATOM     10  O   UNL     1       2.230   4.855  21.274  0.00  0.00    +0.000 OA
ATOM     11  N   UNL     1       2.352   6.143  19.349  0.00  0.00    +0.000 N 
ATOM     12  N   UNL     1       1.623   8.622  19.693  0.00  0.00    +0.000 NA
ATOM     13  H   UNL     1       1.196   6.748  22.290  0.00  0.00    +0.000 HD
ATOM     14  H   UNL     1       2.320   7.122  19.078  0.00  0.00    +0.000 HD
ENDROOT
BRANCH  11  15
ATOM     15  C   UNL     1       2.868   5.235  18.415  0.00  0.00    +0.000 A 
ATOM     16  C   UNL     1       2.126   4.175  17.890  0.00  0.00    +0.000 A 
ATOM     17  C   UNL     1       2.723   3.252  17.031  0.00  0.00    +0.000 A 
ATOM     18  C   UNL     1       4.066   3.388  16.686  0.00  0.00    +0.000 A 
ATOM     19  C   UNL     1       4.792   4.472  17.167  0.00  0.00    +0.000 A 
ATOM     20 CL   UNL     1       6.452   4.647  16.742  0.00  0.00    +0.000 Cl
ATOM     21  C   UNL     1       4.196   5.408  18.014  0.00  0.00    +0.000 A 
ENDBRANCH  11  15
TORSDOF 1
ENDMDL
MODEL 7
REMARK VINA RESULT:      -6.8      1.837      1.933
REMARK  Name = 
REMARK  2 active torsions:
REMARK  status: ('A' for Active; 'I' for Inactive)
REMARK    1  A    between atoms: C_1  and  C_2
REMARK    2  A    between atoms: N_11  and  C_12
REMARK                            x       y       z     vdW  Elec       q    Type
REMARK                         _______ _______ _______ _____ _____    ______ ____
ROOT
ATOM      1  C   UNL     1       2.834   1.778  17.436  0.00  0.00    +0.000 C 
ATOM      2  C   UNL     1       2.982   3.091  18.144  0.00  0.00    +0.000 A 
ATOM      3  C   UNL     1       2.547   3.277  19.431  0.00  0.00    +0.000 A 
ATOM      4  C   UNL     1       2.724   4.546  19.928  0.00  0.00    +0.000 A 
ATOM      5 CL   UNL     1       2.260   4.922  21.538  0.00  0.00    +0.000 Cl
ATOM      6  N   UNL     1       3.268   5.573  19.259  0.00  0.00    +0.000 NA
ATOM      7  C   UNL     1       3.697   5.283  18.033  0.00  0.00    +0.000 A 
ATOM      8  N   UNL     1       4.333   6.304  17.352  0.00  0.00    +0.000 N 
ATOM      9  C   UNL     1       5.065   6.246  16.200  0.00  0.00    +0.000 C 
ATOM     10  O   UNL     1       5.557   7.290  15.775  0.00  0.00    +0.000 OA
ATOM     11  N   UNL     1       5.186   5.006  15.623  0.00  0.00    +0.000 N 
ATOM     12  N   UNL     1       3.567   4.080  17.445  0.00  0.00    +0.000 NA
ATOM     13  H   UNL     1       4.314   7.202  17.807  0.00  0.00    +0.000 HD
ATOM     14  H   UNL     1       4.551   4.306  15.997  0.00  0.00    +0.000 HD
ENDROOT
BRANCH  11  15
ATOM     15  C   UNL     1       5.929   4.658  14.487  0.00  0.00    +0.000 A 
ATOM     16  C   UNL     1       7.153   5.247  14.166  0.00  0.00    +0.000 A 
ATOM     17  C   UNL     1       7.802   4.922  12.974  0.00  0.00    +0.000 A 
ATOM     18  C   UNL     1       7.233   3.999  12.100  0.00  0.00    +0.000 A 
ATOM     19  C   UNL     1       6.040   3.373  12.443  0.00  0.00    +0.000 A 
ATOM     20 CL   UNL     1       5.332   2.230  11.366  0.00  0.00    +0.000 Cl
ATOM     21  C   UNL     1       5.393   3.682  13.641  0.00  0.00    +0.000 A 
ENDBRANCH  11  15
TORSDOF 1
ENDMDL
MODEL 8
REMARK VINA RESULT:      -6.8      2.845      4.041
REMARK  Name = 
REMARK  2 active torsions:
REMARK  status: ('A' for Active; 'I' for Inactive)
REMARK    1  A    between atoms: C_1  and  C_2
REMARK    2  A    between atoms: N_11  and  C_12
REMARK                            x       y       z     vdW  Elec       q    Type
REMARK                         _______ _______ _______ _____ _____    ______ ____
ROOT
ATOM      1  C   UNL     1       3.806   3.797  17.604  0.00  0.00    +0.000 C 
ATOM      2  C   UNL     1       5.161   4.438  17.628  0.00  0.00    +0.000 A 
ATOM      3  C   UNL     1       5.798   4.750  18.801  0.00  0.00    +0.000 A 
ATOM      4  C   UNL     1       7.018   5.364  18.657  0.00  0.00    +0.000 A 
ATOM      5 CL   UNL     1       7.951   5.782  20.037  0.00  0.00    +0.000 Cl
ATOM      6  N   UNL     1       7.599   5.671  17.488  0.00  0.00    +0.000 NA
ATOM      7  C   UNL     1       6.923   5.292  16.405  0.00  0.00    +0.000 A 
ATOM      8  N   UNL     1       7.537   5.527  15.189  0.00  0.00    +0.000 N 
ATOM      9  C   UNL     1       7.204   5.055  13.951  0.00  0.00    +0.000 C 
ATOM     10  O   UNL     1       7.908   5.386  12.998  0.00  0.00    +0.000 OA
ATOM     11  N   UNL     1       6.101   4.238  13.893  0.00  0.00    +0.000 N 
ATOM     12  N   UNL     1       5.718   4.693  16.431  0.00  0.00    +0.000 NA
ATOM     13  H   UNL     1       8.389   6.061  15.234  0.00  0.00    +0.000 HD
ATOM     14  H   UNL     1       5.533   4.240  14.735  0.00  0.00    +0.000 HD
ENDROOT
BRANCH  11  15
ATOM     15  C   UNL     1       5.587   3.573  12.772  0.00  0.00    +0.000 A 
ATOM     16  C   UNL     1       4.504   4.051  12.032  0.00  0.00    +0.000 A 
ATOM     17  C   UNL     1       3.981   3.299  10.978  0.00  0.00    +0.000 A 
ATOM     18  C   UNL     1       4.545   2.067  10.655  0.00  0.00    +0.000 A 
ATOM     19  C   UNL     1       5.656   1.614  11.358  0.00  0.00    +0.000 A 
ATOM     20 CL   UNL     1       6.358   0.093  10.962  0.00  0.00    +0.000 Cl
ATOM     21  C   UNL     1       6.193   2.369  12.402  0.00  0.00    +0.000 A 
ENDBRANCH  11  15
TORSDOF 1
ENDMDL
MODEL 9
REMARK VINA RESULT:      -6.7      5.775      7.635
REMARK  Name = 
REMARK  2 active torsions:
REMARK  status: ('A' for Active; 'I' for Inactive)
REMARK    1  A    between atoms: C_1  and  C_2
REMARK    2  A    between atoms: N_11  and  C_12
REMARK                            x       y       z     vdW  Elec       q    Type
REMARK                         _______ _______ _______ _____ _____    ______ ____
ROOT
ATOM      1  C   UNL     1      -0.436   8.976  22.503  0.00  0.00    +0.000 C 
ATOM      2  C   UNL     1       0.058   9.862  21.400  0.00  0.00    +0.000 A 
ATOM      3  C   UNL     1      -0.145  11.218  21.411  0.00  0.00    +0.000 A 
ATOM      4  C   UNL     1       0.338  11.888  20.313  0.00  0.00    +0.000 A 
ATOM      5 CL   UNL     1       0.190  13.596  20.201  0.00  0.00    +0.000 Cl
ATOM      6  N   UNL     1       0.964  11.322  19.271  0.00  0.00    +0.000 NA
ATOM      7  C   UNL     1       1.150  10.007  19.372  0.00  0.00    +0.000 A 
ATOM      8  N   UNL     1       1.862   9.412  18.347  0.00  0.00    +0.000 N 
ATOM      9  C   UNL     1       2.396   8.156  18.287  0.00  0.00    +0.000 C 
ATOM     10  O   UNL     1       3.010   7.838  17.269  0.00  0.00    +0.000 OA
ATOM     11  N   UNL     1       2.197   7.361  19.389  0.00  0.00    +0.000 N 
ATOM     12  N   UNL     1       0.712   9.252  20.395  0.00  0.00    +0.000 NA
ATOM     13  H   UNL     1       2.079  10.012  17.568  0.00  0.00    +0.000 HD
ATOM     14  H   UNL     1       1.503   7.715  20.041  0.00  0.00    +0.000 HD
ENDROOT
BRANCH  11  15
ATOM     15  C   UNL     1       2.690   6.069  19.613  0.00  0.00    +0.000 A 
ATOM     16  C   UNL     1       3.914   5.621  19.113  0.00  0.00    +0.000 A 
ATOM     17  C   UNL     1       4.310   4.296  19.296  0.00  0.00    +0.000 A 
ATOM     18  C   UNL     1       3.484   3.411  19.986  0.00  0.00    +0.000 A 
ATOM     19  C   UNL     1       2.288   3.869  20.529  0.00  0.00    +0.000 A 
ATOM     20 CL   UNL     1       1.265   2.780  21.385  0.00  0.00    +0.000 Cl
ATOM     21  C   UNL     1       1.895   5.198  20.364  0.00  0.00    +0.000 A 
ENDBRANCH  11  15
TORSDOF 1
ENDMDL
