MODEL 1
REMARK VINA RESULT:      -7.3      0.000      0.000
REMARK  Name = 
REMARK  6 active torsions:
REMARK  status: ('A' for Active; 'I' for Inactive)
REMARK    1  A    between atoms: C_1  and  O_2
REMARK    2  A    between atoms: O_2  and  C_3
REMARK    3  A    between atoms: C_6  and  N_7
REMARK    4  A    between atoms: N_7  and  C_8
REMARK    5  A    between atoms: C_15  and  O_16
REMARK    6  A    between atoms: O_16  and  C_17
REMARK                            x       y       z     vdW  Elec       q    Type
REMARK                         _______ _______ _______ _____ _____    ______ ____
ROOT
ATOM      1  C   UNL     1       2.481   7.380  19.588  0.00  0.00    +0.000 C 
ATOM      2  C   UNL     1       2.846   7.241  18.089  0.00  0.00    +0.000 C 
ATOM      3  C   UNL     1       3.776   6.106  17.864  0.00  0.00    +0.000 C 
ATOM      4  C   UNL     1       3.017   4.855  18.155  0.00  0.00    +0.000 A 
ATOM      5  C   UNL     1       3.035   3.834  17.200  0.00  0.00    +0.000 A 
ATOM      6  C   UNL     1       2.398   2.633  17.444  0.00  0.00    +0.000 A 
ATOM      7  C   UNL     1       1.772   2.421  18.663  0.00  0.00    +0.000 A 
ATOM      8  C   UNL     1       1.701   3.428  19.642  0.00  0.00    +0.000 A 
ATOM      9  C   UNL     1       2.285   4.720  19.366  0.00  0.00    +0.000 A 
ATOM     10  C   UNL     1       2.059   5.987  20.236  0.00  0.00    +0.000 C 
ENDROOT
BRANCH   1  11
ATOM     11  N   UNL     1       1.423   8.402  19.587  0.00  0.00    +0.000 N 
ATOM     12  H   UNL     1       1.015   8.633  18.666  0.00  0.00    +0.000 HD
BRANCH  11  16
ATOM     13  C   UNL     1      -0.504  10.751  22.537  0.00  0.00    +0.000 A 
ATOM     14  C   UNL     1       0.253   9.633  22.953  0.00  0.00    +0.000 A 
ATOM     15  C   UNL     1       0.911   8.823  22.002  0.00  0.00    +0.000 A 
ATOM     16  C   UNL     1       0.821   9.147  20.639  0.00  0.00    +0.000 A 
ATOM     17  C   UNL     1       0.088  10.285  20.254  0.00  0.00    +0.000 A 
ATOM     18  C   UNL     1      -0.564  11.069  21.190  0.00  0.00    +0.000 A 
BRANCH  13  20
ATOM     19  C   UNL     1      -1.773  12.759  23.087  0.00  0.00    +0.000 C 
ATOM     20  O   UNL     1      -1.183  11.559  23.398  0.00  0.00    +0.000 OA
ENDBRANCH  13  20
ENDBRANCH  11  16
ENDBRANCH   1  11
BRANCH   8  21
ATOM     21  O   UNL     1       1.050   3.042  20.774  0.00  0.00    +0.000 OA
ATOM     22  C   UNL     1       1.524   2.506  21.945  0.00  0.00    +0.000 C 
ENDBRANCH   8  21
TORSDOF 4
ENDMDL
MODEL 2
REMARK VINA RESULT:      -7.2      0.476      1.052
REMARK  Name = 
REMARK  6 active torsions:
REMARK  status: ('A' for Active; 'I' for Inactive)
REMARK    1  A    between atoms: C_1  and  O_2
REMARK    2  A    between atoms: O_2  and  C_3
REMARK    3  A    between atoms: C_6  and  N_7
REMARK    4  A    between atoms: N_7  and  C_8
REMARK    5  A    between atoms: C_15  and  O_16
REMARK    6  A    between atoms: O_16  and  C_17
REMARK                            x       y       z     vdW  Elec       q    Type
REMARK                         _______ _______ _______ _____ _____    ______ ____
ROOT
ATOM      1  C   UNL     1       2.525   7.498  19.377  0.00  0.00    +0.000 C 
ATOM      2  C   UNL     1       2.973   7.290  17.909  0.00  0.00    +0.000 C 
ATOM      3  C   UNL     1       3.916   6.149  17.790  0.00  0.00    +0.000 C 
ATOM      4  C   UNL     1       3.144   4.911  18.097  0.00  0.00    +0.000 A 
ATOM      5  C   UNL     1       3.216   3.846  17.193  0.00  0.00    +0.000 A 
ATOM      6  C   UNL     1       2.568   2.655  17.458  0.00  0.00    +0.000 A 
ATOM      7  C   UNL     1       1.876   2.499  18.649  0.00  0.00    +0.000 A 
ATOM      8  C   UNL     1       1.749   3.550  19.574  0.00  0.00    +0.000 A 
ATOM      9  C   UNL     1       2.346   4.830  19.271  0.00  0.00    +0.000 A 
ATOM     10  C   UNL     1       2.070   6.135  20.066  0.00  0.00    +0.000 C 
ENDROOT
BRANCH   1  11
ATOM     11  N   UNL     1       1.468   8.515  19.269  0.00  0.00    +0.000 N 
ATOM     12  H   UNL     1       1.091   8.680  18.321  0.00  0.00    +0.000 HD
BRANCH  11  16
ATOM     13  C   UNL     1      -0.445  10.731  22.330  0.00  0.00    +0.000 A 
ATOM     14  C   UNL     1       0.100  11.430  21.230  0.00  0.00    +0.000 A 
ATOM     15  C   UNL     1       0.746  10.731  20.188  0.00  0.00    +0.000 A 
ATOM     16  C   UNL     1       0.830   9.330  20.246  0.00  0.00    +0.000 A 
ATOM     17  C   UNL     1       0.250   8.655  21.336  0.00  0.00    +0.000 A 
ATOM     18  C   UNL     1      -0.373   9.347  22.360  0.00  0.00    +0.000 A 
BRANCH  13  20
ATOM     19  C   UNL     1      -2.291  11.948  23.356  0.00  0.00    +0.000 C 
ATOM     20  O   UNL     1      -1.058  11.344  23.379  0.00  0.00    +0.000 OA
ENDBRANCH  13  20
ENDBRANCH  11  16
ENDBRANCH   1  11
BRANCH   8  21
ATOM     21  O   UNL     1       1.036   3.215  20.685  0.00  0.00    +0.000 OA
ATOM     22  C   UNL     1       1.404   2.530  21.817  0.00  0.00    +0.000 C 
ENDBRANCH   8  21
TORSDOF 4
ENDMDL
MODEL 3
REMARK VINA RESULT:      -7.1      4.748      9.175
REMARK  Name = 
REMARK  6 active torsions:
REMARK  status: ('A' for Active; 'I' for Inactive)
REMARK    1  A    between atoms: C_1  and  O_2
REMARK    2  A    between atoms: O_2  and  C_3
REMARK    3  A    between atoms: C_6  and  N_7
REMARK    4  A    between atoms: N_7  and  C_8
REMARK    5  A    between atoms: C_15  and  O_16
REMARK    6  A    between atoms: O_16  and  C_17
REMARK                            x       y       z     vdW  Elec       q    Type
REMARK                         _______ _______ _______ _____ _____    ______ ____
ROOT
ATOM      1  C   UNL     1       7.172   6.158  16.868  0.00  0.00    +0.000 C 
ATOM      2  C   UNL     1       7.064   4.773  17.552  0.00  0.00    +0.000 C 
ATOM      3  C   UNL     1       6.526   4.893  18.930  0.00  0.00    +0.000 C 
ATOM      4  C   UNL     1       5.106   5.332  18.808  0.00  0.00    +0.000 A 
ATOM      5  C   UNL     1       4.128   4.609  19.498  0.00  0.00    +0.000 A 
ATOM      6  C   UNL     1       2.806   5.008  19.466  0.00  0.00    +0.000 A 
ATOM      7  C   UNL     1       2.451   6.159  18.780  0.00  0.00    +0.000 A 
ATOM      8  C   UNL     1       3.392   6.903  18.047  0.00  0.00    +0.000 A 
ATOM      9  C   UNL     1       4.763   6.448  17.996  0.00  0.00    +0.000 A 
ATOM     10  C   UNL     1       5.838   7.015  17.030  0.00  0.00    +0.000 C 
ENDROOT
BRANCH   1  11
ATOM     11  N   UNL     1       7.525   5.826  15.479  0.00  0.00    +0.000 N 
ATOM     12  H   UNL     1       8.397   6.247  15.118  0.00  0.00    +0.000 HD
BRANCH  11  16
ATOM     13  C   UNL     1       5.866   3.356  12.465  0.00  0.00    +0.000 A 
ATOM     14  C   UNL     1       5.112   3.589  13.638  0.00  0.00    +0.000 A 
ATOM     15  C   UNL     1       5.628   4.406  14.667  0.00  0.00    +0.000 A 
ATOM     16  C   UNL     1       6.891   4.999  14.510  0.00  0.00    +0.000 A 
ATOM     17  C   UNL     1       7.607   4.777  13.319  0.00  0.00    +0.000 A 
ATOM     18  C   UNL     1       7.101   3.966  12.318  0.00  0.00    +0.000 A 
BRANCH  13  20
ATOM     19  C   UNL     1       5.945   1.326  11.116  0.00  0.00    +0.000 C 
ATOM     20  O   UNL     1       5.440   2.560  11.446  0.00  0.00    +0.000 OA
ENDBRANCH  13  20
ENDBRANCH  11  16
ENDBRANCH   1  11
BRANCH   8  21
ATOM     21  O   UNL     1       2.865   8.000  17.438  0.00  0.00    +0.000 OA
ATOM     22  C   UNL     1       1.854   8.844  17.828  0.00  0.00    +0.000 C 
ENDBRANCH   8  21
TORSDOF 4
ENDMDL
MODEL 4
REMARK VINA RESULT:      -7.1      4.614      8.902
REMARK  Name = 
REMARK  6 active torsions:
REMARK  status: ('A' for Active; 'I' for Inactive)
REMARK    1  A    between atoms: C_1  and  O_2
REMARK    2  A    between atoms: O_2  and  C_3
REMARK    3  A    between atoms: C_6  and  N_7
REMARK    4  A    between atoms: N_7  and  C_8
REMARK    5  A    between atoms: C_15  and  O_16
REMARK    6  A    between atoms: O_16  and  C_17
REMARK                            x       y       z     vdW  Elec       q    Type
REMARK                         _______ _______ _______ _____ _____    ______ ____
ROOT
ATOM      1  C   UNL     1       7.106   6.101  16.976  0.00  0.00    +0.000 C 
ATOM      2  C   UNL     1       7.070   4.651  17.521  0.00  0.00    +0.000 C 
ATOM      3  C   UNL     1       6.456   4.598  18.872  0.00  0.00    +0.000 C 
ATOM      4  C   UNL     1       5.015   4.946  18.711  0.00  0.00    +0.000 A 
ATOM      5  C   UNL     1       4.062   4.091  19.274  0.00  0.00    +0.000 A 
ATOM      6  C   UNL     1       2.717   4.397  19.205  0.00  0.00    +0.000 A 
ATOM      7  C   UNL     1       2.310   5.581  18.611  0.00  0.00    +0.000 A 
ATOM      8  C   UNL     1       3.227   6.458  18.004  0.00  0.00    +0.000 A 
ATOM      9  C   UNL     1       4.629   6.108  17.989  0.00  0.00    +0.000 A 
ATOM     10  C   UNL     1       5.705   6.841  17.142  0.00  0.00    +0.000 C 
ENDROOT
BRANCH   1  11
ATOM     11  N   UNL     1       7.551   5.931  15.585  0.00  0.00    +0.000 N 
ATOM     12  H   UNL     1       8.387   6.471  15.306  0.00  0.00    +0.000 HD
BRANCH  11  16
ATOM     13  C   UNL     1       5.835   3.551  12.530  0.00  0.00    +0.000 A 
ATOM     14  C   UNL     1       7.123   4.094  12.321  0.00  0.00    +0.000 A 
ATOM     15  C   UNL     1       7.731   4.893  13.312  0.00  0.00    +0.000 A 
ATOM     16  C   UNL     1       7.052   5.132  14.518  0.00  0.00    +0.000 A 
ATOM     17  C   UNL     1       5.785   4.552  14.716  0.00  0.00    +0.000 A 
ATOM     18  C   UNL     1       5.189   3.779  13.735  0.00  0.00    +0.000 A 
BRANCH  13  20
ATOM     19  C   UNL     1       3.911   3.013  11.132  0.00  0.00    +0.000 C 
ATOM     20  O   UNL     1       5.181   2.794  11.607  0.00  0.00    +0.000 OA
ENDBRANCH  13  20
ENDBRANCH  11  16
ENDBRANCH   1  11
BRANCH   8  21
ATOM     21  O   UNL     1       2.648   7.569  17.472  0.00  0.00    +0.000 OA
ATOM     22  C   UNL     1       2.273   8.754  18.057  0.00  0.00    +0.000 C 
ENDBRANCH   8  21
TORSDOF 4
ENDMDL
MODEL 5
REMARK VINA RESULT:      -7.0      2.550      3.793
REMARK  Name = 
REMARK  6 active torsions:
REMARK  status: ('A' for Active; 'I' for Inactive)
REMARK    1  A    between atoms: C_1  and  O_2
REMARK    2  A    between atoms: O_2  and  C_3
REMARK    3  A    between atoms: C_6  and  N_7
REMARK    4  A    between atoms: N_7  and  C_8
REMARK    5  A    between atoms: C_15  and  O_16
REMARK    6  A    between atoms: O_16  and  C_17
REMARK                            x       y       z     vdW  Elec       q    Type
REMARK                         _______ _______ _______ _____ _____    ______ ____
ROOT
ATOM      1  C   UNL     1       2.418   6.925  18.659  0.00  0.00    +0.000 C 
ATOM      2  C   UNL     1       2.369   5.384  18.801  0.00  0.00    +0.000 C 
ATOM      3  C   UNL     1       2.734   4.714  17.528  0.00  0.00    +0.000 C 
ATOM      4  C   UNL     1       4.178   4.996  17.284  0.00  0.00    +0.000 A 
ATOM      5  C   UNL     1       5.023   3.918  17.000  0.00  0.00    +0.000 A 
ATOM      6  C   UNL     1       6.357   4.129  16.710  0.00  0.00    +0.000 A 
ATOM      7  C   UNL     1       6.853   5.423  16.655  0.00  0.00    +0.000 A 
ATOM      8  C   UNL     1       6.051   6.536  16.961  0.00  0.00    +0.000 A 
ATOM      9  C   UNL     1       4.676   6.325  17.355  0.00  0.00    +0.000 A 
ATOM     10  C   UNL     1       3.762   7.423  17.963  0.00  0.00    +0.000 C 
ENDROOT
BRANCH   1  11
ATOM     11  N   UNL     1       2.228   7.400  20.039  0.00  0.00    +0.000 N 
ATOM     12  H   UNL     1       2.791   6.925  20.764  0.00  0.00    +0.000 HD
BRANCH  11  16
ATOM     13  C   UNL     1      -0.272  10.524  21.426  0.00  0.00    +0.000 A 
ATOM     14  C   UNL     1       0.246   9.606  22.366  0.00  0.00    +0.000 A 
ATOM     15  C   UNL     1       1.083   8.550  21.947  0.00  0.00    +0.000 A 
ATOM     16  C   UNL     1       1.410   8.427  20.586  0.00  0.00    +0.000 A 
ATOM     17  C   UNL     1       0.909   9.375  19.675  0.00  0.00    +0.000 A 
ATOM     18  C   UNL     1       0.080  10.402  20.091  0.00  0.00    +0.000 A 
BRANCH  13  20
ATOM     19  C   UNL     1      -1.675  11.762  22.989  0.00  0.00    +0.000 C 
ATOM     20  O   UNL     1      -1.104  11.550  21.758  0.00  0.00    +0.000 OA
ENDBRANCH  13  20
ENDBRANCH  11  16
ENDBRANCH   1  11
BRANCH   8  21
ATOM     21  O   UNL     1       6.705   7.725  16.855  0.00  0.00    +0.000 OA
ATOM     22  C   UNL     1       7.740   8.249  17.590  0.00  0.00    +0.000 C 
ENDBRANCH   8  21
TORSDOF 4
ENDMDL
MODEL 6
REMARK VINA RESULT:      -7.0      2.698      4.102
REMARK  Name = 
REMARK  6 active torsions:
REMARK  status: ('A' for Active; 'I' for Inactive)
REMARK    1  A    between atoms: C_1  and  O_2
REMARK    2  A    between atoms: O_2  and  C_3
REMARK    3  A    between atoms: C_6  and  N_7
REMARK    4  A    between atoms: N_7  and  C_8
REMARK    5  A    between atoms: C_15  and  O_16
REMARK    6  A    between atoms: O_16  and  C_17
REMARK                            x       y       z     vdW  Elec       q    Type
REMARK                         _______ _______ _______ _____ _____    ______ ____
ROOT
ATOM      1  C   UNL     1       2.483   6.682  18.382  0.00  0.00    +0.000 C 
ATOM      2  C   UNL     1       2.570   5.138  18.477  0.00  0.00    +0.000 C 
ATOM      3  C   UNL     1       3.113   4.551  17.226  0.00  0.00    +0.000 C 
ATOM      4  C   UNL     1       4.539   4.976  17.128  0.00  0.00    +0.000 A 
ATOM      5  C   UNL     1       5.507   3.992  16.897  0.00  0.00    +0.000 A 
ATOM      6  C   UNL     1       6.835   4.338  16.739  0.00  0.00    +0.000 A 
ATOM      7  C   UNL     1       7.207   5.673  16.766  0.00  0.00    +0.000 A 
ATOM      8  C   UNL     1       6.276   6.694  17.025  0.00  0.00    +0.000 A 
ATOM      9  C   UNL     1       4.898   6.343  17.282  0.00  0.00    +0.000 A 
ATOM     10  C   UNL     1       3.830   7.328  17.829  0.00  0.00    +0.000 C 
ENDROOT
BRANCH   1  11
ATOM     11  N   UNL     1       2.123   7.087  19.750  0.00  0.00    +0.000 N 
ATOM     12  H   UNL     1       2.342   6.408  20.497  0.00  0.00    +0.000 HD
BRANCH  11  16
ATOM     13  C   UNL     1       0.421  10.538  21.520  0.00  0.00    +0.000 A 
ATOM     14  C   UNL     1       0.564  10.500  20.114  0.00  0.00    +0.000 A 
ATOM     15  C   UNL     1       1.126   9.370  19.484  0.00  0.00    +0.000 A 
ATOM     16  C   UNL     1       1.529   8.274  20.264  0.00  0.00    +0.000 A 
ATOM     17  C   UNL     1       1.345   8.323  21.658  0.00  0.00    +0.000 A 
ATOM     18  C   UNL     1       0.803   9.439  22.271  0.00  0.00    +0.000 A 
BRANCH  13  20
ATOM     19  C   UNL     1      -1.260  11.625  22.911  0.00  0.00    +0.000 C 
ATOM     20  O   UNL     1      -0.090  11.605  22.193  0.00  0.00    +0.000 OA
ENDBRANCH  13  20
ENDBRANCH  11  16
ENDBRANCH   1  11
BRANCH   8  21
ATOM     21  O   UNL     1       6.820   7.942  17.013  0.00  0.00    +0.000 OA
ATOM     22  C   UNL     1       7.895   8.460  17.692  0.00  0.00    +0.000 C 
ENDBRANCH   8  21
TORSDOF 4
ENDMDL
MODEL 7
REMARK VINA RESULT:      -6.8      2.817      7.999
REMARK  Name = 
REMARK  6 active torsions:
REMARK  status: ('A' for Active; 'I' for Inactive)
REMARK    1  A    between atoms: C_1  and  O_2
REMARK    2  A    between atoms: O_2  and  C_3
REMARK    3  A    between atoms: C_6  and  N_7
REMARK    4  A    between atoms: N_7  and  C_8
REMARK    5  A    between atoms: C_15  and  O_16
REMARK    6  A    between atoms: O_16  and  C_17
REMARK                            x       y       z     vdW  Elec       q    Type
REMARK                         _______ _______ _______ _____ _____    ______ ____
ROOT
ATOM      1  C   UNL     1       2.303   7.064  18.824  0.00  0.00    +0.000 C 
ATOM      2  C   UNL     1       2.464   8.119  17.702  0.00  0.00    +0.000 C 
ATOM      3  C   UNL     1       1.256   8.975  17.590  0.00  0.00    +0.000 C 
ATOM      4  C   UNL     1       1.184   9.796  18.833  0.00  0.00    +0.000 A 
ATOM      5  C   UNL     1       1.024  11.179  18.703  0.00  0.00    +0.000 A 
ATOM      6  C   UNL     1       0.894  11.979  19.822  0.00  0.00    +0.000 A 
ATOM      7  C   UNL     1       0.877  11.401  21.082  0.00  0.00    +0.000 A 
ATOM      8  C   UNL     1       1.064  10.020  21.265  0.00  0.00    +0.000 A 
ATOM      9  C   UNL     1       1.293   9.182  20.110  0.00  0.00    +0.000 A 
ATOM     10  C   UNL     1       1.766   7.704  20.181  0.00  0.00    +0.000 C 
ENDROOT
BRANCH   1  11
ATOM     11  N   UNL     1       3.641   6.459  18.917  0.00  0.00    +0.000 N 
ATOM     12  H   UNL     1       4.036   6.374  19.869  0.00  0.00    +0.000 HD
BRANCH  11  16
ATOM     13  C   UNL     1       6.058   4.754  15.887  0.00  0.00    +0.000 A 
ATOM     14  C   UNL     1       6.553   5.870  16.597  0.00  0.00    +0.000 A 
ATOM     15  C   UNL     1       5.780   6.469  17.615  0.00  0.00    +0.000 A 
ATOM     16  C   UNL     1       4.519   5.937  17.927  0.00  0.00    +0.000 A 
ATOM     17  C   UNL     1       4.063   4.804  17.228  0.00  0.00    +0.000 A 
ATOM     18  C   UNL     1       4.821   4.228  16.223  0.00  0.00    +0.000 A 
BRANCH  13  20
ATOM     19  C   UNL     1       6.253   3.864  13.625  0.00  0.00    +0.000 C 
ATOM     20  O   UNL     1       6.739   4.144  14.878  0.00  0.00    +0.000 OA
ENDBRANCH  13  20
ENDBRANCH  11  16
ENDBRANCH   1  11
BRANCH   8  21
ATOM     21  O   UNL     1       1.018   9.633  22.569  0.00  0.00    +0.000 OA
ATOM     22  C   UNL     1      -0.047   9.468  23.420  0.00  0.00    +0.000 C 
ENDBRANCH   8  21
TORSDOF 4
ENDMDL
MODEL 8
REMARK VINA RESULT:      -6.6      1.056      1.373
REMARK  Name = 
REMARK  6 active torsions:
REMARK  status: ('A' for Active; 'I' for Inactive)
REMARK    1  A    between atoms: C_1  and  O_2
REMARK    2  A    between atoms: O_2  and  C_3
REMARK    3  A    between atoms: C_6  and  N_7
REMARK    4  A    between atoms: N_7  and  C_8
REMARK    5  A    between atoms: C_15  and  O_16
REMARK    6  A    between atoms: O_16  and  C_17
REMARK                            x       y       z     vdW  Elec       q    Type
REMARK                         _______ _______ _______ _____ _____    ______ ____
ROOT
ATOM      1  C   UNL     1       1.721   8.565  19.722  0.00  0.00    +0.000 C 
ATOM      2  C   UNL     1       1.963   8.424  18.199  0.00  0.00    +0.000 C 
ATOM      3  C   UNL     1       3.171   7.607  17.919  0.00  0.00    +0.000 C 
ATOM      4  C   UNL     1       2.867   6.214  18.355  0.00  0.00    +0.000 A 
ATOM      5  C   UNL     1       3.106   5.172  17.453  0.00  0.00    +0.000 A 
ATOM      6  C   UNL     1       2.897   3.858  17.826  0.00  0.00    +0.000 A 
ATOM      7  C   UNL     1       2.489   3.566  19.118  0.00  0.00    +0.000 A 
ATOM      8  C   UNL     1       2.208   4.580  20.051  0.00  0.00    +0.000 A 
ATOM      9  C   UNL     1       2.335   5.962  19.649  0.00  0.00    +0.000 A 
ATOM     10  C   UNL     1       1.815   7.167  20.480  0.00  0.00    +0.000 C 
ENDROOT
BRANCH   1  11
ATOM     11  N   UNL     1       0.405   9.218  19.799  0.00  0.00    +0.000 N 
ATOM     12  H   UNL     1      -0.238   9.037  19.010  0.00  0.00    +0.000 HD
BRANCH  11  16
ATOM     13  C   UNL     1      -1.443  11.872  22.533  0.00  0.00    +0.000 A 
ATOM     14  C   UNL     1      -0.863  10.684  23.032  0.00  0.00    +0.000 A 
ATOM     15  C   UNL     1      -0.237   9.772  22.155  0.00  0.00    +0.000 A 
ATOM     16  C   UNL     1      -0.181  10.062  20.782  0.00  0.00    +0.000 A 
ATOM     17  C   UNL     1      -0.737  11.268  20.316  0.00  0.00    +0.000 A 
ATOM     18  C   UNL     1      -1.359  12.153  21.179  0.00  0.00    +0.000 A 
BRANCH  13  20
ATOM     19  C   UNL     1      -1.566  13.973  23.764  0.00  0.00    +0.000 C 
ATOM     20  O   UNL     1      -2.083  12.782  23.318  0.00  0.00    +0.000 OA
ENDBRANCH  13  20
ENDBRANCH  11  16
ENDBRANCH   1  11
BRANCH   8  21
ATOM     21  O   UNL     1       1.821   4.107  21.268  0.00  0.00    +0.000 OA
ATOM     22  C   UNL     1       1.593   2.825  21.703  0.00  0.00    +0.000 C 
ENDBRANCH   8  21
TORSDOF 4
ENDMDL
MODEL 9
REMARK VINA RESULT:      -6.6      1.203      1.912
REMARK  Name = 
REMARK  6 active torsions:
REMARK  status: ('A' for Active; 'I' for Inactive)
REMARK    1  A    between atoms: C_1  and  O_2
REMARK    2  A    between atoms: O_2  and  C_3
REMARK    3  A    between atoms: C_6  and  N_7
REMARK    4  A    between atoms: N_7  and  C_8
REMARK    5  A    between atoms: C_15  and  O_16
REMARK    6  A    between atoms: O_16  and  C_17
REMARK                            x       y       z     vdW  Elec       q    Type
REMARK                         _______ _______ _______ _____ _____    ______ ____
ROOT
ATOM      1  C   UNL     1       1.670   8.779  19.528  0.00  0.00    +0.000 C 
ATOM      2  C   UNL     1       1.962   8.595  18.018  0.00  0.00    +0.000 C 
ATOM      3  C   UNL     1       3.239   7.870  17.800  0.00  0.00    +0.000 C 
ATOM      4  C   UNL     1       3.040   6.476  18.290  0.00  0.00    +0.000 A 
ATOM      5  C   UNL     1       3.386   5.421  17.440  0.00  0.00    +0.000 A 
ATOM      6  C   UNL     1       3.276   4.111  17.865  0.00  0.00    +0.000 A 
ATOM      7  C   UNL     1       2.861   3.841  19.160  0.00  0.00    +0.000 A 
ATOM      8  C   UNL     1       2.474   4.865  20.041  0.00  0.00    +0.000 A 
ATOM      9  C   UNL     1       2.497   6.235  19.582  0.00  0.00    +0.000 A 
ATOM     10  C   UNL     1       1.859   7.426  20.347  0.00  0.00    +0.000 C 
ENDROOT
BRANCH   1  11
ATOM     11  N   UNL     1       0.303   9.323  19.546  0.00  0.00    +0.000 N 
ATOM     12  H   UNL     1      -0.316   9.021  18.775  0.00  0.00    +0.000 HD
BRANCH  11  16
ATOM     13  C   UNL     1      -1.553  11.795  22.441  0.00  0.00    +0.000 A 
ATOM     14  C   UNL     1      -1.667  12.149  21.077  0.00  0.00    +0.000 A 
ATOM     15  C   UNL     1      -1.064  11.353  20.080  0.00  0.00    +0.000 A 
ATOM     16  C   UNL     1      -0.360  10.195  20.453  0.00  0.00    +0.000 A 
ATOM     17  C   UNL     1      -0.290   9.848  21.814  0.00  0.00    +0.000 A 
ATOM     18  C   UNL     1      -0.874  10.639  22.789  0.00  0.00    +0.000 A 
BRANCH  13  20
ATOM     19  C   UNL     1      -3.411  12.562  23.820  0.00  0.00    +0.000 C 
ATOM     20  O   UNL     1      -2.088  12.531  23.453  0.00  0.00    +0.000 OA
ENDBRANCH  13  20
ENDBRANCH  11  16
ENDBRANCH   1  11
BRANCH   8  21
ATOM     21  O   UNL     1       2.095   4.413  21.269  0.00  0.00    +0.000 OA
ATOM     22  C   UNL     1       1.993   3.137  21.763  0.00  0.00    +0.000 C 
ENDBRANCH   8  21
TORSDOF 4
ENDMDL
