MODEL 1
REMARK VINA RESULT:      -7.4      0.000      0.000
REMARK  Name = 
REMARK  6 active torsions:
REMARK  status: ('A' for Active; 'I' for Inactive)
REMARK    1  A    between atoms: C_1  and  O_2
REMARK    2  A    between atoms: O_2  and  C_3
REMARK    3  A    between atoms: C_6  and  O_7
REMARK    4  A    between atoms: O_7  and  C_8
REMARK    5  A    between atoms: C_9  and  N_10
REMARK    6  A    between atoms: C_11  and  C_13
REMARK                            x       y       z     vdW  Elec       q    Type
REMARK                         _______ _______ _______ _____ _____    ______ ____
ROOT
ATOM      1  N   UNL     1       2.432   6.530  20.179  0.00  0.00    +0.000 N 
ATOM      2  C   UNL     1       2.096   7.548  19.305  0.00  0.00    +0.000 C 
ATOM      3  O   UNL     1       2.379   7.660  18.120  0.00  0.00    +0.000 OA
ATOM      4  H   UNL     1       2.339   6.756  21.160  0.00  0.00    +0.000 HD
ENDROOT
BRANCH   2   5
ATOM      5  C   UNL     1       1.454   8.727  19.968  0.00  0.00    +0.000 A 
ATOM      6  C   UNL     1       0.794   9.741  19.233  0.00  0.00    +0.000 A 
ATOM      7  C   UNL     1       0.005  10.693  19.888  0.00  0.00    +0.000 A 
ATOM      8  C   UNL     1      -0.112  10.583  21.257  0.00  0.00    +0.000 A 
ATOM      9  C   UNL     1       0.593   9.643  21.976  0.00  0.00    +0.000 A 
ATOM     10  C   UNL     1       1.411   8.723  21.369  0.00  0.00    +0.000 A 
ATOM     11  O   UNL     1       0.291   9.681  23.304  0.00  0.00    +0.000 OA
ATOM     12  C   UNL     1      -0.887  10.509  23.256  0.00  0.00    +0.000 C 
ATOM     13  O   UNL     1      -0.956  11.301  22.050  0.00  0.00    +0.000 OA
ENDBRANCH   2   5
BRANCH   1  18
ATOM     14  C   UNL     1       5.240   4.379  19.121  0.00  0.00    +0.000 A 
ATOM     15  C   UNL     1       4.722   3.097  19.280  0.00  0.00    +0.000 A 
ATOM     16  C   UNL     1       3.429   2.915  19.767  0.00  0.00    +0.000 A 
ATOM     17  C   UNL     1       2.620   4.015  20.088  0.00  0.00    +0.000 A 
ATOM     18  C   UNL     1       3.127   5.316  19.924  0.00  0.00    +0.000 A 
ATOM     19  C   UNL     1       4.450   5.478  19.454  0.00  0.00    +0.000 A 
BRANCH  14  21
ATOM     20  C   UNL     1       7.070   5.679  18.319  0.00  0.00    +0.000 C 
ATOM     21  O   UNL     1       6.520   4.408  18.642  0.00  0.00    +0.000 OA
ENDBRANCH  14  21
BRANCH  17  22
ATOM     22  O   UNL     1       1.402   3.827  20.676  0.00  0.00    +0.000 OA
ATOM     23  C   UNL     1       1.330   2.760  21.618  0.00  0.00    +0.000 C 
ENDBRANCH  17  22
ENDBRANCH   1  18
TORSDOF 4
ENDMDL
MODEL 2
REMARK VINA RESULT:      -7.3      1.818      3.295
REMARK  Name = 
REMARK  6 active torsions:
REMARK  status: ('A' for Active; 'I' for Inactive)
REMARK    1  A    between atoms: C_1  and  O_2
REMARK    2  A    between atoms: O_2  and  C_3
REMARK    3  A    between atoms: C_6  and  O_7
REMARK    4  A    between atoms: O_7  and  C_8
REMARK    5  A    between atoms: C_9  and  N_10
REMARK    6  A    between atoms: C_11  and  C_13
REMARK                            x       y       z     vdW  Elec       q    Type
REMARK                         _______ _______ _______ _____ _____    ______ ____
ROOT
ATOM      1  N   UNL     1       2.536   7.132  18.856  0.00  0.00    +0.000 N 
ATOM      2  C   UNL     1       1.952   7.184  20.109  0.00  0.00    +0.000 C 
ATOM      3  O   UNL     1       1.713   6.261  20.876  0.00  0.00    +0.000 OA
ATOM      4  H   UNL     1       2.394   7.952  18.282  0.00  0.00    +0.000 HD
ENDROOT
BRANCH   2   5
ATOM      5  C   UNL     1       1.398   8.527  20.464  0.00  0.00    +0.000 A 
ATOM      6  C   UNL     1       1.002   9.466  19.481  0.00  0.00    +0.000 A 
ATOM      7  C   UNL     1       0.271  10.604  19.840  0.00  0.00    +0.000 A 
ATOM      8  C   UNL     1      -0.054  10.753  21.171  0.00  0.00    +0.000 A 
ATOM      9  C   UNL     1       0.398   9.879  22.135  0.00  0.00    +0.000 A 
ATOM     10  C   UNL     1       1.155   8.776  21.822  0.00  0.00    +0.000 A 
ATOM     11  O   UNL     1      -0.082  10.186  23.372  0.00  0.00    +0.000 OA
ATOM     12  C   UNL     1      -1.110  11.125  23.001  0.00  0.00    +0.000 C 
ATOM     13  O   UNL     1      -0.891  11.693  21.692  0.00  0.00    +0.000 OA
ENDBRANCH   2   5
BRANCH   1  18
ATOM     14  C   UNL     1       2.681   3.679  17.559  0.00  0.00    +0.000 A 
ATOM     15  C   UNL     1       3.912   3.645  16.911  0.00  0.00    +0.000 A 
ATOM     16  C   UNL     1       4.718   4.782  16.870  0.00  0.00    +0.000 A 
ATOM     17  C   UNL     1       4.314   5.973  17.493  0.00  0.00    +0.000 A 
ATOM     18  C   UNL     1       3.077   6.018  18.159  0.00  0.00    +0.000 A 
ATOM     19  C   UNL     1       2.264   4.862  18.166  0.00  0.00    +0.000 A 
BRANCH  14  21
ATOM     20  C   UNL     1       1.201   2.158  18.646  0.00  0.00    +0.000 C 
ATOM     21  O   UNL     1       1.995   2.497  17.515  0.00  0.00    +0.000 OA
ENDBRANCH  14  21
BRANCH  17  22
ATOM     22  O   UNL     1       5.052   7.112  17.345  0.00  0.00    +0.000 OA
ATOM     23  C   UNL     1       6.462   6.927  17.247  0.00  0.00    +0.000 C 
ENDBRANCH  17  22
ENDBRANCH   1  18
TORSDOF 4
ENDMDL
MODEL 3
REMARK VINA RESULT:      -7.3      1.766      1.862
REMARK  Name = 
REMARK  6 active torsions:
REMARK  status: ('A' for Active; 'I' for Inactive)
REMARK    1  A    between atoms: C_1  and  O_2
REMARK    2  A    between atoms: O_2  and  C_3
REMARK    3  A    between atoms: C_6  and  O_7
REMARK    4  A    between atoms: O_7  and  C_8
REMARK    5  A    between atoms: C_9  and  N_10
REMARK    6  A    between atoms: C_11  and  C_13
REMARK                            x       y       z     vdW  Elec       q    Type
REMARK                         _______ _______ _______ _____ _____    ______ ____
ROOT
ATOM      1  N   UNL     1       2.691   6.972  18.833  0.00  0.00    +0.000 N 
ATOM      2  C   UNL     1       2.111   7.008  20.089  0.00  0.00    +0.000 C 
ATOM      3  O   UNL     1       1.925   6.084  20.868  0.00  0.00    +0.000 OA
ATOM      4  H   UNL     1       2.504   7.777  18.250  0.00  0.00    +0.000 HD
ENDROOT
BRANCH   2   5
ATOM      5  C   UNL     1       1.491   8.326  20.431  0.00  0.00    +0.000 A 
ATOM      6  C   UNL     1       0.970   9.196  19.443  0.00  0.00    +0.000 A 
ATOM      7  C   UNL     1       0.188  10.297  19.808  0.00  0.00    +0.000 A 
ATOM      8  C   UNL     1      -0.063  10.477  21.152  0.00  0.00    +0.000 A 
ATOM      9  C   UNL     1       0.509   9.675  22.114  0.00  0.00    +0.000 A 
ATOM     10  C   UNL     1       1.318   8.613  21.792  0.00  0.00    +0.000 A 
ATOM     11  O   UNL     1       0.088   9.999  23.368  0.00  0.00    +0.000 OA
ATOM     12  C   UNL     1      -1.023  10.852  23.033  0.00  0.00    +0.000 C 
ATOM     13  O   UNL     1      -0.927  11.380  21.692  0.00  0.00    +0.000 OA
ENDBRANCH   2   5
BRANCH   1  18
ATOM     14  C   UNL     1       5.347   5.093  17.089  0.00  0.00    +0.000 A 
ATOM     15  C   UNL     1       4.704   3.911  16.732  0.00  0.00    +0.000 A 
ATOM     16  C   UNL     1       3.373   3.699  17.085  0.00  0.00    +0.000 A 
ATOM     17  C   UNL     1       2.650   4.676  17.787  0.00  0.00    +0.000 A 
ATOM     18  C   UNL     1       3.285   5.879  18.146  0.00  0.00    +0.000 A 
ATOM     19  C   UNL     1       4.643   6.062  17.803  0.00  0.00    +0.000 A 
BRANCH  14  21
ATOM     20  C   UNL     1       6.956   4.708  15.373  0.00  0.00    +0.000 C 
ATOM     21  O   UNL     1       6.652   5.163  16.686  0.00  0.00    +0.000 OA
ENDBRANCH  14  21
BRANCH  17  22
ATOM     22  O   UNL     1       1.387   4.413  18.231  0.00  0.00    +0.000 OA
ATOM     23  C   UNL     1       1.140   3.065  18.627  0.00  0.00    +0.000 C 
ENDBRANCH  17  22
ENDBRANCH   1  18
TORSDOF 4
ENDMDL
MODEL 4
REMARK VINA RESULT:      -7.1      2.038      2.577
REMARK  Name = 
REMARK  6 active torsions:
REMARK  status: ('A' for Active; 'I' for Inactive)
REMARK    1  A    between atoms: C_1  and  O_2
REMARK    2  A    between atoms: O_2  and  C_3
REMARK    3  A    between atoms: C_6  and  O_7
REMARK    4  A    between atoms: O_7  and  C_8
REMARK    5  A    between atoms: C_9  and  N_10
REMARK    6  A    between atoms: C_11  and  C_13
REMARK                            x       y       z     vdW  Elec       q    Type
REMARK                         _______ _______ _______ _____ _____    ______ ____
ROOT
ATOM      1  N   UNL     1       2.847   7.000  18.732  0.00  0.00    +0.000 N 
ATOM      2  C   UNL     1       2.180   8.163  18.391  0.00  0.00    +0.000 C 
ATOM      3  O   UNL     1       2.271   8.819  17.363  0.00  0.00    +0.000 OA
ATOM      4  H   UNL     1       2.838   6.772  19.717  0.00  0.00    +0.000 HD
ENDROOT
BRANCH   2   5
ATOM      5  C   UNL     1       1.388   8.758  19.513  0.00  0.00    +0.000 A 
ATOM      6  C   UNL     1       1.415   8.224  20.824  0.00  0.00    +0.000 A 
ATOM      7  C   UNL     1       0.862   8.937  21.892  0.00  0.00    +0.000 A 
ATOM      8  C   UNL     1       0.317  10.172  21.613  0.00  0.00    +0.000 A 
ATOM      9  C   UNL     1       0.222  10.654  20.326  0.00  0.00    +0.000 A 
ATOM     10  C   UNL     1       0.716   9.958  19.249  0.00  0.00    +0.000 A 
ATOM     11  O   UNL     1      -0.304  11.909  20.286  0.00  0.00    +0.000 OA
ATOM     12  C   UNL     1      -0.215  12.249  21.683  0.00  0.00    +0.000 C 
ATOM     13  O   UNL     1      -0.117  11.083  22.529  0.00  0.00    +0.000 OA
ENDBRANCH   2   5
BRANCH   1  18
ATOM     14  C   UNL     1       5.975   6.211  16.937  0.00  0.00    +0.000 A 
ATOM     15  C   UNL     1       5.720   4.944  16.418  0.00  0.00    +0.000 A 
ATOM     16  C   UNL     1       4.506   4.310  16.672  0.00  0.00    +0.000 A 
ATOM     17  C   UNL     1       3.512   4.938  17.438  0.00  0.00    +0.000 A 
ATOM     18  C   UNL     1       3.753   6.221  17.961  0.00  0.00    +0.000 A 
ATOM     19  C   UNL     1       5.001   6.835  17.714  0.00  0.00    +0.000 A 
BRANCH  14  21
ATOM     20  C   UNL     1       7.727   7.749  17.433  0.00  0.00    +0.000 C 
ATOM     21  O   UNL     1       7.207   6.709  16.614  0.00  0.00    +0.000 OA
ENDBRANCH  14  21
BRANCH  17  22
ATOM     22  O   UNL     1       2.376   4.263  17.782  0.00  0.00    +0.000 OA
ATOM     23  C   UNL     1       2.425   2.849  17.613  0.00  0.00    +0.000 C 
ENDBRANCH  17  22
ENDBRANCH   1  18
TORSDOF 4
ENDMDL
MODEL 5
REMARK VINA RESULT:      -7.1      1.839      3.256
REMARK  Name = 
REMARK  6 active torsions:
REMARK  status: ('A' for Active; 'I' for Inactive)
REMARK    1  A    between atoms: C_1  and  O_2
REMARK    2  A    between atoms: O_2  and  C_3
REMARK    3  A    between atoms: C_6  and  O_7
REMARK    4  A    between atoms: O_7  and  C_8
REMARK    5  A    between atoms: C_9  and  N_10
REMARK    6  A    between atoms: C_11  and  C_13
REMARK                            x       y       z     vdW  Elec       q    Type
REMARK                         _______ _______ _______ _____ _____    ______ ____
ROOT
ATOM      1  N   UNL     1       2.303   7.190  18.931  0.00  0.00    +0.000 N 
ATOM      2  C   UNL     1       1.904   8.415  18.426  0.00  0.00    +0.000 C 
ATOM      3  O   UNL     1       2.010   8.838  17.283  0.00  0.00    +0.000 OA
ATOM      4  H   UNL     1       2.376   7.144  19.939  0.00  0.00    +0.000 HD
ENDROOT
BRANCH   2   5
ATOM      5  C   UNL     1       1.448   9.382  19.472  0.00  0.00    +0.000 A 
ATOM      6  C   UNL     1       1.111  10.723  19.167  0.00  0.00    +0.000 A 
ATOM      7  C   UNL     1       0.464  11.525  20.114  0.00  0.00    +0.000 A 
ATOM      8  C   UNL     1       0.160  10.949  21.329  0.00  0.00    +0.000 A 
ATOM      9  C   UNL     1       0.559   9.670  21.650  0.00  0.00    +0.000 A 
ATOM     10  C   UNL     1       1.234   8.872  20.760  0.00  0.00    +0.000 A 
ATOM     11  O   UNL     1       0.112   9.287  22.878  0.00  0.00    +0.000 OA
ATOM     12  C   UNL     1      -0.851  10.331  23.117  0.00  0.00    +0.000 C 
ATOM     13  O   UNL     1      -0.604  11.504  22.310  0.00  0.00    +0.000 OA
ENDBRANCH   2   5
BRANCH   1  18
ATOM     14  C   UNL     1       2.525   3.725  17.680  0.00  0.00    +0.000 A 
ATOM     15  C   UNL     1       3.764   3.706  17.045  0.00  0.00    +0.000 A 
ATOM     16  C   UNL     1       4.548   4.856  16.997  0.00  0.00    +0.000 A 
ATOM     17  C   UNL     1       4.117   6.047  17.601  0.00  0.00    +0.000 A 
ATOM     18  C   UNL     1       2.872   6.078  18.253  0.00  0.00    +0.000 A 
ATOM     19  C   UNL     1       2.080   4.908  18.266  0.00  0.00    +0.000 A 
BRANCH  14  21
ATOM     20  C   UNL     1       0.926   2.269  18.683  0.00  0.00    +0.000 C 
ATOM     21  O   UNL     1       1.861   2.530  17.643  0.00  0.00    +0.000 OA
ENDBRANCH  14  21
BRANCH  17  22
ATOM     22  O   UNL     1       4.835   7.198  17.447  0.00  0.00    +0.000 OA
ATOM     23  C   UNL     1       6.228   7.028  17.197  0.00  0.00    +0.000 C 
ENDBRANCH  17  22
ENDBRANCH   1  18
TORSDOF 4
ENDMDL
MODEL 6
REMARK VINA RESULT:      -7.1      0.901      1.635
REMARK  Name = 
REMARK  6 active torsions:
REMARK  status: ('A' for Active; 'I' for Inactive)
REMARK    1  A    between atoms: C_1  and  O_2
REMARK    2  A    between atoms: O_2  and  C_3
REMARK    3  A    between atoms: C_6  and  O_7
REMARK    4  A    between atoms: O_7  and  C_8
REMARK    5  A    between atoms: C_9  and  N_10
REMARK    6  A    between atoms: C_11  and  C_13
REMARK                            x       y       z     vdW  Elec       q    Type
REMARK                         _______ _______ _______ _____ _____    ______ ____
ROOT
ATOM      1  N   UNL     1       2.356   6.363  20.152  0.00  0.00    +0.000 N 
ATOM      2  C   UNL     1       2.101   7.495  19.399  0.00  0.00    +0.000 C 
ATOM      3  O   UNL     1       2.517   7.776  18.283  0.00  0.00    +0.000 OA
ATOM      4  H   UNL     1       2.146   6.446  21.138  0.00  0.00    +0.000 HD
ENDROOT
BRANCH   2   5
ATOM      5  C   UNL     1       1.364   8.563  20.142  0.00  0.00    +0.000 A 
ATOM      6  C   UNL     1       1.120   8.486  21.535  0.00  0.00    +0.000 A 
ATOM      7  C   UNL     1       0.647   9.600  22.236  0.00  0.00    +0.000 A 
ATOM      8  C   UNL     1       0.453  10.762  21.520  0.00  0.00    +0.000 A 
ATOM      9  C   UNL     1       0.616  10.812  20.153  0.00  0.00    +0.000 A 
ATOM     10  C   UNL     1       1.037   9.724  19.428  0.00  0.00    +0.000 A 
ATOM     11  O   UNL     1       0.420  12.066  19.659  0.00  0.00    +0.000 OA
ATOM     12  C   UNL     1       0.440  12.813  20.891  0.00  0.00    +0.000 C 
ATOM     13  O   UNL     1       0.159  11.985  22.041  0.00  0.00    +0.000 OA
ENDBRANCH   2   5
BRANCH   1  18
ATOM     14  C   UNL     1       5.292   4.404  19.072  0.00  0.00    +0.000 A 
ATOM     15  C   UNL     1       4.798   3.103  19.036  0.00  0.00    +0.000 A 
ATOM     16  C   UNL     1       3.478   2.842  19.394  0.00  0.00    +0.000 A 
ATOM     17  C   UNL     1       2.617   3.881  19.779  0.00  0.00    +0.000 A 
ATOM     18  C   UNL     1       3.100   5.201  19.811  0.00  0.00    +0.000 A 
ATOM     19  C   UNL     1       4.450   5.441  19.470  0.00  0.00    +0.000 A 
BRANCH  14  21
ATOM     20  C   UNL     1       7.266   5.738  18.991  0.00  0.00    +0.000 C 
ATOM     21  O   UNL     1       6.605   4.513  18.703  0.00  0.00    +0.000 OA
ENDBRANCH  14  21
BRANCH  17  22
ATOM     22  O   UNL     1       1.363   3.603  20.242  0.00  0.00    +0.000 OA
ATOM     23  C   UNL     1       1.304   2.805  21.422  0.00  0.00    +0.000 C 
ENDBRANCH  17  22
ENDBRANCH   1  18
TORSDOF 4
ENDMDL
MODEL 7
REMARK VINA RESULT:      -7.0      1.995      2.516
REMARK  Name = 
REMARK  6 active torsions:
REMARK  status: ('A' for Active; 'I' for Inactive)
REMARK    1  A    between atoms: C_1  and  O_2
REMARK    2  A    between atoms: O_2  and  C_3
REMARK    3  A    between atoms: C_6  and  O_7
REMARK    4  A    between atoms: O_7  and  C_8
REMARK    5  A    between atoms: C_9  and  N_10
REMARK    6  A    between atoms: C_11  and  C_13
REMARK                            x       y       z     vdW  Elec       q    Type
REMARK                         _______ _______ _______ _____ _____    ______ ____
ROOT
ATOM      1  N   UNL     1       2.500   6.828  18.624  0.00  0.00    +0.000 N 
ATOM      2  C   UNL     1       2.116   8.100  18.239  0.00  0.00    +0.000 C 
ATOM      3  O   UNL     1       2.399   8.702  17.212  0.00  0.00    +0.000 OA
ATOM      4  H   UNL     1       2.391   6.625  19.609  0.00  0.00    +0.000 HD
ENDROOT
BRANCH   2   5
ATOM      5  C   UNL     1       1.413   8.871  19.311  0.00  0.00    +0.000 A 
ATOM      6  C   UNL     1       1.367   8.428  20.655  0.00  0.00    +0.000 A 
ATOM      7  C   UNL     1       0.916   9.281  21.668  0.00  0.00    +0.000 A 
ATOM      8  C   UNL     1       0.545  10.557  21.302  0.00  0.00    +0.000 A 
ATOM      9  C   UNL     1       0.517  10.959  19.985  0.00  0.00    +0.000 A 
ATOM     10  C   UNL     1       0.910  10.132  18.961  0.00  0.00    +0.000 A 
ATOM     11  O   UNL     1       0.167  12.269  19.855  0.00  0.00    +0.000 OA
ATOM     12  C   UNL     1       0.301  12.687  21.227  0.00  0.00    +0.000 C 
ATOM     13  O   UNL     1       0.239  11.578  22.150  0.00  0.00    +0.000 OA
ENDBRANCH   2   5
BRANCH   1  18
ATOM     14  C   UNL     1       5.275   5.523  16.570  0.00  0.00    +0.000 A 
ATOM     15  C   UNL     1       4.925   4.187  16.393  0.00  0.00    +0.000 A 
ATOM     16  C   UNL     1       3.765   3.680  16.974  0.00  0.00    +0.000 A 
ATOM     17  C   UNL     1       2.919   4.505  17.731  0.00  0.00    +0.000 A 
ATOM     18  C   UNL     1       3.256   5.859  17.910  0.00  0.00    +0.000 A 
ATOM     19  C   UNL     1       4.451   6.346  17.335  0.00  0.00    +0.000 A 
BRANCH  14  21
ATOM     20  C   UNL     1       6.986   4.969  15.006  0.00  0.00    +0.000 C 
ATOM     21  O   UNL     1       6.440   5.881  15.950  0.00  0.00    +0.000 OA
ENDBRANCH  14  21
BRANCH  17  22
ATOM     22  O   UNL     1       1.851   3.974  18.396  0.00  0.00    +0.000 OA
ATOM     23  C   UNL     1       1.774   2.551  18.402  0.00  0.00    +0.000 C 
ENDBRANCH  17  22
ENDBRANCH   1  18
TORSDOF 4
ENDMDL
MODEL 8
REMARK VINA RESULT:      -7.0      3.298      8.213
REMARK  Name = 
REMARK  6 active torsions:
REMARK  status: ('A' for Active; 'I' for Inactive)
REMARK    1  A    between atoms: C_1  and  O_2
REMARK    2  A    between atoms: O_2  and  C_3
REMARK    3  A    between atoms: C_6  and  O_7
REMARK    4  A    between atoms: O_7  and  C_8
REMARK    5  A    between atoms: C_9  and  N_10
REMARK    6  A    between atoms: C_11  and  C_13
REMARK                            x       y       z     vdW  Elec       q    Type
REMARK                         _______ _______ _______ _____ _____    ______ ____
ROOT
ATOM      1  N   UNL     1       4.131   5.108  17.479  0.00  0.00    +0.000 N 
ATOM      2  C   UNL     1       5.484   4.821  17.440  0.00  0.00    +0.000 C 
ATOM      3  O   UNL     1       6.312   4.931  18.334  0.00  0.00    +0.000 OA
ATOM      4  H   UNL     1       3.687   5.211  16.577  0.00  0.00    +0.000 HD
ENDROOT
BRANCH   2   5
ATOM      5  C   UNL     1       5.996   4.506  16.070  0.00  0.00    +0.000 A 
ATOM      6  C   UNL     1       5.263   3.717  15.151  0.00  0.00    +0.000 A 
ATOM      7  C   UNL     1       5.653   3.643  13.809  0.00  0.00    +0.000 A 
ATOM      8  C   UNL     1       6.755   4.379  13.430  0.00  0.00    +0.000 A 
ATOM      9  C   UNL     1       7.511   5.083  14.341  0.00  0.00    +0.000 A 
ATOM     10  C   UNL     1       7.181   5.140  15.673  0.00  0.00    +0.000 A 
ATOM     11  O   UNL     1       8.521   5.774  13.743  0.00  0.00    +0.000 OA
ATOM     12  C   UNL     1       8.100   5.671  12.370  0.00  0.00    +0.000 C 
ATOM     13  O   UNL     1       7.191   4.569  12.153  0.00  0.00    +0.000 OA
ENDBRANCH   2   5
BRANCH   1  18
ATOM     14  C   UNL     1       2.295   4.802  20.667  0.00  0.00    +0.000 A 
ATOM     15  C   UNL     1       1.738   6.068  20.824  0.00  0.00    +0.000 A 
ATOM     16  C   UNL     1       1.981   7.066  19.883  0.00  0.00    +0.000 A 
ATOM     17  C   UNL     1       2.771   6.811  18.751  0.00  0.00    +0.000 A 
ATOM     18  C   UNL     1       3.332   5.533  18.575  0.00  0.00    +0.000 A 
ATOM     19  C   UNL     1       3.096   4.544  19.556  0.00  0.00    +0.000 A 
BRANCH  14  21
ATOM     20  C   UNL     1       1.617   2.603  21.291  0.00  0.00    +0.000 C 
ATOM     21  O   UNL     1       1.980   3.925  21.669  0.00  0.00    +0.000 OA
ENDBRANCH  14  21
BRANCH  17  22
ATOM     22  O   UNL     1       3.101   7.825  17.898  0.00  0.00    +0.000 OA
ATOM     23  C   UNL     1       2.166   8.897  17.823  0.00  0.00    +0.000 C 
ENDBRANCH  17  22
ENDBRANCH   1  18
TORSDOF 4
ENDMDL
MODEL 9
REMARK VINA RESULT:      -7.0      1.632      1.702
REMARK  Name = 
REMARK  6 active torsions:
REMARK  status: ('A' for Active; 'I' for Inactive)
REMARK    1  A    between atoms: C_1  and  O_2
REMARK    2  A    between atoms: O_2  and  C_3
REMARK    3  A    between atoms: C_6  and  O_7
REMARK    4  A    between atoms: O_7  and  C_8
REMARK    5  A    between atoms: C_9  and  N_10
REMARK    6  A    between atoms: C_11  and  C_13
REMARK                            x       y       z     vdW  Elec       q    Type
REMARK                         _______ _______ _______ _____ _____    ______ ____
ROOT
ATOM      1  N   UNL     1       2.437   7.033  18.813  0.00  0.00    +0.000 N 
ATOM      2  C   UNL     1       2.043   8.254  18.295  0.00  0.00    +0.000 C 
ATOM      3  O   UNL     1       2.242   8.705  17.175  0.00  0.00    +0.000 OA
ATOM      4  H   UNL     1       2.416   6.967  19.822  0.00  0.00    +0.000 HD
ENDROOT
BRANCH   2   5
ATOM      5  C   UNL     1       1.456   9.182  19.311  0.00  0.00    +0.000 A 
ATOM      6  C   UNL     1       0.776  10.369  18.948  0.00  0.00    +0.000 A 
ATOM      7  C   UNL     1       0.036  11.082  19.897  0.00  0.00    +0.000 A 
ATOM      8  C   UNL     1      -0.011  10.570  21.176  0.00  0.00    +0.000 A 
ATOM      9  C   UNL     1       0.714   9.459  21.545  0.00  0.00    +0.000 A 
ATOM     10  C   UNL     1       1.486   8.761  20.648  0.00  0.00    +0.000 A 
ATOM     11  O   UNL     1       0.482   9.100  22.838  0.00  0.00    +0.000 OA
ATOM     12  C   UNL     1      -0.683   9.905  23.102  0.00  0.00    +0.000 C 
ATOM     13  O   UNL     1      -0.801  11.019  22.191  0.00  0.00    +0.000 OA
ENDBRANCH   2   5
BRANCH   1  18
ATOM     14  C   UNL     1       5.215   5.275  17.134  0.00  0.00    +0.000 A 
ATOM     15  C   UNL     1       4.660   4.034  16.838  0.00  0.00    +0.000 A 
ATOM     16  C   UNL     1       3.350   3.741  17.212  0.00  0.00    +0.000 A 
ATOM     17  C   UNL     1       2.561   4.694  17.875  0.00  0.00    +0.000 A 
ATOM     18  C   UNL     1       3.107   5.955  18.172  0.00  0.00    +0.000 A 
ATOM     19  C   UNL     1       4.446   6.222  17.808  0.00  0.00    +0.000 A 
BRANCH  14  21
ATOM     20  C   UNL     1       6.918   4.672  15.579  0.00  0.00    +0.000 C 
ATOM     21  O   UNL     1       6.509   5.422  16.716  0.00  0.00    +0.000 OA
ENDBRANCH  14  21
BRANCH  17  22
ATOM     22  O   UNL     1       1.323   4.359  18.343  0.00  0.00    +0.000 OA
ATOM     23  C   UNL     1       1.303   3.627  19.566  0.00  0.00    +0.000 C 
ENDBRANCH  17  22
ENDBRANCH   1  18
TORSDOF 4
ENDMDL
