MODEL 1
REMARK VINA RESULT:      -7.8      0.000      0.000
REMARK  Name = 
REMARK  1 active torsions:
REMARK  status: ('A' for Active; 'I' for Inactive)
REMARK    1  A    between atoms: C_5  and  C_6
REMARK                            x       y       z     vdW  Elec       q    Type
REMARK                         _______ _______ _______ _____ _____    ______ ____
ROOT
ATOM      1  O   UNL     1       5.127   2.664  19.693  0.00  0.00    +0.000 OA
ATOM      2  C   UNL     1       4.112   3.263  19.345  0.00  0.00    +0.000 C 
ATOM      3  C   UNL     1       2.761   2.590  19.382  0.00  0.00    +0.000 C 
ATOM      4  S   UNL     1       1.530   3.806  18.892  0.00  0.00    +0.000 S 
ATOM      5  C   UNL     1       2.779   4.988  18.296  0.00  0.00    +0.000 C 
ATOM      6  N   UNL     1       4.052   4.551  18.833  0.00  0.00    +0.000 N 
ATOM      7  C   UNL     1       5.220   5.268  18.501  0.00  0.00    +0.000 A 
ATOM      8  C   UNL     1       6.307   5.279  19.372  0.00  0.00    +0.000 A 
ATOM      9  C   UNL     1       7.450   5.996  19.027  0.00  0.00    +0.000 A 
ATOM     10  C   UNL     1       7.491   6.660  17.810  0.00  0.00    +0.000 A 
ATOM     11  C   UNL     1       6.370   6.605  17.002  0.00  0.00    +0.000 A 
ATOM     12  N   UNL     1       5.232   5.951  17.331  0.00  0.00    +0.000 NA
ENDROOT
BRANCH   5  13
ATOM     13  C   UNL     1       2.415   6.416  18.686  0.00  0.00    +0.000 A 
ATOM     14  C   UNL     1       2.314   7.447  17.733  0.00  0.00    +0.000 A 
ATOM     15  C   UNL     1       1.906   8.732  18.112  0.00  0.00    +0.000 A 
ATOM     16  C   UNL     1       1.593   8.985  19.440  0.00  0.00    +0.000 A 
ATOM     17  F   UNL     1       1.177  10.208  19.799  0.00  0.00    +0.000 F 
ATOM     18  C   UNL     1       1.703   7.991  20.404  0.00  0.00    +0.000 A 
ATOM     19  C   UNL     1       2.113   6.710  20.029  0.00  0.00    +0.000 A 
ENDBRANCH   5  13
TORSDOF 1
ENDMDL
MODEL 2
REMARK VINA RESULT:      -7.5      0.229      1.131
REMARK  Name = 
REMARK  1 active torsions:
REMARK  status: ('A' for Active; 'I' for Inactive)
REMARK    1  A    between atoms: C_5  and  C_6
REMARK                            x       y       z     vdW  Elec       q    Type
REMARK                         _______ _______ _______ _____ _____    ______ ____
ROOT
ATOM      1  O   UNL     1       5.204   2.606  19.862  0.00  0.00    +0.000 OA
ATOM      2  C   UNL     1       4.169   3.150  19.483  0.00  0.00    +0.000 C 
ATOM      3  C   UNL     1       2.843   2.432  19.555  0.00  0.00    +0.000 C 
ATOM      4  S   UNL     1       1.571   3.578  19.003  0.00  0.00    +0.000 S 
ATOM      5  C   UNL     1       2.779   4.770  18.346  0.00  0.00    +0.000 C 
ATOM      6  N   UNL     1       4.065   4.406  18.905  0.00  0.00    +0.000 N 
ATOM      7  C   UNL     1       5.209   5.146  18.536  0.00  0.00    +0.000 A 
ATOM      8  C   UNL     1       6.292   5.241  19.405  0.00  0.00    +0.000 A 
ATOM      9  C   UNL     1       7.410   5.978  19.024  0.00  0.00    +0.000 A 
ATOM     10  C   UNL     1       7.430   6.579  17.774  0.00  0.00    +0.000 A 
ATOM     11  C   UNL     1       6.313   6.442  16.970  0.00  0.00    +0.000 A 
ATOM     12  N   UNL     1       5.198   5.767  17.332  0.00  0.00    +0.000 NA
ENDROOT
BRANCH   5  13
ATOM     13  C   UNL     1       2.365   6.203  18.661  0.00  0.00    +0.000 A 
ATOM     14  C   UNL     1       2.095   6.629  19.975  0.00  0.00    +0.000 A 
ATOM     15  C   UNL     1       1.787   7.970  20.242  0.00  0.00    +0.000 A 
ATOM     16  C   UNL     1       1.757   8.884  19.198  0.00  0.00    +0.000 A 
ATOM     17  F   UNL     1       1.489  10.172  19.456  0.00  0.00    +0.000 F 
ATOM     18  C   UNL     1       2.001   8.486  17.889  0.00  0.00    +0.000 A 
ATOM     19  C   UNL     1       2.303   7.150  17.621  0.00  0.00    +0.000 A 
ENDBRANCH   5  13
TORSDOF 1
ENDMDL
MODEL 3
REMARK VINA RESULT:      -7.5      3.234      5.457
REMARK  Name = 
REMARK  1 active torsions:
REMARK  status: ('A' for Active; 'I' for Inactive)
REMARK    1  A    between atoms: C_5  and  C_6
REMARK                            x       y       z     vdW  Elec       q    Type
REMARK                         _______ _______ _______ _____ _____    ______ ____
ROOT
ATOM      1  O   UNL     1       1.179   7.213  21.037  0.00  0.00    +0.000 OA
ATOM      2  C   UNL     1       1.815   7.209  19.985  0.00  0.00    +0.000 C 
ATOM      3  C   UNL     1       1.952   8.464  19.156  0.00  0.00    +0.000 C 
ATOM      4  S   UNL     1       3.017   8.081  17.758  0.00  0.00    +0.000 S 
ATOM      5  C   UNL     1       2.938   6.287  18.052  0.00  0.00    +0.000 C 
ATOM      6  N   UNL     1       2.417   6.110  19.392  0.00  0.00    +0.000 N 
ATOM      7  C   UNL     1       2.212   4.802  19.882  0.00  0.00    +0.000 A 
ATOM      8  C   UNL     1       2.273   4.549  21.249  0.00  0.00    +0.000 A 
ATOM      9  C   UNL     1       2.072   3.252  21.713  0.00  0.00    +0.000 A 
ATOM     10  C   UNL     1       1.785   2.245  20.803  0.00  0.00    +0.000 A 
ATOM     11  C   UNL     1       1.746   2.575  19.460  0.00  0.00    +0.000 A 
ATOM     12  N   UNL     1       1.980   3.819  18.980  0.00  0.00    +0.000 NA
ENDROOT
BRANCH   5  13
ATOM     13  C   UNL     1       4.301   5.635  17.841  0.00  0.00    +0.000 A 
ATOM     14  C   UNL     1       4.620   4.938  16.661  0.00  0.00    +0.000 A 
ATOM     15  C   UNL     1       5.904   4.413  16.466  0.00  0.00    +0.000 A 
ATOM     16  C   UNL     1       6.870   4.591  17.446  0.00  0.00    +0.000 A 
ATOM     17  F   UNL     1       8.106   4.113  17.249  0.00  0.00    +0.000 F 
ATOM     18  C   UNL     1       6.577   5.259  18.628  0.00  0.00    +0.000 A 
ATOM     19  C   UNL     1       5.296   5.779  18.826  0.00  0.00    +0.000 A 
ENDBRANCH   5  13
TORSDOF 1
ENDMDL
MODEL 4
REMARK VINA RESULT:      -7.2      3.213      5.488
REMARK  Name = 
REMARK  1 active torsions:
REMARK  status: ('A' for Active; 'I' for Inactive)
REMARK    1  A    between atoms: C_5  and  C_6
REMARK                            x       y       z     vdW  Elec       q    Type
REMARK                         _______ _______ _______ _____ _____    ______ ____
ROOT
ATOM      1  O   UNL     1       1.060   7.226  21.032  0.00  0.00    +0.000 OA
ATOM      2  C   UNL     1       1.709   7.282  19.989  0.00  0.00    +0.000 C 
ATOM      3  C   UNL     1       1.790   8.563  19.193  0.00  0.00    +0.000 C 
ATOM      4  S   UNL     1       2.892   8.274  17.802  0.00  0.00    +0.000 S 
ATOM      5  C   UNL     1       2.905   6.470  18.050  0.00  0.00    +0.000 C 
ATOM      6  N   UNL     1       2.376   6.232  19.377  0.00  0.00    +0.000 N 
ATOM      7  C   UNL     1       2.235   4.903  19.832  0.00  0.00    +0.000 A 
ATOM      8  C   UNL     1       2.291   4.619  21.193  0.00  0.00    +0.000 A 
ATOM      9  C   UNL     1       2.153   3.301  21.622  0.00  0.00    +0.000 A 
ATOM     10  C   UNL     1       1.933   2.305  20.683  0.00  0.00    +0.000 A 
ATOM     11  C   UNL     1       1.893   2.666  19.349  0.00  0.00    +0.000 A 
ATOM     12  N   UNL     1       2.067   3.932  18.903  0.00  0.00    +0.000 NA
ENDROOT
BRANCH   5  13
ATOM     13  C   UNL     1       4.302   5.897  17.842  0.00  0.00    +0.000 A 
ATOM     14  C   UNL     1       5.252   5.853  18.880  0.00  0.00    +0.000 A 
ATOM     15  C   UNL     1       6.502   5.254  18.679  0.00  0.00    +0.000 A 
ATOM     16  C   UNL     1       6.800   4.693  17.445  0.00  0.00    +0.000 A 
ATOM     17  F   UNL     1       7.986   4.096  17.260  0.00  0.00    +0.000 F 
ATOM     18  C   UNL     1       5.888   4.740  16.398  0.00  0.00    +0.000 A 
ATOM     19  C   UNL     1       4.643   5.340  16.596  0.00  0.00    +0.000 A 
ENDBRANCH   5  13
TORSDOF 1
ENDMDL
MODEL 5
REMARK VINA RESULT:      -7.1      2.208      4.045
REMARK  Name = 
REMARK  1 active torsions:
REMARK  status: ('A' for Active; 'I' for Inactive)
REMARK    1  A    between atoms: C_5  and  C_6
REMARK                            x       y       z     vdW  Elec       q    Type
REMARK                         _______ _______ _______ _____ _____    ______ ____
ROOT
ATOM      1  O   UNL     1       3.858   3.225  16.735  0.00  0.00    +0.000 OA
ATOM      2  C   UNL     1       4.026   4.398  17.062  0.00  0.00    +0.000 C 
ATOM      3  C   UNL     1       5.052   5.260  16.366  0.00  0.00    +0.000 C 
ATOM      4  S   UNL     1       4.935   6.916  17.057  0.00  0.00    +0.000 S 
ATOM      5  C   UNL     1       3.885   6.378  18.444  0.00  0.00    +0.000 C 
ATOM      6  N   UNL     1       3.390   5.061  18.101  0.00  0.00    +0.000 N 
ATOM      7  C   UNL     1       2.568   4.375  19.021  0.00  0.00    +0.000 A 
ATOM      8  C   UNL     1       1.640   3.441  18.570  0.00  0.00    +0.000 A 
ATOM      9  C   UNL     1       0.835   2.777  19.493  0.00  0.00    +0.000 A 
ATOM     10  C   UNL     1       0.999   3.041  20.845  0.00  0.00    +0.000 A 
ATOM     11  C   UNL     1       1.939   3.985  21.213  0.00  0.00    +0.000 A 
ATOM     12  N   UNL     1       2.704   4.675  20.335  0.00  0.00    +0.000 NA
ENDROOT
BRANCH   5  13
ATOM     13  C   UNL     1       2.778   7.389  18.719  0.00  0.00    +0.000 A 
ATOM     14  C   UNL     1       2.219   7.553  20.001  0.00  0.00    +0.000 A 
ATOM     15  C   UNL     1       1.254   8.541  20.238  0.00  0.00    +0.000 A 
ATOM     16  C   UNL     1       0.855   9.369  19.198  0.00  0.00    +0.000 A 
ATOM     17  F   UNL     1      -0.048  10.332  19.431  0.00  0.00    +0.000 F 
ATOM     18  C   UNL     1       1.377   9.217  17.920  0.00  0.00    +0.000 A 
ATOM     19  C   UNL     1       2.335   8.230  17.681  0.00  0.00    +0.000 A 
ENDBRANCH   5  13
TORSDOF 1
ENDMDL
MODEL 6
REMARK VINA RESULT:      -6.6      2.160      3.870
REMARK  Name = 
REMARK  1 active torsions:
REMARK  status: ('A' for Active; 'I' for Inactive)
REMARK    1  A    between atoms: C_5  and  C_6
REMARK                            x       y       z     vdW  Elec       q    Type
REMARK                         _______ _______ _______ _____ _____    ______ ____
ROOT
ATOM      1  O   UNL     1       3.897   3.076  16.714  0.00  0.00    +0.000 OA
ATOM      2  C   UNL     1       4.119   4.241  17.035  0.00  0.00    +0.000 C 
ATOM      3  C   UNL     1       5.195   5.045  16.344  0.00  0.00    +0.000 C 
ATOM      4  S   UNL     1       5.154   6.710  17.022  0.00  0.00    +0.000 S 
ATOM      5  C   UNL     1       4.063   6.237  18.400  0.00  0.00    +0.000 C 
ATOM      6  N   UNL     1       3.505   4.944  18.061  0.00  0.00    +0.000 N 
ATOM      7  C   UNL     1       2.639   4.308  18.976  0.00  0.00    +0.000 A 
ATOM      8  C   UNL     1       1.671   3.418  18.521  0.00  0.00    +0.000 A 
ATOM      9  C   UNL     1       0.823   2.803  19.439  0.00  0.00    +0.000 A 
ATOM     10  C   UNL     1       0.984   3.069  20.791  0.00  0.00    +0.000 A 
ATOM     11  C   UNL     1       1.967   3.968  21.163  0.00  0.00    +0.000 A 
ATOM     12  N   UNL     1       2.775   4.611  20.289  0.00  0.00    +0.000 NA
ENDROOT
BRANCH   5  13
ATOM     13  C   UNL     1       3.005   7.305  18.654  0.00  0.00    +0.000 A 
ATOM     14  C   UNL     1       2.547   8.160  17.634  0.00  0.00    +0.000 A 
ATOM     15  C   UNL     1       1.521   9.082  17.881  0.00  0.00    +0.000 A 
ATOM     16  C   UNL     1       0.949   9.144  19.144  0.00  0.00    +0.000 A 
ATOM     17  F   UNL     1      -0.050  10.007  19.374  0.00  0.00    +0.000 F 
ATOM     18  C   UNL     1       1.395   8.326  20.174  0.00  0.00    +0.000 A 
ATOM     19  C   UNL     1       2.419   7.409  19.930  0.00  0.00    +0.000 A 
ENDBRANCH   5  13
TORSDOF 1
ENDMDL
MODEL 7
REMARK VINA RESULT:      -6.4      2.047      3.977
REMARK  Name = 
REMARK  1 active torsions:
REMARK  status: ('A' for Active; 'I' for Inactive)
REMARK    1  A    between atoms: C_5  and  C_6
REMARK                            x       y       z     vdW  Elec       q    Type
REMARK                         _______ _______ _______ _____ _____    ______ ____
ROOT
ATOM      1  O   UNL     1       5.138   3.241  16.020  0.00  0.00    +0.000 OA
ATOM      2  C   UNL     1       5.179   4.336  16.577  0.00  0.00    +0.000 C 
ATOM      3  C   UNL     1       6.240   5.350  16.220  0.00  0.00    +0.000 C 
ATOM      4  S   UNL     1       5.915   6.840  17.174  0.00  0.00    +0.000 S 
ATOM      5  C   UNL     1       4.706   6.012  18.255  0.00  0.00    +0.000 C 
ATOM      6  N   UNL     1       4.353   4.767  17.604  0.00  0.00    +0.000 N 
ATOM      7  C   UNL     1       3.449   3.891  18.242  0.00  0.00    +0.000 A 
ATOM      8  C   UNL     1       2.661   3.027  17.487  0.00  0.00    +0.000 A 
ATOM      9  C   UNL     1       1.772   2.173  18.135  0.00  0.00    +0.000 A 
ATOM     10  C   UNL     1       1.714   2.181  19.520  0.00  0.00    +0.000 A 
ATOM     11  C   UNL     1       2.527   3.071  20.199  0.00  0.00    +0.000 A 
ATOM     12  N   UNL     1       3.368   3.941  19.593  0.00  0.00    +0.000 NA
ENDROOT
BRANCH   5  13
ATOM     13  C   UNL     1       3.508   6.913  18.530  0.00  0.00    +0.000 A 
ATOM     14  C   UNL     1       2.841   6.910  19.770  0.00  0.00    +0.000 A 
ATOM     15  C   UNL     1       1.789   7.801  20.017  0.00  0.00    +0.000 A 
ATOM     16  C   UNL     1       1.409   8.700  19.029  0.00  0.00    +0.000 A 
ATOM     17  F   UNL     1       0.420   9.571  19.275  0.00  0.00    +0.000 F 
ATOM     18  C   UNL     1       2.037   8.711  17.791  0.00  0.00    +0.000 A 
ATOM     19  C   UNL     1       3.083   7.821  17.542  0.00  0.00    +0.000 A 
ENDBRANCH   5  13
TORSDOF 1
ENDMDL
MODEL 8
REMARK VINA RESULT:      -6.3      2.187      2.799
REMARK  Name = 
REMARK  1 active torsions:
REMARK  status: ('A' for Active; 'I' for Inactive)
REMARK    1  A    between atoms: C_5  and  C_6
REMARK                            x       y       z     vdW  Elec       q    Type
REMARK                         _______ _______ _______ _____ _____    ______ ____
ROOT
ATOM      1  O   UNL     1       8.090   4.223  16.995  0.00  0.00    +0.000 OA
ATOM      2  C   UNL     1       6.905   4.492  16.811  0.00  0.00    +0.000 C 
ATOM      3  C   UNL     1       5.988   3.520  16.108  0.00  0.00    +0.000 C 
ATOM      4  S   UNL     1       4.334   4.227  16.112  0.00  0.00    +0.000 S 
ATOM      5  C   UNL     1       4.921   5.866  16.645  0.00  0.00    +0.000 C 
ATOM      6  N   UNL     1       6.272   5.682  17.137  0.00  0.00    +0.000 N 
ATOM      7  C   UNL     1       6.997   6.805  17.588  0.00  0.00    +0.000 A 
ATOM      8  C   UNL     1       7.994   6.655  18.548  0.00  0.00    +0.000 A 
ATOM      9  C   UNL     1       8.697   7.776  18.984  0.00  0.00    +0.000 A 
ATOM     10  C   UNL     1       8.407   9.013  18.428  0.00  0.00    +0.000 A 
ATOM     11  C   UNL     1       7.400   9.081  17.483  0.00  0.00    +0.000 A 
ATOM     12  N   UNL     1       6.674   8.015  17.073  0.00  0.00    +0.000 NA
ENDROOT
BRANCH   5  13
ATOM     13  C   UNL     1       3.980   6.478  17.676  0.00  0.00    +0.000 A 
ATOM     14  C   UNL     1       3.308   7.693  17.444  0.00  0.00    +0.000 A 
ATOM     15  C   UNL     1       2.393   8.193  18.380  0.00  0.00    +0.000 A 
ATOM     16  C   UNL     1       2.144   7.476  19.543  0.00  0.00    +0.000 A 
ATOM     17  F   UNL     1       1.249   7.940  20.426  0.00  0.00    +0.000 F 
ATOM     18  C   UNL     1       2.808   6.284  19.805  0.00  0.00    +0.000 A 
ATOM     19  C   UNL     1       3.723   5.787  18.875  0.00  0.00    +0.000 A 
ENDBRANCH   5  13
TORSDOF 1
ENDMDL
MODEL 9
REMARK VINA RESULT:      -6.0      3.197      4.598
REMARK  Name = 
REMARK  1 active torsions:
REMARK  status: ('A' for Active; 'I' for Inactive)
REMARK    1  A    between atoms: C_5  and  C_6
REMARK                            x       y       z     vdW  Elec       q    Type
REMARK                         _______ _______ _______ _____ _____    ______ ____
ROOT
ATOM      1  O   UNL     1       2.825   9.176  17.401  0.00  0.00    +0.000 OA
ATOM      2  C   UNL     1       2.462   8.454  18.328  0.00  0.00    +0.000 C 
ATOM      3  C   UNL     1       1.462   8.942  19.348  0.00  0.00    +0.000 C 
ATOM      4  S   UNL     1       1.123   7.583  20.475  0.00  0.00    +0.000 S 
ATOM      5  C   UNL     1       2.519   6.587  19.865  0.00  0.00    +0.000 C 
ATOM      6  N   UNL     1       2.931   7.179  18.608  0.00  0.00    +0.000 N 
ATOM      7  C   UNL     1       4.031   6.628  17.918  0.00  0.00    +0.000 A 
ATOM      8  C   UNL     1       4.119   6.746  16.533  0.00  0.00    +0.000 A 
ATOM      9  C   UNL     1       5.211   6.193  15.869  0.00  0.00    +0.000 A 
ATOM     10  C   UNL     1       6.202   5.562  16.607  0.00  0.00    +0.000 A 
ATOM     11  C   UNL     1       6.040   5.483  17.978  0.00  0.00    +0.000 A 
ATOM     12  N   UNL     1       4.969   5.974  18.643  0.00  0.00    +0.000 NA
ENDROOT
BRANCH   5  13
ATOM     13  C   UNL     1       2.135   5.117  19.745  0.00  0.00    +0.000 A 
ATOM     14  C   UNL     1       1.670   4.563  18.537  0.00  0.00    +0.000 A 
ATOM     15  C   UNL     1       1.394   3.193  18.439  0.00  0.00    +0.000 A 
ATOM     16  C   UNL     1       1.591   2.376  19.544  0.00  0.00    +0.000 A 
ATOM     17  F   UNL     1       1.353   1.061  19.443  0.00  0.00    +0.000 F 
ATOM     18  C   UNL     1       2.031   2.900  20.753  0.00  0.00    +0.000 A 
ATOM     19  C   UNL     1       2.302   4.266  20.854  0.00  0.00    +0.000 A 
ENDBRANCH   5  13
TORSDOF 1
ENDMDL
