MODEL 1
REMARK VINA RESULT:      -7.9      0.000      0.000
REMARK  Name = 
REMARK  4 active torsions:
REMARK  status: ('A' for Active; 'I' for Inactive)
REMARK    1  A    between atoms: C_2  and  C_21
REMARK    2  A    between atoms: N_3  and  C_4
REMARK    3  A    between atoms: C_6  and  N_7
REMARK    4  A    between atoms: C_8  and  C_10
REMARK                            x       y       z     vdW  Elec       q    Type
REMARK                         _______ _______ _______ _____ _____    ______ ____
ROOT
ATOM      1  C   UNL     1      -0.518  11.326  18.716  0.00  0.00    +0.000 A 
ATOM      2  C   UNL     1       0.032  10.075  18.397  0.00  0.00    +0.000 A 
ATOM      3  C   UNL     1       1.392   9.943  18.091  0.00  0.00    +0.000 A 
ATOM      4  C   UNL     1       2.216  11.068  18.181  0.00  0.00    +0.000 A 
ATOM      5  C   UNL     1       1.677  12.322  18.499  0.00  0.00    +0.000 A 
ATOM      6  C   UNL     1       0.309  12.453  18.739  0.00  0.00    +0.000 A 
ATOM      7 CL   UNL     1      -0.317  14.009  19.153  0.00  0.00    +0.000 Cl
ENDROOT
BRANCH   1  10
ATOM      8  O   UNL     1      -2.625  11.331  16.765  0.00  0.00    +0.000 OA
ATOM      9  C   UNL     1      -2.848  11.492  17.958  0.00  0.00    +0.000 C 
ATOM     10  N   UNL     1      -1.903  11.460  18.969  0.00  0.00    +0.000 N 
ATOM     11  H   UNL     1      -2.228  11.126  19.871  0.00  0.00    +0.000 HD
BRANCH   9  12
ATOM     12  C   UNL     1      -4.250  11.632  18.424  0.00  0.00    +0.000 A 
ATOM     13  C   UNL     1      -4.504  12.287  19.634  0.00  0.00    +0.000 A 
ATOM     14  C   UNL     1      -5.812  12.395  20.107  0.00  0.00    +0.000 A 
ATOM     15  C   UNL     1      -6.864  11.837  19.379  0.00  0.00    +0.000 A 
ATOM     16  C   UNL     1      -6.612  11.178  18.174  0.00  0.00    +0.000 A 
ATOM     17  C   UNL     1      -5.307  11.077  17.692  0.00  0.00    +0.000 A 
ENDBRANCH   9  12
ENDBRANCH   1  10
BRANCH   3  18
ATOM     18  N   UNL     1       1.982   8.716  17.698  0.00  0.00    +0.000 N 
ATOM     19  C   UNL     1       2.403   7.714  18.556  0.00  0.00    +0.000 C 
ATOM     20  O   UNL     1       2.225   7.713  19.772  0.00  0.00    +0.000 OA
ATOM     21  H   UNL     1       2.011   8.523  16.700  0.00  0.00    +0.000 HD
BRANCH  19  22
ATOM     22  C   UNL     1       3.072   6.516  17.969  0.00  0.00    +0.000 A 
ATOM     23  C   UNL     1       4.284   6.705  17.289  0.00  0.00    +0.000 A 
ATOM     24  C   UNL     1       4.960   5.630  16.711  0.00  0.00    +0.000 A 
ATOM     25  C   UNL     1       4.430   4.346  16.808  0.00  0.00    +0.000 A 
ATOM     26  C   UNL     1       3.226   4.141  17.481  0.00  0.00    +0.000 A 
ATOM     27  C   UNL     1       2.554   5.222  18.059  0.00  0.00    +0.000 A 
ATOM     28  F   UNL     1       1.404   4.978  18.707  0.00  0.00    +0.000 F 
ENDBRANCH  19  22
ENDBRANCH   3  18
TORSDOF 4
ENDMDL
MODEL 2
REMARK VINA RESULT:      -7.8      0.956      1.336
REMARK  Name = 
REMARK  4 active torsions:
REMARK  status: ('A' for Active; 'I' for Inactive)
REMARK    1  A    between atoms: C_2  and  C_21
REMARK    2  A    between atoms: N_3  and  C_4
REMARK    3  A    between atoms: C_6  and  N_7
REMARK    4  A    between atoms: C_8  and  C_10
REMARK                            x       y       z     vdW  Elec       q    Type
REMARK                         _______ _______ _______ _____ _____    ______ ____
ROOT
ATOM      1  C   UNL     1      -0.543  11.260  18.662  0.00  0.00    +0.000 A 
ATOM      2  C   UNL     1      -0.073   9.971  18.370  0.00  0.00    +0.000 A 
ATOM      3  C   UNL     1       1.283   9.741  18.109  0.00  0.00    +0.000 A 
ATOM      4  C   UNL     1       2.181  10.806  18.216  0.00  0.00    +0.000 A 
ATOM      5  C   UNL     1       1.722  12.099  18.505  0.00  0.00    +0.000 A 
ATOM      6  C   UNL     1       0.359  12.327  18.701  0.00  0.00    +0.000 A 
ATOM      7 CL   UNL     1      -0.168  13.928  19.082  0.00  0.00    +0.000 Cl
ENDROOT
BRANCH   1  10
ATOM      8  O   UNL     1      -2.589  11.356  16.647  0.00  0.00    +0.000 OA
ATOM      9  C   UNL     1      -2.834  11.563  17.830  0.00  0.00    +0.000 C 
ATOM     10  N   UNL     1      -1.923  11.494  18.869  0.00  0.00    +0.000 N 
ATOM     11  H   UNL     1      -2.295  11.206  19.768  0.00  0.00    +0.000 HD
BRANCH   9  12
ATOM     12  C   UNL     1      -4.237  11.809  18.249  0.00  0.00    +0.000 A 
ATOM     13  C   UNL     1      -4.505  12.094  19.592  0.00  0.00    +0.000 A 
ATOM     14  C   UNL     1      -5.821  12.290  20.012  0.00  0.00    +0.000 A 
ATOM     15  C   UNL     1      -6.868  12.189  19.095  0.00  0.00    +0.000 A 
ATOM     16  C   UNL     1      -6.602  11.899  17.755  0.00  0.00    +0.000 A 
ATOM     17  C   UNL     1      -5.287  11.712  17.328  0.00  0.00    +0.000 A 
ENDBRANCH   9  12
ENDBRANCH   1  10
BRANCH   3  18
ATOM     18  N   UNL     1       1.797   8.472  17.746  0.00  0.00    +0.000 N 
ATOM     19  C   UNL     1       2.298   7.524  18.623  0.00  0.00    +0.000 C 
ATOM     20  O   UNL     1       2.267   7.619  19.848  0.00  0.00    +0.000 OA
ATOM     21  H   UNL     1       1.703   8.204  16.769  0.00  0.00    +0.000 HD
BRANCH  19  22
ATOM     22  C   UNL     1       2.868   6.268  18.056  0.00  0.00    +0.000 A 
ATOM     23  C   UNL     1       2.069   5.115  18.073  0.00  0.00    +0.000 A 
ATOM     24  C   UNL     1       2.542   3.904  17.565  0.00  0.00    +0.000 A 
ATOM     25  C   UNL     1       3.825   3.831  17.030  0.00  0.00    +0.000 A 
ATOM     26  C   UNL     1       4.632   4.968  17.005  0.00  0.00    +0.000 A 
ATOM     27  C   UNL     1       4.152   6.179  17.515  0.00  0.00    +0.000 A 
ATOM     28  F   UNL     1       4.960   7.250  17.461  0.00  0.00    +0.000 F 
ENDBRANCH  19  22
ENDBRANCH   3  18
TORSDOF 4
ENDMDL
MODEL 3
REMARK VINA RESULT:      -7.7      4.695      9.966
REMARK  Name = 
REMARK  4 active torsions:
REMARK  status: ('A' for Active; 'I' for Inactive)
REMARK    1  A    between atoms: C_2  and  C_21
REMARK    2  A    between atoms: N_3  and  C_4
REMARK    3  A    between atoms: C_6  and  N_7
REMARK    4  A    between atoms: C_8  and  C_10
REMARK                            x       y       z     vdW  Elec       q    Type
REMARK                         _______ _______ _______ _____ _____    ______ ____
ROOT
ATOM      1  C   UNL     1       3.192   4.125  18.524  0.00  0.00    +0.000 A 
ATOM      2  C   UNL     1       2.620   5.296  19.043  0.00  0.00    +0.000 A 
ATOM      3  C   UNL     1       1.863   5.268  20.221  0.00  0.00    +0.000 A 
ATOM      4  C   UNL     1       1.746   4.062  20.918  0.00  0.00    +0.000 A 
ATOM      5  C   UNL     1       2.313   2.886  20.408  0.00  0.00    +0.000 A 
ATOM      6  C   UNL     1       3.011   2.915  19.200  0.00  0.00    +0.000 A 
ATOM      7 CL   UNL     1       3.718   1.452  18.614  0.00  0.00    +0.000 Cl
ENDROOT
BRANCH   1  10
ATOM      8  O   UNL     1       6.009   4.578  18.198  0.00  0.00    +0.000 OA
ATOM      9  C   UNL     1       5.264   4.420  17.239  0.00  0.00    +0.000 C 
ATOM     10  N   UNL     1       3.907   4.153  17.304  0.00  0.00    +0.000 N 
ATOM     11  H   UNL     1       3.529   3.589  16.551  0.00  0.00    +0.000 HD
BRANCH   9  12
ATOM     12  C   UNL     1       5.836   4.397  15.870  0.00  0.00    +0.000 A 
ATOM     13  C   UNL     1       7.007   5.117  15.610  0.00  0.00    +0.000 A 
ATOM     14  C   UNL     1       7.539   5.140  14.321  0.00  0.00    +0.000 A 
ATOM     15  C   UNL     1       6.894   4.456  13.288  0.00  0.00    +0.000 A 
ATOM     16  C   UNL     1       5.722   3.742  13.545  0.00  0.00    +0.000 A 
ATOM     17  C   UNL     1       5.192   3.708  14.835  0.00  0.00    +0.000 A 
ENDBRANCH   9  12
ENDBRANCH   1  10
BRANCH   3  18
ATOM     18  N   UNL     1       1.210   6.408  20.750  0.00  0.00    +0.000 N 
ATOM     19  C   UNL     1       1.442   7.719  20.368  0.00  0.00    +0.000 C 
ATOM     20  O   UNL     1       2.175   8.058  19.440  0.00  0.00    +0.000 OA
ATOM     21  H   UNL     1       0.445   6.237  21.398  0.00  0.00    +0.000 HD
BRANCH  19  22
ATOM     22  C   UNL     1       0.714   8.804  21.086  0.00  0.00    +0.000 A 
ATOM     23  C   UNL     1       0.696   8.770  22.488  0.00  0.00    +0.000 A 
ATOM     24  C   UNL     1       0.028   9.750  23.224  0.00  0.00    +0.000 A 
ATOM     25  C   UNL     1      -0.632  10.783  22.562  0.00  0.00    +0.000 A 
ATOM     26  C   UNL     1      -0.622  10.832  21.169  0.00  0.00    +0.000 A 
ATOM     27  C   UNL     1       0.050   9.848  20.438  0.00  0.00    +0.000 A 
ATOM     28  F   UNL     1       0.041   9.940  19.099  0.00  0.00    +0.000 F 
ENDBRANCH  19  22
ENDBRANCH   3  18
TORSDOF 4
ENDMDL
MODEL 4
REMARK VINA RESULT:      -7.7      4.756      7.086
REMARK  Name = 
REMARK  4 active torsions:
REMARK  status: ('A' for Active; 'I' for Inactive)
REMARK    1  A    between atoms: C_2  and  C_21
REMARK    2  A    between atoms: N_3  and  C_4
REMARK    3  A    between atoms: C_6  and  N_7
REMARK    4  A    between atoms: C_8  and  C_10
REMARK                            x       y       z     vdW  Elec       q    Type
REMARK                         _______ _______ _______ _____ _____    ______ ____
ROOT
ATOM      1  C   UNL     1       2.795   4.972  19.475  0.00  0.00    +0.000 A 
ATOM      2  C   UNL     1       3.318   5.021  18.174  0.00  0.00    +0.000 A 
ATOM      3  C   UNL     1       3.900   3.891  17.588  0.00  0.00    +0.000 A 
ATOM      4  C   UNL     1       3.888   2.684  18.293  0.00  0.00    +0.000 A 
ATOM      5  C   UNL     1       3.370   2.624  19.594  0.00  0.00    +0.000 A 
ATOM      6  C   UNL     1       2.849   3.772  20.191  0.00  0.00    +0.000 A 
ATOM      7 CL   UNL     1       2.195   3.656  21.786  0.00  0.00    +0.000 Cl
ENDROOT
BRANCH   1  10
ATOM      8  O   UNL     1       2.270   7.488  18.194  0.00  0.00    +0.000 OA
ATOM      9  C   UNL     1       2.077   7.319  19.391  0.00  0.00    +0.000 C 
ATOM     10  N   UNL     1       2.259   6.132  20.081  0.00  0.00    +0.000 N 
ATOM     11  H   UNL     1       1.645   5.980  20.874  0.00  0.00    +0.000 HD
BRANCH   9  12
ATOM     12  C   UNL     1       1.495   8.422  20.197  0.00  0.00    +0.000 A 
ATOM     13  C   UNL     1       1.387   8.268  21.583  0.00  0.00    +0.000 A 
ATOM     14  C   UNL     1       0.808   9.277  22.353  0.00  0.00    +0.000 A 
ATOM     15  C   UNL     1       0.326  10.434  21.737  0.00  0.00    +0.000 A 
ATOM     16  C   UNL     1       0.429  10.586  20.353  0.00  0.00    +0.000 A 
ATOM     17  C   UNL     1       1.016   9.584  19.580  0.00  0.00    +0.000 A 
ENDBRANCH   9  12
ENDBRANCH   1  10
BRANCH   3  18
ATOM     18  N   UNL     1       4.500   3.906  16.305  0.00  0.00    +0.000 N 
ATOM     19  C   UNL     1       5.828   4.199  16.040  0.00  0.00    +0.000 C 
ATOM     20  O   UNL     1       6.688   4.384  16.898  0.00  0.00    +0.000 OA
ATOM     21  H   UNL     1       3.926   3.585  15.529  0.00  0.00    +0.000 HD
BRANCH  19  22
ATOM     22  C   UNL     1       6.272   4.240  14.616  0.00  0.00    +0.000 A 
ATOM     23  C   UNL     1       5.599   3.427  13.692  0.00  0.00    +0.000 A 
ATOM     24  C   UNL     1       5.966   3.411  12.346  0.00  0.00    +0.000 A 
ATOM     25  C   UNL     1       7.016   4.214  11.905  0.00  0.00    +0.000 A 
ATOM     26  C   UNL     1       7.694   5.028  12.811  0.00  0.00    +0.000 A 
ATOM     27  C   UNL     1       7.321   5.040  14.159  0.00  0.00    +0.000 A 
ATOM     28  F   UNL     1       7.995   5.846  14.993  0.00  0.00    +0.000 F 
ENDBRANCH  19  22
ENDBRANCH   3  18
TORSDOF 4
ENDMDL
MODEL 5
REMARK VINA RESULT:      -7.6      2.346      2.968
REMARK  Name = 
REMARK  4 active torsions:
REMARK  status: ('A' for Active; 'I' for Inactive)
REMARK    1  A    between atoms: C_2  and  C_21
REMARK    2  A    between atoms: N_3  and  C_4
REMARK    3  A    between atoms: C_6  and  N_7
REMARK    4  A    between atoms: C_8  and  C_10
REMARK                            x       y       z     vdW  Elec       q    Type
REMARK                         _______ _______ _______ _____ _____    ______ ____
ROOT
ATOM      1  C   UNL     1       0.190  11.416  19.310  0.00  0.00    +0.000 A 
ATOM      2  C   UNL     1       0.504  10.082  19.011  0.00  0.00    +0.000 A 
ATOM      3  C   UNL     1       1.637   9.760  18.254  0.00  0.00    +0.000 A 
ATOM      4  C   UNL     1       2.499  10.787  17.860  0.00  0.00    +0.000 A 
ATOM      5  C   UNL     1       2.194  12.124  18.151  0.00  0.00    +0.000 A 
ATOM      6  C   UNL     1       1.029  12.437  18.852  0.00  0.00    +0.000 A 
ATOM      7 CL   UNL     1       0.699  14.093  19.217  0.00  0.00    +0.000 Cl
ENDROOT
BRANCH   1  10
ATOM      8  O   UNL     1      -0.026  11.857  22.140  0.00  0.00    +0.000 OA
ATOM      9  C   UNL     1      -1.003  11.893  21.402  0.00  0.00    +0.000 C 
ATOM     10  N   UNL     1      -0.986  11.737  20.027  0.00  0.00    +0.000 N 
ATOM     11  H   UNL     1      -1.699  12.243  19.513  0.00  0.00    +0.000 HD
BRANCH   9  12
ATOM     12  C   UNL     1      -2.331  12.234  21.971  0.00  0.00    +0.000 A 
ATOM     13  C   UNL     1      -3.318  12.757  21.129  0.00  0.00    +0.000 A 
ATOM     14  C   UNL     1      -4.559  13.120  21.653  0.00  0.00    +0.000 A 
ATOM     15  C   UNL     1      -4.810  12.974  23.018  0.00  0.00    +0.000 A 
ATOM     16  C   UNL     1      -3.823  12.457  23.861  0.00  0.00    +0.000 A 
ATOM     17  C   UNL     1      -2.584  12.083  23.340  0.00  0.00    +0.000 A 
ENDBRANCH   9  12
ENDBRANCH   1  10
BRANCH   3  18
ATOM     18  N   UNL     1       1.961   8.435  17.871  0.00  0.00    +0.000 N 
ATOM     19  C   UNL     1       2.336   7.416  18.730  0.00  0.00    +0.000 C 
ATOM     20  O   UNL     1       2.336   7.500  19.957  0.00  0.00    +0.000 OA
ATOM     21  H   UNL     1       1.817   8.195  16.893  0.00  0.00    +0.000 HD
BRANCH  19  22
ATOM     22  C   UNL     1       2.714   6.099  18.143  0.00  0.00    +0.000 A 
ATOM     23  C   UNL     1       1.755   5.075  18.146  0.00  0.00    +0.000 A 
ATOM     24  C   UNL     1       2.045   3.816  17.618  0.00  0.00    +0.000 A 
ATOM     25  C   UNL     1       3.303   3.564  17.076  0.00  0.00    +0.000 A 
ATOM     26  C   UNL     1       4.267   4.571  17.064  0.00  0.00    +0.000 A 
ATOM     27  C   UNL     1       3.971   5.831  17.594  0.00  0.00    +0.000 A 
ATOM     28  F   UNL     1       4.926   6.774  17.552  0.00  0.00    +0.000 F 
ENDBRANCH  19  22
ENDBRANCH   3  18
TORSDOF 4
ENDMDL
MODEL 6
REMARK VINA RESULT:      -7.5      4.763      7.128
REMARK  Name = 
REMARK  4 active torsions:
REMARK  status: ('A' for Active; 'I' for Inactive)
REMARK    1  A    between atoms: C_2  and  C_21
REMARK    2  A    between atoms: N_3  and  C_4
REMARK    3  A    between atoms: C_6  and  N_7
REMARK    4  A    between atoms: C_8  and  C_10
REMARK                            x       y       z     vdW  Elec       q    Type
REMARK                         _______ _______ _______ _____ _____    ______ ____
ROOT
ATOM      1  C   UNL     1       2.658   4.717  19.381  0.00  0.00    +0.000 A 
ATOM      2  C   UNL     1       3.295   4.713  18.131  0.00  0.00    +0.000 A 
ATOM      3  C   UNL     1       3.960   3.573  17.664  0.00  0.00    +0.000 A 
ATOM      4  C   UNL     1       3.918   2.406  18.432  0.00  0.00    +0.000 A 
ATOM      5  C   UNL     1       3.285   2.399  19.683  0.00  0.00    +0.000 A 
ATOM      6  C   UNL     1       2.681   3.560  20.165  0.00  0.00    +0.000 A 
ATOM      7 CL   UNL     1       1.887   3.508  21.700  0.00  0.00    +0.000 Cl
ENDROOT
BRANCH   1  10
ATOM      8  O   UNL     1       3.063   7.396  18.428  0.00  0.00    +0.000 OA
ATOM      9  C   UNL     1       2.324   7.150  19.374  0.00  0.00    +0.000 C 
ATOM     10  N   UNL     1       2.037   5.890  19.869  0.00  0.00    +0.000 N 
ATOM     11  H   UNL     1       1.115   5.772  20.275  0.00  0.00    +0.000 HD
BRANCH   9  12
ATOM     12  C   UNL     1       1.565   8.255  20.010  0.00  0.00    +0.000 A 
ATOM     13  C   UNL     1       1.219   9.373  19.243  0.00  0.00    +0.000 A 
ATOM     14  C   UNL     1       0.540  10.439  19.832  0.00  0.00    +0.000 A 
ATOM     15  C   UNL     1       0.218  10.395  21.190  0.00  0.00    +0.000 A 
ATOM     16  C   UNL     1       0.568   9.283  21.958  0.00  0.00    +0.000 A 
ATOM     17  C   UNL     1       1.239   8.210  21.371  0.00  0.00    +0.000 A 
ENDBRANCH   9  12
ENDBRANCH   1  10
BRANCH   3  18
ATOM     18  N   UNL     1       4.674   3.538  16.441  0.00  0.00    +0.000 N 
ATOM     19  C   UNL     1       5.164   4.642  15.763  0.00  0.00    +0.000 C 
ATOM     20  O   UNL     1       5.135   5.795  16.189  0.00  0.00    +0.000 OA
ATOM     21  H   UNL     1       4.922   2.619  16.083  0.00  0.00    +0.000 HD
BRANCH  19  22
ATOM     22  C   UNL     1       5.830   4.424  14.446  0.00  0.00    +0.000 A 
ATOM     23  C   UNL     1       5.164   3.640  13.493  0.00  0.00    +0.000 A 
ATOM     24  C   UNL     1       5.732   3.390  12.242  0.00  0.00    +0.000 A 
ATOM     25  C   UNL     1       6.978   3.927  11.928  0.00  0.00    +0.000 A 
ATOM     26  C   UNL     1       7.652   4.710  12.864  0.00  0.00    +0.000 A 
ATOM     27  C   UNL     1       7.078   4.957  14.115  0.00  0.00    +0.000 A 
ATOM     28  F   UNL     1       7.757   5.725  14.982  0.00  0.00    +0.000 F 
ENDBRANCH  19  22
ENDBRANCH   3  18
TORSDOF 4
ENDMDL
MODEL 7
REMARK VINA RESULT:      -7.5      4.425      9.914
REMARK  Name = 
REMARK  4 active torsions:
REMARK  status: ('A' for Active; 'I' for Inactive)
REMARK    1  A    between atoms: C_2  and  C_21
REMARK    2  A    between atoms: N_3  and  C_4
REMARK    3  A    between atoms: C_6  and  N_7
REMARK    4  A    between atoms: C_8  and  C_10
REMARK                            x       y       z     vdW  Elec       q    Type
REMARK                         _______ _______ _______ _____ _____    ______ ____
ROOT
ATOM      1  C   UNL     1       3.696   5.068  17.543  0.00  0.00    +0.000 A 
ATOM      2  C   UNL     1       3.297   6.356  17.930  0.00  0.00    +0.000 A 
ATOM      3  C   UNL     1       2.623   6.569  19.139  0.00  0.00    +0.000 A 
ATOM      4  C   UNL     1       2.417   5.484  19.996  0.00  0.00    +0.000 A 
ATOM      5  C   UNL     1       2.811   4.193  19.618  0.00  0.00    +0.000 A 
ATOM      6  C   UNL     1       3.424   3.984  18.383  0.00  0.00    +0.000 A 
ATOM      7 CL   UNL     1       3.920   2.384  17.961  0.00  0.00    +0.000 Cl
ENDROOT
BRANCH   1  10
ATOM      8  O   UNL     1       6.514   5.194  17.000  0.00  0.00    +0.000 OA
ATOM      9  C   UNL     1       5.693   4.976  16.117  0.00  0.00    +0.000 C 
ATOM     10  N   UNL     1       4.326   4.854  16.295  0.00  0.00    +0.000 N 
ATOM     11  H   UNL     1       3.848   4.230  15.653  0.00  0.00    +0.000 HD
BRANCH   9  12
ATOM     12  C   UNL     1       6.166   4.706  14.736  0.00  0.00    +0.000 A 
ATOM     13  C   UNL     1       5.456   3.803  13.938  0.00  0.00    +0.000 A 
ATOM     14  C   UNL     1       5.907   3.507  12.651  0.00  0.00    +0.000 A 
ATOM     15  C   UNL     1       7.073   4.102  12.167  0.00  0.00    +0.000 A 
ATOM     16  C   UNL     1       7.787   4.999  12.965  0.00  0.00    +0.000 A 
ATOM     17  C   UNL     1       7.334   5.305  14.249  0.00  0.00    +0.000 A 
ENDBRANCH   9  12
ENDBRANCH   1  10
BRANCH   3  18
ATOM     18  N   UNL     1       2.142   7.838  19.544  0.00  0.00    +0.000 N 
ATOM     19  C   UNL     1       1.606   8.802  18.706  0.00  0.00    +0.000 C 
ATOM     20  O   UNL     1       1.382   8.641  17.508  0.00  0.00    +0.000 OA
ATOM     21  H   UNL     1       2.104   8.013  20.546  0.00  0.00    +0.000 HD
BRANCH  19  22
ATOM     22  C   UNL     1       1.216  10.115  19.297  0.00  0.00    +0.000 A 
ATOM     23  C   UNL     1       1.695  11.282  18.685  0.00  0.00    +0.000 A 
ATOM     24  C   UNL     1       1.374  12.543  19.189  0.00  0.00    +0.000 A 
ATOM     25  C   UNL     1       0.565  12.653  20.317  0.00  0.00    +0.000 A 
ATOM     26  C   UNL     1       0.080  11.502  20.937  0.00  0.00    +0.000 A 
ATOM     27  C   UNL     1       0.404  10.241  20.427  0.00  0.00    +0.000 A 
ATOM     28  F   UNL     1      -0.093   9.161  21.050  0.00  0.00    +0.000 F 
ENDBRANCH  19  22
ENDBRANCH   3  18
TORSDOF 4
ENDMDL
MODEL 8
REMARK VINA RESULT:      -7.5      4.131      9.900
REMARK  Name = 
REMARK  4 active torsions:
REMARK  status: ('A' for Active; 'I' for Inactive)
REMARK    1  A    between atoms: C_2  and  C_21
REMARK    2  A    between atoms: N_3  and  C_4
REMARK    3  A    between atoms: C_6  and  N_7
REMARK    4  A    between atoms: C_8  and  C_10
REMARK                            x       y       z     vdW  Elec       q    Type
REMARK                         _______ _______ _______ _____ _____    ______ ____
ROOT
ATOM      1  C   UNL     1       3.734   5.302  17.666  0.00  0.00    +0.000 A 
ATOM      2  C   UNL     1       3.183   6.575  17.879  0.00  0.00    +0.000 A 
ATOM      3  C   UNL     1       2.534   6.887  19.080  0.00  0.00    +0.000 A 
ATOM      4  C   UNL     1       2.507   5.932  20.100  0.00  0.00    +0.000 A 
ATOM      5  C   UNL     1       3.053   4.657  19.897  0.00  0.00    +0.000 A 
ATOM      6  C   UNL     1       3.641   4.337  18.673  0.00  0.00    +0.000 A 
ATOM      7 CL   UNL     1       4.327   2.764  18.467  0.00  0.00    +0.000 Cl
ENDROOT
BRANCH   1  10
ATOM      8  O   UNL     1       6.410   5.944  16.843  0.00  0.00    +0.000 OA
ATOM      9  C   UNL     1       5.626   5.364  16.101  0.00  0.00    +0.000 C 
ATOM     10  N   UNL     1       4.338   4.977  16.429  0.00  0.00    +0.000 N 
ATOM     11  H   UNL     1       3.995   4.139  15.970  0.00  0.00    +0.000 HD
BRANCH   9  12
ATOM     12  C   UNL     1       6.085   4.922  14.761  0.00  0.00    +0.000 A 
ATOM     13  C   UNL     1       5.312   4.000  14.046  0.00  0.00    +0.000 A 
ATOM     14  C   UNL     1       5.746   3.543  12.802  0.00  0.00    +0.000 A 
ATOM     15  C   UNL     1       6.958   3.996  12.277  0.00  0.00    +0.000 A 
ATOM     16  C   UNL     1       7.733   4.912  12.992  0.00  0.00    +0.000 A 
ATOM     17  C   UNL     1       7.298   5.379  14.232  0.00  0.00    +0.000 A 
ENDBRANCH   9  12
ENDBRANCH   1  10
BRANCH   3  18
ATOM     18  N   UNL     1       1.905   8.133  19.319  0.00  0.00    +0.000 N 
ATOM     19  C   UNL     1       1.748   9.148  18.389  0.00  0.00    +0.000 C 
ATOM     20  O   UNL     1       2.043   9.058  17.199  0.00  0.00    +0.000 OA
ATOM     21  H   UNL     1       1.453   8.251  20.222  0.00  0.00    +0.000 HD
BRANCH  19  22
ATOM     22  C   UNL     1       1.124  10.427  18.836  0.00  0.00    +0.000 A 
ATOM     23  C   UNL     1      -0.095  10.359  19.528  0.00  0.00    +0.000 A 
ATOM     24  C   UNL     1      -0.737  11.517  19.970  0.00  0.00    +0.000 A 
ATOM     25  C   UNL     1      -0.164  12.763  19.725  0.00  0.00    +0.000 A 
ATOM     26  C   UNL     1       1.048  12.847  19.040  0.00  0.00    +0.000 A 
ATOM     27  C   UNL     1       1.687  11.683  18.601  0.00  0.00    +0.000 A 
ATOM     28  F   UNL     1       2.856  11.810  17.954  0.00  0.00    +0.000 F 
ENDBRANCH  19  22
ENDBRANCH   3  18
TORSDOF 4
ENDMDL
MODEL 9
REMARK VINA RESULT:      -7.3      3.420      4.233
REMARK  Name = 
REMARK  4 active torsions:
REMARK  status: ('A' for Active; 'I' for Inactive)
REMARK    1  A    between atoms: C_2  and  C_21
REMARK    2  A    between atoms: N_3  and  C_4
REMARK    3  A    between atoms: C_6  and  N_7
REMARK    4  A    between atoms: C_8  and  C_10
REMARK                            x       y       z     vdW  Elec       q    Type
REMARK                         _______ _______ _______ _____ _____    ______ ____
ROOT
ATOM      1  C   UNL     1       0.241  10.195  20.341  0.00  0.00    +0.000 A 
ATOM      2  C   UNL     1       0.799   8.970  20.735  0.00  0.00    +0.000 A 
ATOM      3  C   UNL     1       1.610   8.234  19.863  0.00  0.00    +0.000 A 
ATOM      4  C   UNL     1       1.920   8.774  18.612  0.00  0.00    +0.000 A 
ATOM      5  C   UNL     1       1.367   9.997  18.207  0.00  0.00    +0.000 A 
ATOM      6  C   UNL     1       0.509  10.691  19.061  0.00  0.00    +0.000 A 
ATOM      7 CL   UNL     1      -0.134  12.208  18.540  0.00  0.00    +0.000 Cl
ENDROOT
BRANCH   1  10
ATOM      8  O   UNL     1       0.866  12.588  21.801  0.00  0.00    +0.000 OA
ATOM      9  C   UNL     1      -0.221  12.032  21.904  0.00  0.00    +0.000 C 
ATOM     10  N   UNL     1      -0.622  10.905  21.207  0.00  0.00    +0.000 N 
ATOM     11  H   UNL     1      -1.614  10.838  21.004  0.00  0.00    +0.000 HD
BRANCH   9  12
ATOM     12  C   UNL     1      -1.271  12.641  22.757  0.00  0.00    +0.000 A 
ATOM     13  C   UNL     1      -2.448  11.926  23.003  0.00  0.00    +0.000 A 
ATOM     14  C   UNL     1      -3.463  12.497  23.771  0.00  0.00    +0.000 A 
ATOM     15  C   UNL     1      -3.309  13.787  24.282  0.00  0.00    +0.000 A 
ATOM     16  C   UNL     1      -2.137  14.505  24.032  0.00  0.00    +0.000 A 
ATOM     17  C   UNL     1      -1.115  13.934  23.273  0.00  0.00    +0.000 A 
ENDBRANCH   9  12
ENDBRANCH   1  10
BRANCH   3  18
ATOM     18  N   UNL     1       2.143   6.962  20.188  0.00  0.00    +0.000 N 
ATOM     19  C   UNL     1       2.297   5.904  19.309  0.00  0.00    +0.000 C 
ATOM     20  O   UNL     1       2.086   5.963  18.099  0.00  0.00    +0.000 OA
ATOM     21  H   UNL     1       2.527   6.854  21.124  0.00  0.00    +0.000 HD
BRANCH  19  22
ATOM     22  C   UNL     1       2.809   4.609  19.843  0.00  0.00    +0.000 A 
ATOM     23  C   UNL     1       2.130   4.028  20.925  0.00  0.00    +0.000 A 
ATOM     24  C   UNL     1       2.559   2.820  21.478  0.00  0.00    +0.000 A 
ATOM     25  C   UNL     1       3.676   2.175  20.953  0.00  0.00    +0.000 A 
ATOM     26  C   UNL     1       4.361   2.739  19.877  0.00  0.00    +0.000 A 
ATOM     27  C   UNL     1       3.926   3.949  19.326  0.00  0.00    +0.000 A 
ATOM     28  F   UNL     1       4.609   4.450  18.285  0.00  0.00    +0.000 F 
ENDBRANCH  19  22
ENDBRANCH   3  18
TORSDOF 4
ENDMDL
