MODEL 1
REMARK VINA RESULT:      -7.3      0.000      0.000
REMARK  Name = 
REMARK  14 active torsions:
REMARK  status: ('A' for Active; 'I' for Inactive)
REMARK    1  A    between atoms: C_1  and  C_2
REMARK    2  A    between atoms: C_2  and  C_16
REMARK    3  A    between atoms: C_3  and  C_4
REMARK    4  A    between atoms: C_4  and  C_5
REMARK    5  A    between atoms: C_5  and  C_6
REMARK    6  A    between atoms: C_6  and  C_7
REMARK    7  A    between atoms: C_8  and  C_9
REMARK    8  A    between atoms: C_9  and  C_10
REMARK    9  A    between atoms: C_14  and  C_15
REMARK   10  A    between atoms: C_16  and  C_17
REMARK   11  A    between atoms: C_17  and  C_18
REMARK   12  A    between atoms: C_19  and  C_20
REMARK   13  A    between atoms: C_19  and  C_21
REMARK   14  A    between atoms: C_21  and  O_23
REMARK                            x       y       z     vdW  Elec       q    Type
REMARK                         _______ _______ _______ _____ _____    ______ ____
ROOT
ATOM      1  C   UNL     1       4.174   5.872  19.077  0.00  0.00    +0.000 C 
ATOM      2  C   UNL     1       3.807   5.113  17.827  0.00  0.00    +0.000 C 
ATOM      3  C   UNL     1       4.724   4.769  16.897  0.00  0.00    +0.000 C 
ENDROOT
BRANCH   3   4
ATOM      4  C   UNL     1       6.195   5.074  16.973  0.00  0.00    +0.000 C 
BRANCH   4   5
ATOM      5  C   UNL     1       6.509   6.548  16.685  0.00  0.00    +0.000 C 
BRANCH   5   6
ATOM      6  C   UNL     1       7.441   7.154  17.712  0.00  0.00    +0.000 C 
ATOM      7  C   UNL     1       7.920   6.273  18.834  0.00  0.00    +0.000 C 
ATOM      8  C   UNL     1       7.833   8.441  17.613  0.00  0.00    +0.000 C 
BRANCH   8   9
ATOM      9  C   UNL     1       8.746   9.161  18.570  0.00  0.00    +0.000 C 
BRANCH   9  10
ATOM     10  C   UNL     1       8.864  10.617  18.299  0.00  0.00    +0.000 A 
ATOM     11  O   UNL     1       7.944  11.150  17.450  0.00  0.00    +0.000 OA
ATOM     12  C   UNL     1       8.227  12.472  17.342  0.00  0.00    +0.000 A 
ATOM     13  C   UNL     1       9.319  12.794  18.114  0.00  0.00    +0.000 A 
ATOM     14  C   UNL     1       9.739  11.592  18.745  0.00  0.00    +0.000 A 
ATOM     15  C   UNL     1      10.871  11.408  19.686  0.00  0.00    +0.000 C 
ENDBRANCH   9  10
ENDBRANCH   8   9
ENDBRANCH   5   6
ENDBRANCH   4   5
ENDBRANCH   3   4
BRANCH   2  16
ATOM     16  C   UNL     1       2.319   4.780  17.717  0.00  0.00    +0.000 C 
BRANCH  16  17
ATOM     17  C   UNL     1       1.997   3.290  17.882  0.00  0.00    +0.000 C 
BRANCH  17  18
ATOM     18  C   UNL     1       2.191   2.700  19.251  0.00  0.00    +0.000 C 
ATOM     19  C   UNL     1       1.694   3.264  20.370  0.00  0.00    +0.000 C 
ATOM     20  C   UNL     1       0.899   4.541  20.366  0.00  0.00    +0.000 C 
BRANCH  19  21
ATOM     21  C   UNL     1       1.970   2.556  21.657  0.00  0.00    +0.000 C 
ATOM     22  O   UNL     1       1.099   2.250  22.454  0.00  0.00    +0.000 OA
BRANCH  21  23
ATOM     23  O   UNL     1       3.266   2.278  21.884  0.00  0.00    +0.000 OA
ATOM     24  H   UNL     1       3.466   1.515  22.448  0.00  0.00    +0.000 HD
ENDBRANCH  21  23
ENDBRANCH  19  21
ENDBRANCH  17  18
ENDBRANCH  16  17
ENDBRANCH   2  16
TORSDOF 10
ENDMDL
MODEL 2
REMARK VINA RESULT:      -7.3      2.988      6.978
REMARK  Name = 
REMARK  14 active torsions:
REMARK  status: ('A' for Active; 'I' for Inactive)
REMARK    1  A    between atoms: C_1  and  C_2
REMARK    2  A    between atoms: C_2  and  C_16
REMARK    3  A    between atoms: C_3  and  C_4
REMARK    4  A    between atoms: C_4  and  C_5
REMARK    5  A    between atoms: C_5  and  C_6
REMARK    6  A    between atoms: C_6  and  C_7
REMARK    7  A    between atoms: C_8  and  C_9
REMARK    8  A    between atoms: C_9  and  C_10
REMARK    9  A    between atoms: C_14  and  C_15
REMARK   10  A    between atoms: C_16  and  C_17
REMARK   11  A    between atoms: C_17  and  C_18
REMARK   12  A    between atoms: C_19  and  C_20
REMARK   13  A    between atoms: C_19  and  C_21
REMARK   14  A    between atoms: C_21  and  O_23
REMARK                            x       y       z     vdW  Elec       q    Type
REMARK                         _______ _______ _______ _____ _____    ______ ____
ROOT
ATOM      1  C   UNL     1       2.601   3.006  17.005  0.00  0.00    +0.000 C 
ATOM      2  C   UNL     1       3.885   3.565  17.564  0.00  0.00    +0.000 C 
ATOM      3  C   UNL     1       4.342   3.234  18.791  0.00  0.00    +0.000 C 
ENDROOT
BRANCH   3   4
ATOM      4  C   UNL     1       3.666   2.285  19.743  0.00  0.00    +0.000 C 
BRANCH   4   5
ATOM      5  C   UNL     1       3.182   2.977  21.025  0.00  0.00    +0.000 C 
BRANCH   5   6
ATOM      6  C   UNL     1       2.147   4.046  20.750  0.00  0.00    +0.000 C 
ATOM      7  C   UNL     1       0.747   3.603  20.419  0.00  0.00    +0.000 C 
ATOM      8  C   UNL     1       2.474   5.353  20.813  0.00  0.00    +0.000 C 
BRANCH   8   9
ATOM      9  C   UNL     1       1.543   6.508  20.555  0.00  0.00    +0.000 C 
BRANCH   9  10
ATOM     10  C   UNL     1       1.983   7.392  19.444  0.00  0.00    +0.000 A 
ATOM     11  O   UNL     1       2.871   6.857  18.562  0.00  0.00    +0.000 OA
ATOM     12  C   UNL     1       3.136   7.816  17.641  0.00  0.00    +0.000 A 
ATOM     13  C   UNL     1       2.429   8.961  17.922  0.00  0.00    +0.000 A 
ATOM     14  C   UNL     1       1.671   8.694  19.093  0.00  0.00    +0.000 A 
ATOM     15  C   UNL     1       0.737   9.606  19.799  0.00  0.00    +0.000 C 
ENDBRANCH   9  10
ENDBRANCH   8   9
ENDBRANCH   5   6
ENDBRANCH   4   5
ENDBRANCH   3   4
BRANCH   2  16
ATOM     16  C   UNL     1       4.603   4.531  16.622  0.00  0.00    +0.000 C 
BRANCH  16  17
ATOM     17  C   UNL     1       6.118   4.616  16.849  0.00  0.00    +0.000 C 
BRANCH  17  18
ATOM     18  C   UNL     1       6.709   5.992  16.979  0.00  0.00    +0.000 C 
ATOM     19  C   UNL     1       7.425   6.383  18.052  0.00  0.00    +0.000 C 
ATOM     20  C   UNL     1       7.701   5.489  19.230  0.00  0.00    +0.000 C 
BRANCH  19  21
ATOM     21  C   UNL     1       7.949   7.783  18.034  0.00  0.00    +0.000 C 
ATOM     22  O   UNL     1       7.645   8.602  17.183  0.00  0.00    +0.000 OA
BRANCH  21  23
ATOM     23  O   UNL     1       8.796   8.084  19.034  0.00  0.00    +0.000 OA
ATOM     24  H   UNL     1       9.022   9.018  19.161  0.00  0.00    +0.000 HD
ENDBRANCH  21  23
ENDBRANCH  19  21
ENDBRANCH  17  18
ENDBRANCH  16  17
ENDBRANCH   2  16
TORSDOF 10
ENDMDL
MODEL 3
REMARK VINA RESULT:      -7.2      2.932      4.896
REMARK  Name = 
REMARK  14 active torsions:
REMARK  status: ('A' for Active; 'I' for Inactive)
REMARK    1  A    between atoms: C_1  and  C_2
REMARK    2  A    between atoms: C_2  and  C_16
REMARK    3  A    between atoms: C_3  and  C_4
REMARK    4  A    between atoms: C_4  and  C_5
REMARK    5  A    between atoms: C_5  and  C_6
REMARK    6  A    between atoms: C_6  and  C_7
REMARK    7  A    between atoms: C_8  and  C_9
REMARK    8  A    between atoms: C_9  and  C_10
REMARK    9  A    between atoms: C_14  and  C_15
REMARK   10  A    between atoms: C_16  and  C_17
REMARK   11  A    between atoms: C_17  and  C_18
REMARK   12  A    between atoms: C_19  and  C_20
REMARK   13  A    between atoms: C_19  and  C_21
REMARK   14  A    between atoms: C_21  and  O_23
REMARK                            x       y       z     vdW  Elec       q    Type
REMARK                         _______ _______ _______ _____ _____    ______ ____
ROOT
ATOM      1  C   UNL     1       7.685   5.948  18.868  0.00  0.00    +0.000 C 
ATOM      2  C   UNL     1       7.508   6.741  17.597  0.00  0.00    +0.000 C 
ATOM      3  C   UNL     1       7.840   8.047  17.510  0.00  0.00    +0.000 C 
ENDROOT
BRANCH   3   4
ATOM      4  C   UNL     1       8.424   8.872  18.624  0.00  0.00    +0.000 C 
BRANCH   4   5
ATOM      5  C   UNL     1       8.981  10.216  18.136  0.00  0.00    +0.000 C 
BRANCH   5   6
ATOM      6  C   UNL     1       9.788  10.930  19.200  0.00  0.00    +0.000 C 
ATOM      7  C   UNL     1       9.275  10.894  20.614  0.00  0.00    +0.000 C 
ATOM      8  C   UNL     1      10.934  11.567  18.883  0.00  0.00    +0.000 C 
BRANCH   8   9
ATOM      9  C   UNL     1      11.819  12.317  19.842  0.00  0.00    +0.000 C 
BRANCH   9  10
ATOM     10  C   UNL     1      11.653  13.793  19.776  0.00  0.00    +0.000 A 
ATOM     11  O   UNL     1      12.319  14.431  18.776  0.00  0.00    +0.000 OA
ATOM     12  C   UNL     1      12.035  15.752  18.895  0.00  0.00    +0.000 A 
ATOM     13  C   UNL     1      11.194  15.968  19.962  0.00  0.00    +0.000 A 
ATOM     14  C   UNL     1      10.936  14.697  20.540  0.00  0.00    +0.000 A 
ATOM     15  C   UNL     1      10.080  14.389  21.712  0.00  0.00    +0.000 C 
ENDBRANCH   9  10
ENDBRANCH   8   9
ENDBRANCH   5   6
ENDBRANCH   4   5
ENDBRANCH   3   4
BRANCH   2  16
ATOM     16  C   UNL     1       6.921   5.934  16.439  0.00  0.00    +0.000 C 
BRANCH  16  17
ATOM     17  C   UNL     1       5.484   5.453  16.676  0.00  0.00    +0.000 C 
BRANCH  17  18
ATOM     18  C   UNL     1       4.449   6.509  16.940  0.00  0.00    +0.000 C 
ATOM     19  C   UNL     1       3.746   6.576  18.088  0.00  0.00    +0.000 C 
ATOM     20  C   UNL     1       3.919   5.600  19.219  0.00  0.00    +0.000 C 
BRANCH  19  21
ATOM     21  C   UNL     1       2.752   7.687  18.202  0.00  0.00    +0.000 C 
ATOM     22  O   UNL     1       2.539   8.490  17.309  0.00  0.00    +0.000 OA
BRANCH  21  23
ATOM     23  O   UNL     1       2.098   7.744  19.376  0.00  0.00    +0.000 OA
ATOM     24  H   UNL     1       2.390   8.412  20.016  0.00  0.00    +0.000 HD
ENDBRANCH  21  23
ENDBRANCH  19  21
ENDBRANCH  17  18
ENDBRANCH  16  17
ENDBRANCH   2  16
TORSDOF 10
ENDMDL
MODEL 4
REMARK VINA RESULT:      -7.1      2.365      4.165
REMARK  Name = 
REMARK  14 active torsions:
REMARK  status: ('A' for Active; 'I' for Inactive)
REMARK    1  A    between atoms: C_1  and  C_2
REMARK    2  A    between atoms: C_2  and  C_16
REMARK    3  A    between atoms: C_3  and  C_4
REMARK    4  A    between atoms: C_4  and  C_5
REMARK    5  A    between atoms: C_5  and  C_6
REMARK    6  A    between atoms: C_6  and  C_7
REMARK    7  A    between atoms: C_8  and  C_9
REMARK    8  A    between atoms: C_9  and  C_10
REMARK    9  A    between atoms: C_14  and  C_15
REMARK   10  A    between atoms: C_16  and  C_17
REMARK   11  A    between atoms: C_17  and  C_18
REMARK   12  A    between atoms: C_19  and  C_20
REMARK   13  A    between atoms: C_19  and  C_21
REMARK   14  A    between atoms: C_21  and  O_23
REMARK                            x       y       z     vdW  Elec       q    Type
REMARK                         _______ _______ _______ _____ _____    ______ ____
ROOT
ATOM      1  C   UNL     1       7.715   5.714  18.632  0.00  0.00    +0.000 C 
ATOM      2  C   UNL     1       7.331   6.508  17.409  0.00  0.00    +0.000 C 
ATOM      3  C   UNL     1       7.634   7.817  17.274  0.00  0.00    +0.000 C 
ENDROOT
BRANCH   3   4
ATOM      4  C   UNL     1       8.381   8.644  18.284  0.00  0.00    +0.000 C 
BRANCH   4   5
ATOM      5  C   UNL     1       8.310  10.149  17.986  0.00  0.00    +0.000 C 
BRANCH   5   6
ATOM      6  C   UNL     1       9.451  10.919  18.616  0.00  0.00    +0.000 C 
ATOM      7  C   UNL     1      10.466  11.549  17.701  0.00  0.00    +0.000 C 
ATOM      8  C   UNL     1       9.542  11.041  19.956  0.00  0.00    +0.000 C 
BRANCH   8   9
ATOM      9  C   UNL     1      10.626  11.770  20.704  0.00  0.00    +0.000 C 
BRANCH   9  10
ATOM     10  C   UNL     1      10.204  13.098  21.222  0.00  0.00    +0.000 A 
ATOM     11  O   UNL     1       9.391  13.090  22.313  0.00  0.00    +0.000 OA
ATOM     12  C   UNL     1       9.129  14.384  22.619  0.00  0.00    +0.000 A 
ATOM     13  C   UNL     1       9.765  15.225  21.735  0.00  0.00    +0.000 A 
ATOM     14  C   UNL     1      10.471  14.396  20.823  0.00  0.00    +0.000 A 
ATOM     15  C   UNL     1      11.321  14.818  19.682  0.00  0.00    +0.000 C 
ENDBRANCH   9  10
ENDBRANCH   8   9
ENDBRANCH   5   6
ENDBRANCH   4   5
ENDBRANCH   3   4
BRANCH   2  16
ATOM     16  C   UNL     1       6.574   5.699  16.356  0.00  0.00    +0.000 C 
BRANCH  16  17
ATOM     17  C   UNL     1       5.117   5.395  16.728  0.00  0.00    +0.000 C 
BRANCH  17  18
ATOM     18  C   UNL     1       4.850   4.086  17.416  0.00  0.00    +0.000 C 
ATOM     19  C   UNL     1       4.322   4.002  18.653  0.00  0.00    +0.000 C 
ATOM     20  C   UNL     1       3.952   5.206  19.475  0.00  0.00    +0.000 C 
BRANCH  19  21
ATOM     21  C   UNL     1       4.114   2.627  19.201  0.00  0.00    +0.000 C 
ATOM     22  O   UNL     1       4.738   2.182  20.151  0.00  0.00    +0.000 OA
BRANCH  21  23
ATOM     23  O   UNL     1       3.180   1.899  18.566  0.00  0.00    +0.000 OA
ATOM     24  H   UNL     1       2.440   1.562  19.095  0.00  0.00    +0.000 HD
ENDBRANCH  21  23
ENDBRANCH  19  21
ENDBRANCH  17  18
ENDBRANCH  16  17
ENDBRANCH   2  16
TORSDOF 10
ENDMDL
MODEL 5
REMARK VINA RESULT:      -7.1      1.654      9.466
REMARK  Name = 
REMARK  14 active torsions:
REMARK  status: ('A' for Active; 'I' for Inactive)
REMARK    1  A    between atoms: C_1  and  C_2
REMARK    2  A    between atoms: C_2  and  C_16
REMARK    3  A    between atoms: C_3  and  C_4
REMARK    4  A    between atoms: C_4  and  C_5
REMARK    5  A    between atoms: C_5  and  C_6
REMARK    6  A    between atoms: C_6  and  C_7
REMARK    7  A    between atoms: C_8  and  C_9
REMARK    8  A    between atoms: C_9  and  C_10
REMARK    9  A    between atoms: C_14  and  C_15
REMARK   10  A    between atoms: C_16  and  C_17
REMARK   11  A    between atoms: C_17  and  C_18
REMARK   12  A    between atoms: C_19  and  C_20
REMARK   13  A    between atoms: C_19  and  C_21
REMARK   14  A    between atoms: C_21  and  O_23
REMARK                            x       y       z     vdW  Elec       q    Type
REMARK                         _______ _______ _______ _____ _____    ______ ____
ROOT
ATOM      1  C   UNL     1       8.040   6.118  19.102  0.00  0.00    +0.000 C 
ATOM      2  C   UNL     1       7.881   7.353  18.252  0.00  0.00    +0.000 C 
ATOM      3  C   UNL     1       7.116   7.370  17.140  0.00  0.00    +0.000 C 
ENDROOT
BRANCH   3   4
ATOM      4  C   UNL     1       6.329   6.203  16.608  0.00  0.00    +0.000 C 
BRANCH   4   5
ATOM      5  C   UNL     1       4.868   6.563  16.307  0.00  0.00    +0.000 C 
BRANCH   5   6
ATOM      6  C   UNL     1       4.031   6.688  17.562  0.00  0.00    +0.000 C 
ATOM      7  C   UNL     1       3.113   7.875  17.681  0.00  0.00    +0.000 C 
ATOM      8  C   UNL     1       4.104   5.756  18.535  0.00  0.00    +0.000 C 
BRANCH   8   9
ATOM      9  C   UNL     1       3.334   5.770  19.828  0.00  0.00    +0.000 C 
BRANCH   9  10
ATOM     10  C   UNL     1       2.429   4.603  19.995  0.00  0.00    +0.000 A 
ATOM     11  O   UNL     1       2.377   4.051  21.238  0.00  0.00    +0.000 OA
ATOM     12  C   UNL     1       1.505   3.016  21.174  0.00  0.00    +0.000 A 
ATOM     13  C   UNL     1       0.995   2.896  19.903  0.00  0.00    +0.000 A 
ATOM     14  C   UNL     1       1.588   3.928  19.128  0.00  0.00    +0.000 A 
ATOM     15  C   UNL     1       1.361   4.232  17.693  0.00  0.00    +0.000 C 
ENDBRANCH   9  10
ENDBRANCH   8   9
ENDBRANCH   5   6
ENDBRANCH   4   5
ENDBRANCH   3   4
BRANCH   2  16
ATOM     16  C   UNL     1       8.663   8.563  18.764  0.00  0.00    +0.000 C 
BRANCH  16  17
ATOM     17  C   UNL     1       8.555   9.803  17.868  0.00  0.00    +0.000 C 
BRANCH  17  18
ATOM     18  C   UNL     1       8.675  11.141  18.542  0.00  0.00    +0.000 C 
ATOM     19  C   UNL     1       9.771  11.918  18.440  0.00  0.00    +0.000 C 
ATOM     20  C   UNL     1      10.989  11.526  17.648  0.00  0.00    +0.000 C 
BRANCH  19  21
ATOM     21  C   UNL     1       9.738  13.223  19.167  0.00  0.00    +0.000 C 
ATOM     22  O   UNL     1      10.732  13.760  19.628  0.00  0.00    +0.000 OA
BRANCH  21  23
ATOM     23  O   UNL     1       8.518  13.776  19.285  0.00  0.00    +0.000 OA
ATOM     24  H   UNL     1       7.757  13.242  19.006  0.00  0.00    +0.000 HD
ENDBRANCH  21  23
ENDBRANCH  19  21
ENDBRANCH  17  18
ENDBRANCH  16  17
ENDBRANCH   2  16
TORSDOF 10
ENDMDL
MODEL 6
REMARK VINA RESULT:      -7.0      5.118      7.998
REMARK  Name = 
REMARK  14 active torsions:
REMARK  status: ('A' for Active; 'I' for Inactive)
REMARK    1  A    between atoms: C_1  and  C_2
REMARK    2  A    between atoms: C_2  and  C_16
REMARK    3  A    between atoms: C_3  and  C_4
REMARK    4  A    between atoms: C_4  and  C_5
REMARK    5  A    between atoms: C_5  and  C_6
REMARK    6  A    between atoms: C_6  and  C_7
REMARK    7  A    between atoms: C_8  and  C_9
REMARK    8  A    between atoms: C_9  and  C_10
REMARK    9  A    between atoms: C_14  and  C_15
REMARK   10  A    between atoms: C_16  and  C_17
REMARK   11  A    between atoms: C_17  and  C_18
REMARK   12  A    between atoms: C_19  and  C_20
REMARK   13  A    between atoms: C_19  and  C_21
REMARK   14  A    between atoms: C_21  and  O_23
REMARK                            x       y       z     vdW  Elec       q    Type
REMARK                         _______ _______ _______ _____ _____    ______ ____
ROOT
ATOM      1  C   UNL     1       1.646   4.522  17.776  0.00  0.00    +0.000 C 
ATOM      2  C   UNL     1       2.748   4.508  18.806  0.00  0.00    +0.000 C 
ATOM      3  C   UNL     1       2.681   5.234  19.943  0.00  0.00    +0.000 C 
ENDROOT
BRANCH   3   4
ATOM      4  C   UNL     1       1.536   6.123  20.340  0.00  0.00    +0.000 C 
BRANCH   4   5
ATOM      5  C   UNL     1       1.969   7.577  20.574  0.00  0.00    +0.000 C 
BRANCH   5   6
ATOM      6  C   UNL     1       1.669   8.469  19.388  0.00  0.00    +0.000 C 
ATOM      7  C   UNL     1       2.407   8.205  18.104  0.00  0.00    +0.000 C 
ATOM      8  C   UNL     1       0.761   9.461  19.486  0.00  0.00    +0.000 C 
BRANCH   8   9
ATOM      9  C   UNL     1       0.380  10.419  18.388  0.00  0.00    +0.000 C 
BRANCH   9  10
ATOM     10  C   UNL     1      -1.082  10.472  18.124  0.00  0.00    +0.000 A 
ATOM     11  O   UNL     1      -1.545   9.672  17.125  0.00  0.00    +0.000 OA
ATOM     12  C   UNL     1      -2.884   9.870  17.051  0.00  0.00    +0.000 A 
ATOM     13  C   UNL     1      -3.287  10.789  17.991  0.00  0.00    +0.000 A 
ATOM     14  C   UNL     1      -2.120  11.185  18.699  0.00  0.00    +0.000 A 
ATOM     15  C   UNL     1      -2.021  12.152  19.819  0.00  0.00    +0.000 C 
ENDBRANCH   9  10
ENDBRANCH   8   9
ENDBRANCH   5   6
ENDBRANCH   4   5
ENDBRANCH   3   4
BRANCH   2  16
ATOM     16  C   UNL     1       3.928   3.610  18.439  0.00  0.00    +0.000 C 
BRANCH  16  17
ATOM     17  C   UNL     1       5.261   4.355  18.292  0.00  0.00    +0.000 C 
BRANCH  17  18
ATOM     18  C   UNL     1       6.011   4.159  17.004  0.00  0.00    +0.000 C 
ATOM     19  C   UNL     1       5.952   5.035  15.981  0.00  0.00    +0.000 C 
ATOM     20  C   UNL     1       5.128   6.292  16.018  0.00  0.00    +0.000 C 
BRANCH  19  21
ATOM     21  C   UNL     1       6.756   4.701  14.766  0.00  0.00    +0.000 C 
ATOM     22  O   UNL     1       7.647   5.415  14.335  0.00  0.00    +0.000 OA
BRANCH  21  23
ATOM     23  O   UNL     1       6.426   3.543  14.168  0.00  0.00    +0.000 OA
ATOM     24  H   UNL     1       6.157   3.583  13.237  0.00  0.00    +0.000 HD
ENDBRANCH  21  23
ENDBRANCH  19  21
ENDBRANCH  17  18
ENDBRANCH  16  17
ENDBRANCH   2  16
TORSDOF 10
ENDMDL
MODEL 7
REMARK VINA RESULT:      -7.0      1.501      9.409
REMARK  Name = 
REMARK  14 active torsions:
REMARK  status: ('A' for Active; 'I' for Inactive)
REMARK    1  A    between atoms: C_1  and  C_2
REMARK    2  A    between atoms: C_2  and  C_16
REMARK    3  A    between atoms: C_3  and  C_4
REMARK    4  A    between atoms: C_4  and  C_5
REMARK    5  A    between atoms: C_5  and  C_6
REMARK    6  A    between atoms: C_6  and  C_7
REMARK    7  A    between atoms: C_8  and  C_9
REMARK    8  A    between atoms: C_9  and  C_10
REMARK    9  A    between atoms: C_14  and  C_15
REMARK   10  A    between atoms: C_16  and  C_17
REMARK   11  A    between atoms: C_17  and  C_18
REMARK   12  A    between atoms: C_19  and  C_20
REMARK   13  A    between atoms: C_19  and  C_21
REMARK   14  A    between atoms: C_21  and  O_23
REMARK                            x       y       z     vdW  Elec       q    Type
REMARK                         _______ _______ _______ _____ _____    ______ ____
ROOT
ATOM      1  C   UNL     1       6.822   5.457  18.500  0.00  0.00    +0.000 C 
ATOM      2  C   UNL     1       6.863   6.739  17.707  0.00  0.00    +0.000 C 
ATOM      3  C   UNL     1       5.801   7.184  17.000  0.00  0.00    +0.000 C 
ENDROOT
BRANCH   3   4
ATOM      4  C   UNL     1       4.467   6.495  16.910  0.00  0.00    +0.000 C 
BRANCH   4   5
ATOM      5  C   UNL     1       3.420   7.109  17.850  0.00  0.00    +0.000 C 
BRANCH   5   6
ATOM      6  C   UNL     1       2.529   6.064  18.486  0.00  0.00    +0.000 C 
ATOM      7  C   UNL     1       1.983   6.346  19.859  0.00  0.00    +0.000 C 
ATOM      8  C   UNL     1       2.231   4.922  17.832  0.00  0.00    +0.000 C 
BRANCH   8   9
ATOM      9  C   UNL     1       1.368   3.806  18.356  0.00  0.00    +0.000 C 
BRANCH   9  10
ATOM     10  C   UNL     1       1.806   3.282  19.676  0.00  0.00    +0.000 A 
ATOM     11  O   UNL     1       0.846   3.180  20.635  0.00  0.00    +0.000 OA
ATOM     12  C   UNL     1       1.448   2.688  21.745  0.00  0.00    +0.000 A 
ATOM     13  C   UNL     1       2.786   2.473  21.510  0.00  0.00    +0.000 A 
ATOM     14  C   UNL     1       3.029   2.854  20.163  0.00  0.00    +0.000 A 
ATOM     15  C   UNL     1       4.313   2.805  19.422  0.00  0.00    +0.000 C 
ENDBRANCH   9  10
ENDBRANCH   8   9
ENDBRANCH   5   6
ENDBRANCH   4   5
ENDBRANCH   3   4
BRANCH   2  16
ATOM     16  C   UNL     1       8.203   7.470  17.779  0.00  0.00    +0.000 C 
BRANCH  16  17
ATOM     17  C   UNL     1       8.148   8.805  18.532  0.00  0.00    +0.000 C 
BRANCH  17  18
ATOM     18  C   UNL     1       8.797   9.987  17.868  0.00  0.00    +0.000 C 
ATOM     19  C   UNL     1       9.405  10.973  18.557  0.00  0.00    +0.000 C 
ATOM     20  C   UNL     1       9.492  10.997  20.058  0.00  0.00    +0.000 C 
BRANCH  19  21
ATOM     21  C   UNL     1      10.005  12.081  17.753  0.00  0.00    +0.000 C 
ATOM     22  O   UNL     1      11.198  12.162  17.508  0.00  0.00    +0.000 OA
BRANCH  21  23
ATOM     23  O   UNL     1       9.129  13.002  17.313  0.00  0.00    +0.000 OA
ATOM     24  H   UNL     1       9.492  13.808  16.915  0.00  0.00    +0.000 HD
ENDBRANCH  21  23
ENDBRANCH  19  21
ENDBRANCH  17  18
ENDBRANCH  16  17
ENDBRANCH   2  16
TORSDOF 10
ENDMDL
MODEL 8
REMARK VINA RESULT:      -6.9      5.944      8.973
REMARK  Name = 
REMARK  14 active torsions:
REMARK  status: ('A' for Active; 'I' for Inactive)
REMARK    1  A    between atoms: C_1  and  C_2
REMARK    2  A    between atoms: C_2  and  C_16
REMARK    3  A    between atoms: C_3  and  C_4
REMARK    4  A    between atoms: C_4  and  C_5
REMARK    5  A    between atoms: C_5  and  C_6
REMARK    6  A    between atoms: C_6  and  C_7
REMARK    7  A    between atoms: C_8  and  C_9
REMARK    8  A    between atoms: C_9  and  C_10
REMARK    9  A    between atoms: C_14  and  C_15
REMARK   10  A    between atoms: C_16  and  C_17
REMARK   11  A    between atoms: C_17  and  C_18
REMARK   12  A    between atoms: C_19  and  C_20
REMARK   13  A    between atoms: C_19  and  C_21
REMARK   14  A    between atoms: C_21  and  O_23
REMARK                            x       y       z     vdW  Elec       q    Type
REMARK                         _______ _______ _______ _____ _____    ______ ____
ROOT
ATOM      1  C   UNL     1       2.271   8.356  18.430  0.00  0.00    +0.000 C 
ATOM      2  C   UNL     1       2.267   7.191  19.386  0.00  0.00    +0.000 C 
ATOM      3  C   UNL     1       1.874   7.315  20.673  0.00  0.00    +0.000 C 
ENDROOT
BRANCH   3   4
ATOM      4  C   UNL     1       1.392   8.586  21.315  0.00  0.00    +0.000 C 
BRANCH   4   5
ATOM      5  C   UNL     1      -0.138   8.708  21.310  0.00  0.00    +0.000 C 
BRANCH   5   6
ATOM      6  C   UNL     1      -0.611  10.045  20.780  0.00  0.00    +0.000 C 
ATOM      7  C   UNL     1      -0.825  11.159  21.769  0.00  0.00    +0.000 C 
ATOM      8  C   UNL     1      -0.823  10.227  19.461  0.00  0.00    +0.000 C 
BRANCH   8   9
ATOM      9  C   UNL     1      -1.299  11.498  18.811  0.00  0.00    +0.000 C 
BRANCH   9  10
ATOM     10  C   UNL     1      -2.704  11.432  18.330  0.00  0.00    +0.000 A 
ATOM     11  O   UNL     1      -3.629  12.099  19.074  0.00  0.00    +0.000 OA
ATOM     12  C   UNL     1      -4.828  11.913  18.469  0.00  0.00    +0.000 A 
ATOM     13  C   UNL     1      -4.684  11.134  17.345  0.00  0.00    +0.000 A 
ATOM     14  C   UNL     1      -3.302  10.819  17.244  0.00  0.00    +0.000 A 
ATOM     15  C   UNL     1      -2.630  10.008  16.199  0.00  0.00    +0.000 C 
ENDBRANCH   9  10
ENDBRANCH   8   9
ENDBRANCH   5   6
ENDBRANCH   4   5
ENDBRANCH   3   4
BRANCH   2  16
ATOM     16  C   UNL     1       2.746   5.878  18.767  0.00  0.00    +0.000 C 
BRANCH  16  17
ATOM     17  C   UNL     1       3.611   6.056  17.513  0.00  0.00    +0.000 C 
BRANCH  17  18
ATOM     18  C   UNL     1       4.852   5.215  17.418  0.00  0.00    +0.000 C 
ATOM     19  C   UNL     1       6.088   5.741  17.306  0.00  0.00    +0.000 C 
ATOM     20  C   UNL     1       6.353   7.221  17.259  0.00  0.00    +0.000 C 
BRANCH  19  21
ATOM     21  C   UNL     1       7.224   4.773  17.224  0.00  0.00    +0.000 C 
ATOM     22  O   UNL     1       7.780   4.479  16.178  0.00  0.00    +0.000 OA
BRANCH  21  23
ATOM     23  O   UNL     1       7.598   4.236  18.399  0.00  0.00    +0.000 OA
ATOM     24  H   UNL     1       6.896   4.011  19.029  0.00  0.00    +0.000 HD
ENDBRANCH  21  23
ENDBRANCH  19  21
ENDBRANCH  17  18
ENDBRANCH  16  17
ENDBRANCH   2  16
TORSDOF 10
ENDMDL
MODEL 9
REMARK VINA RESULT:      -6.8      4.316      6.773
REMARK  Name = 
REMARK  14 active torsions:
REMARK  status: ('A' for Active; 'I' for Inactive)
REMARK    1  A    between atoms: C_1  and  C_2
REMARK    2  A    between atoms: C_2  and  C_16
REMARK    3  A    between atoms: C_3  and  C_4
REMARK    4  A    between atoms: C_4  and  C_5
REMARK    5  A    between atoms: C_5  and  C_6
REMARK    6  A    between atoms: C_6  and  C_7
REMARK    7  A    between atoms: C_8  and  C_9
REMARK    8  A    between atoms: C_9  and  C_10
REMARK    9  A    between atoms: C_14  and  C_15
REMARK   10  A    between atoms: C_16  and  C_17
REMARK   11  A    between atoms: C_17  and  C_18
REMARK   12  A    between atoms: C_19  and  C_20
REMARK   13  A    between atoms: C_19  and  C_21
REMARK   14  A    between atoms: C_21  and  O_23
REMARK                            x       y       z     vdW  Elec       q    Type
REMARK                         _______ _______ _______ _____ _____    ______ ____
ROOT
ATOM      1  C   UNL     1       1.735   5.744  18.026  0.00  0.00    +0.000 C 
ATOM      2  C   UNL     1       1.859   5.584  19.520  0.00  0.00    +0.000 C 
ATOM      3  C   UNL     1       1.498   4.448  20.156  0.00  0.00    +0.000 C 
ENDROOT
BRANCH   3   4
ATOM      4  C   UNL     1       0.948   3.217  19.490  0.00  0.00    +0.000 C 
BRANCH   4   5
ATOM      5  C   UNL     1       1.878   2.003  19.630  0.00  0.00    +0.000 C 
BRANCH   5   6
ATOM      6  C   UNL     1       3.282   2.289  19.142  0.00  0.00    +0.000 C 
ATOM      7  C   UNL     1       4.402   2.224  20.144  0.00  0.00    +0.000 C 
ATOM      8  C   UNL     1       3.514   2.582  17.846  0.00  0.00    +0.000 C 
BRANCH   8   9
ATOM      9  C   UNL     1       4.857   2.892  17.239  0.00  0.00    +0.000 C 
BRANCH   9  10
ATOM     10  C   UNL     1       5.054   4.333  16.934  0.00  0.00    +0.000 A 
ATOM     11  O   UNL     1       5.005   5.187  17.992  0.00  0.00    +0.000 OA
ATOM     12  C   UNL     1       5.207   6.434  17.502  0.00  0.00    +0.000 A 
ATOM     13  C   UNL     1       5.385   6.391  16.139  0.00  0.00    +0.000 A 
ATOM     14  C   UNL     1       5.292   5.025  15.759  0.00  0.00    +0.000 A 
ATOM     15  C   UNL     1       5.422   4.449  14.399  0.00  0.00    +0.000 C 
ENDBRANCH   9  10
ENDBRANCH   8   9
ENDBRANCH   5   6
ENDBRANCH   4   5
ENDBRANCH   3   4
BRANCH   2  16
ATOM     16  C   UNL     1       2.420   6.814  20.232  0.00  0.00    +0.000 C 
BRANCH  16  17
ATOM     17  C   UNL     1       1.503   8.042  20.177  0.00  0.00    +0.000 C 
BRANCH  17  18
ATOM     18  C   UNL     1       0.925   8.517  21.480  0.00  0.00    +0.000 C 
ATOM     19  C   UNL     1       0.229   9.666  21.599  0.00  0.00    +0.000 C 
ATOM     20  C   UNL     1      -0.035  10.592  20.444  0.00  0.00    +0.000 C 
BRANCH  19  21
ATOM     21  C   UNL     1      -0.283  10.001  22.962  0.00  0.00    +0.000 C 
ATOM     22  O   UNL     1      -1.312  10.628  23.156  0.00  0.00    +0.000 OA
BRANCH  21  23
ATOM     23  O   UNL     1       0.480   9.562  23.979  0.00  0.00    +0.000 OA
ATOM     24  H   UNL     1       0.206   9.802  24.878  0.00  0.00    +0.000 HD
ENDBRANCH  21  23
ENDBRANCH  19  21
ENDBRANCH  17  18
ENDBRANCH  16  17
ENDBRANCH   2  16
TORSDOF 10
ENDMDL
