MODEL 1
REMARK VINA RESULT:      -6.1      0.000      0.000
REMARK  Name = 
REMARK  9 active torsions:
REMARK  status: ('A' for Active; 'I' for Inactive)
REMARK    1  A    between atoms: C_1  and  C_2
REMARK    2  A    between atoms: C_2  and  N_3
REMARK    3  A    between atoms: N_3  and  C_4
REMARK    4  A    between atoms: C_4  and  C_5
REMARK    5  A    between atoms: C_6  and  C_8
REMARK    6  A    between atoms: C_8  and  C_9
REMARK    7  A    between atoms: C_16  and  C_17
REMARK    8  A    between atoms: C_17  and  N_18
REMARK    9  A    between atoms: N_18  and  C_19
REMARK                            x       y       z     vdW  Elec       q    Type
REMARK                         _______ _______ _______ _____ _____    ______ ____
ROOT
ATOM      1  C   UNL     1       5.070   4.536  17.495  0.00  0.00    +0.000 C 
ATOM      2  C   UNL     1       6.485   4.829  17.019  0.00  0.00    +0.000 C 
ATOM      3  C   UNL     1       5.664   3.854  16.252  0.00  0.00    +0.000 C 
ENDROOT
BRANCH   1   4
ATOM      4  C   UNL     1       3.989   5.616  17.413  0.00  0.00    +0.000 A 
ATOM      5  C   UNL     1       4.375   6.952  17.177  0.00  0.00    +0.000 A 
ATOM      6  C   UNL     1       3.588   8.020  17.608  0.00  0.00    +0.000 A 
ATOM      7  C   UNL     1       2.364   7.772  18.219  0.00  0.00    +0.000 A 
ATOM      8  C   UNL     1       1.891   6.466  18.320  0.00  0.00    +0.000 A 
ATOM      9  C   UNL     1       2.690   5.397  17.902  0.00  0.00    +0.000 A 
ENDBRANCH   1   4
BRANCH   1  11
ATOM     10  N   UNL     1       4.111   2.940  19.186  0.00  0.00    +0.000 N 
ATOM     11  C   UNL     1       5.059   3.923  18.894  0.00  0.00    +0.000 C 
ATOM     12  O   UNL     1       5.751   4.452  19.762  0.00  0.00    +0.000 OA
BRANCH  10  14
ATOM     13  C   UNL     1       2.419   3.528  20.922  0.00  0.00    +0.000 C 
ATOM     14  C   UNL     1       3.718   2.813  20.591  0.00  0.00    +0.000 C 
ENDBRANCH  10  14
BRANCH  10  15
ATOM     15  C   UNL     1       3.751   1.936  18.192  0.00  0.00    +0.000 C 
ATOM     16  C   UNL     1       2.340   1.972  17.633  0.00  0.00    +0.000 C 
ENDBRANCH  10  15
ENDBRANCH   1  11
BRANCH   3  17
ATOM     17  C   UNL     1       5.361   4.224  14.823  0.00  0.00    +0.000 C 
BRANCH  17  18
ATOM     18  N   UNL     1       6.365   3.546  14.002  0.00  0.00    +0.000 NA
ATOM     19  C   UNL     1       5.980   3.483  12.602  0.00  0.00    +0.000 C 
ATOM     20  H   UNL     1       6.529   2.607  14.356  0.00  0.00    +0.000 HD
ENDBRANCH  17  18
ENDBRANCH   3  17
TORSDOF 6
ENDMDL
MODEL 2
REMARK VINA RESULT:      -6.0      1.738      3.131
REMARK  Name = 
REMARK  9 active torsions:
REMARK  status: ('A' for Active; 'I' for Inactive)
REMARK    1  A    between atoms: C_1  and  C_2
REMARK    2  A    between atoms: C_2  and  N_3
REMARK    3  A    between atoms: N_3  and  C_4
REMARK    4  A    between atoms: C_4  and  C_5
REMARK    5  A    between atoms: C_6  and  C_8
REMARK    6  A    between atoms: C_8  and  C_9
REMARK    7  A    between atoms: C_16  and  C_17
REMARK    8  A    between atoms: C_17  and  N_18
REMARK    9  A    between atoms: N_18  and  C_19
REMARK                            x       y       z     vdW  Elec       q    Type
REMARK                         _______ _______ _______ _____ _____    ______ ____
ROOT
ATOM      1  C   UNL     1       4.970   4.595  17.469  0.00  0.00    +0.000 C 
ATOM      2  C   UNL     1       5.563   3.390  16.756  0.00  0.00    +0.000 C 
ATOM      3  C   UNL     1       4.771   4.367  15.962  0.00  0.00    +0.000 C 
ENDROOT
BRANCH   1   4
ATOM      4  C   UNL     1       5.883   5.687  18.030  0.00  0.00    +0.000 A 
ATOM      5  C   UNL     1       5.993   6.909  17.335  0.00  0.00    +0.000 A 
ATOM      6  C   UNL     1       7.135   7.702  17.440  0.00  0.00    +0.000 A 
ATOM      7  C   UNL     1       8.161   7.324  18.300  0.00  0.00    +0.000 A 
ATOM      8  C   UNL     1       8.005   6.205  19.115  0.00  0.00    +0.000 A 
ATOM      9  C   UNL     1       6.865   5.403  18.994  0.00  0.00    +0.000 A 
ENDBRANCH   1   4
BRANCH   1  11
ATOM     10  N   UNL     1       3.036   5.119  18.989  0.00  0.00    +0.000 N 
ATOM     11  C   UNL     1       3.968   4.179  18.545  0.00  0.00    +0.000 C 
ATOM     12  O   UNL     1       4.145   3.103  19.113  0.00  0.00    +0.000 OA
BRANCH  10  14
ATOM     13  C   UNL     1       1.138   4.329  20.403  0.00  0.00    +0.000 C 
ATOM     14  C   UNL     1       2.530   4.936  20.352  0.00  0.00    +0.000 C 
ENDBRANCH  10  14
BRANCH  10  15
ATOM     15  C   UNL     1       2.416   6.050  18.055  0.00  0.00    +0.000 C 
ATOM     16  C   UNL     1       2.504   7.532  18.375  0.00  0.00    +0.000 C 
ENDBRANCH  10  15
ENDBRANCH   1  11
BRANCH   3  17
ATOM     17  C   UNL     1       5.513   5.084  14.863  0.00  0.00    +0.000 C 
BRANCH  17  18
ATOM     18  N   UNL     1       6.480   4.125  14.328  0.00  0.00    +0.000 NA
ATOM     19  C   UNL     1       6.124   3.671  12.995  0.00  0.00    +0.000 C 
ATOM     20  H   UNL     1       6.562   3.326  14.953  0.00  0.00    +0.000 HD
ENDBRANCH  17  18
ENDBRANCH   3  17
TORSDOF 6
ENDMDL
MODEL 3
REMARK VINA RESULT:      -6.0      1.853      2.958
REMARK  Name = 
REMARK  9 active torsions:
REMARK  status: ('A' for Active; 'I' for Inactive)
REMARK    1  A    between atoms: C_1  and  C_2
REMARK    2  A    between atoms: C_2  and  N_3
REMARK    3  A    between atoms: N_3  and  C_4
REMARK    4  A    between atoms: C_4  and  C_5
REMARK    5  A    between atoms: C_6  and  C_8
REMARK    6  A    between atoms: C_8  and  C_9
REMARK    7  A    between atoms: C_16  and  C_17
REMARK    8  A    between atoms: C_17  and  N_18
REMARK    9  A    between atoms: N_18  and  C_19
REMARK                            x       y       z     vdW  Elec       q    Type
REMARK                         _______ _______ _______ _____ _____    ______ ____
ROOT
ATOM      1  C   UNL     1       4.694   4.905  17.038  0.00  0.00    +0.000 C 
ATOM      2  C   UNL     1       5.080   3.500  16.602  0.00  0.00    +0.000 C 
ATOM      3  C   UNL     1       4.867   4.536  15.556  0.00  0.00    +0.000 C 
ENDROOT
BRANCH   1   4
ATOM      4  C   UNL     1       5.694   5.780  17.798  0.00  0.00    +0.000 A 
ATOM      5  C   UNL     1       6.083   7.015  17.239  0.00  0.00    +0.000 A 
ATOM      6  C   UNL     1       7.316   7.591  17.543  0.00  0.00    +0.000 A 
ATOM      7  C   UNL     1       8.154   6.980  18.470  0.00  0.00    +0.000 A 
ATOM      8  C   UNL     1       7.722   5.845  19.152  0.00  0.00    +0.000 A 
ATOM      9  C   UNL     1       6.492   5.260  18.831  0.00  0.00    +0.000 A 
ENDBRANCH   1   4
BRANCH   1  11
ATOM     10  N   UNL     1       2.792   3.707  18.167  0.00  0.00    +0.000 N 
ATOM     11  C   UNL     1       3.355   4.922  17.774  0.00  0.00    +0.000 C 
ATOM     12  O   UNL     1       2.735   5.984  17.818  0.00  0.00    +0.000 OA
BRANCH  10  14
ATOM     13  C   UNL     1       0.797   2.348  18.797  0.00  0.00    +0.000 C 
ATOM     14  C   UNL     1       1.334   3.679  18.297  0.00  0.00    +0.000 C 
ENDBRANCH  10  14
BRANCH  10  15
ATOM     15  C   UNL     1       3.632   2.628  18.672  0.00  0.00    +0.000 C 
ATOM     16  C   UNL     1       4.120   2.729  20.107  0.00  0.00    +0.000 C 
ENDBRANCH  10  15
ENDBRANCH   1  11
BRANCH   3  17
ATOM     17  C   UNL     1       6.063   4.873  14.704  0.00  0.00    +0.000 C 
BRANCH  17  18
ATOM     18  N   UNL     1       6.477   3.623  14.065  0.00  0.00    +0.000 NA
ATOM     19  C   UNL     1       6.095   3.570  12.664  0.00  0.00    +0.000 C 
ATOM     20  H   UNL     1       6.078   2.830  14.561  0.00  0.00    +0.000 HD
ENDBRANCH  17  18
ENDBRANCH   3  17
TORSDOF 6
ENDMDL
MODEL 4
REMARK VINA RESULT:      -6.0      1.870      3.202
REMARK  Name = 
REMARK  9 active torsions:
REMARK  status: ('A' for Active; 'I' for Inactive)
REMARK    1  A    between atoms: C_1  and  C_2
REMARK    2  A    between atoms: C_2  and  N_3
REMARK    3  A    between atoms: N_3  and  C_4
REMARK    4  A    between atoms: C_4  and  C_5
REMARK    5  A    between atoms: C_6  and  C_8
REMARK    6  A    between atoms: C_8  and  C_9
REMARK    7  A    between atoms: C_16  and  C_17
REMARK    8  A    between atoms: C_17  and  N_18
REMARK    9  A    between atoms: N_18  and  C_19
REMARK                            x       y       z     vdW  Elec       q    Type
REMARK                         _______ _______ _______ _____ _____    ______ ____
ROOT
ATOM      1  C   UNL     1       5.371   5.060  16.526  0.00  0.00    +0.000 C 
ATOM      2  C   UNL     1       5.341   3.591  16.131  0.00  0.00    +0.000 C 
ATOM      3  C   UNL     1       5.269   4.617  15.056  0.00  0.00    +0.000 C 
ENDROOT
BRANCH   1   4
ATOM      4  C   UNL     1       6.639   5.674  17.122  0.00  0.00    +0.000 A 
ATOM      5  C   UNL     1       7.282   5.012  18.188  0.00  0.00    +0.000 A 
ATOM      6  C   UNL     1       8.063   5.711  19.109  0.00  0.00    +0.000 A 
ATOM      7  C   UNL     1       8.275   7.075  18.939  0.00  0.00    +0.000 A 
ATOM      8  C   UNL     1       7.782   7.717  17.806  0.00  0.00    +0.000 A 
ATOM      9  C   UNL     1       6.985   7.017  16.895  0.00  0.00    +0.000 A 
ENDBRANCH   1   4
BRANCH   1  11
ATOM     10  N   UNL     1       3.484   4.419  18.061  0.00  0.00    +0.000 N 
ATOM     11  C   UNL     1       4.175   5.436  17.399  0.00  0.00    +0.000 C 
ATOM     12  O   UNL     1       3.750   6.588  17.330  0.00  0.00    +0.000 OA
BRANCH  10  14
ATOM     13  C   UNL     1       1.800   4.858  19.848  0.00  0.00    +0.000 C 
ATOM     14  C   UNL     1       2.076   4.682  18.364  0.00  0.00    +0.000 C 
ENDBRANCH  10  14
BRANCH  10  15
ATOM     15  C   UNL     1       4.201   3.292  18.644  0.00  0.00    +0.000 C 
ATOM     16  C   UNL     1       3.535   1.929  18.590  0.00  0.00    +0.000 C 
ENDBRANCH  10  15
ENDBRANCH   1  11
BRANCH   3  17
ATOM     17  C   UNL     1       6.402   4.617  14.063  0.00  0.00    +0.000 C 
BRANCH  17  18
ATOM     18  N   UNL     1       6.413   3.286  13.454  0.00  0.00    +0.000 NA
ATOM     19  C   UNL     1       5.742   3.265  12.166  0.00  0.00    +0.000 C 
ATOM     20  H   UNL     1       5.977   2.613  14.080  0.00  0.00    +0.000 HD
ENDBRANCH  17  18
ENDBRANCH   3  17
TORSDOF 6
ENDMDL
MODEL 5
REMARK VINA RESULT:      -5.9      2.405      4.908
REMARK  Name = 
REMARK  9 active torsions:
REMARK  status: ('A' for Active; 'I' for Inactive)
REMARK    1  A    between atoms: C_1  and  C_2
REMARK    2  A    between atoms: C_2  and  N_3
REMARK    3  A    between atoms: N_3  and  C_4
REMARK    4  A    between atoms: C_4  and  C_5
REMARK    5  A    between atoms: C_6  and  C_8
REMARK    6  A    between atoms: C_8  and  C_9
REMARK    7  A    between atoms: C_16  and  C_17
REMARK    8  A    between atoms: C_17  and  N_18
REMARK    9  A    between atoms: N_18  and  C_19
REMARK                            x       y       z     vdW  Elec       q    Type
REMARK                         _______ _______ _______ _____ _____    ______ ____
ROOT
ATOM      1  C   UNL     1       3.198   6.054  18.031  0.00  0.00    +0.000 C 
ATOM      2  C   UNL     1       3.712   7.155  18.946  0.00  0.00    +0.000 C 
ATOM      3  C   UNL     1       2.970   7.542  17.716  0.00  0.00    +0.000 C 
ENDROOT
BRANCH   1   4
ATOM      4  C   UNL     1       2.077   5.123  18.497  0.00  0.00    +0.000 A 
ATOM      5  C   UNL     1       1.668   5.168  19.846  0.00  0.00    +0.000 A 
ATOM      6  C   UNL     1       1.091   4.060  20.466  0.00  0.00    +0.000 A 
ATOM      7  C   UNL     1       0.844   2.907  19.728  0.00  0.00    +0.000 A 
ATOM      8  C   UNL     1       1.094   2.895  18.358  0.00  0.00    +0.000 A 
ATOM      9  C   UNL     1       1.689   4.002  17.744  0.00  0.00    +0.000 A 
ENDBRANCH   1   4
BRANCH   1  11
ATOM     10  N   UNL     1       5.278   4.674  18.338  0.00  0.00    +0.000 N 
ATOM     11  C   UNL     1       4.340   5.216  17.458  0.00  0.00    +0.000 C 
ATOM     12  O   UNL     1       4.498   5.213  16.239  0.00  0.00    +0.000 OA
BRANCH  10  14
ATOM     13  C   UNL     1       7.637   5.472  18.188  0.00  0.00    +0.000 C 
ATOM     14  C   UNL     1       6.613   4.423  17.790  0.00  0.00    +0.000 C 
ENDBRANCH  10  14
BRANCH  10  15
ATOM     15  C   UNL     1       4.866   4.147  19.633  0.00  0.00    +0.000 C 
ATOM     16  C   UNL     1       4.557   2.663  19.724  0.00  0.00    +0.000 C 
ENDBRANCH  10  15
ENDBRANCH   1  11
BRANCH   3  17
ATOM     17  C   UNL     1       1.681   8.293  17.929  0.00  0.00    +0.000 C 
BRANCH  17  18
ATOM     18  N   UNL     1       1.933   9.670  17.504  0.00  0.00    +0.000 NA
ATOM     19  C   UNL     1       1.492  10.640  18.492  0.00  0.00    +0.000 C 
ATOM     20  H   UNL     1       1.471   9.850  16.615  0.00  0.00    +0.000 HD
ENDBRANCH  17  18
ENDBRANCH   3  17
TORSDOF 6
ENDMDL
MODEL 6
REMARK VINA RESULT:      -5.8      1.346      1.704
REMARK  Name = 
REMARK  9 active torsions:
REMARK  status: ('A' for Active; 'I' for Inactive)
REMARK    1  A    between atoms: C_1  and  C_2
REMARK    2  A    between atoms: C_2  and  N_3
REMARK    3  A    between atoms: N_3  and  C_4
REMARK    4  A    between atoms: C_4  and  C_5
REMARK    5  A    between atoms: C_6  and  C_8
REMARK    6  A    between atoms: C_8  and  C_9
REMARK    7  A    between atoms: C_16  and  C_17
REMARK    8  A    between atoms: C_17  and  N_18
REMARK    9  A    between atoms: N_18  and  C_19
REMARK                            x       y       z     vdW  Elec       q    Type
REMARK                         _______ _______ _______ _____ _____    ______ ____
ROOT
ATOM      1  C   UNL     1       4.959   4.629  18.098  0.00  0.00    +0.000 C 
ATOM      2  C   UNL     1       6.478   4.607  18.024  0.00  0.00    +0.000 C 
ATOM      3  C   UNL     1       5.702   4.478  16.761  0.00  0.00    +0.000 C 
ENDROOT
BRANCH   1   4
ATOM      4  C   UNL     1       4.224   5.909  18.500  0.00  0.00    +0.000 A 
ATOM      5  C   UNL     1       3.509   5.934  19.716  0.00  0.00    +0.000 A 
ATOM      6  C   UNL     1       2.424   6.789  19.901  0.00  0.00    +0.000 A 
ATOM      7  C   UNL     1       2.076   7.690  18.900  0.00  0.00    +0.000 A 
ATOM      8  C   UNL     1       2.864   7.793  17.757  0.00  0.00    +0.000 A 
ATOM      9  C   UNL     1       3.942   6.921  17.567  0.00  0.00    +0.000 A 
ENDBRANCH   1   4
BRANCH   1  11
ATOM     10  N   UNL     1       3.066   3.124  18.792  0.00  0.00    +0.000 N 
ATOM     11  C   UNL     1       4.415   3.461  18.920  0.00  0.00    +0.000 C 
ATOM     12  O   UNL     1       5.133   2.992  19.801  0.00  0.00    +0.000 OA
BRANCH  10  14
ATOM     13  C   UNL     1       1.325   3.283  20.571  0.00  0.00    +0.000 C 
ATOM     14  C   UNL     1       2.448   2.472  19.948  0.00  0.00    +0.000 C 
ENDBRANCH  10  14
BRANCH  10  15
ATOM     15  C   UNL     1       2.407   3.178  17.493  0.00  0.00    +0.000 C 
ATOM     16  C   UNL     1       1.293   4.193  17.309  0.00  0.00    +0.000 C 
ENDBRANCH  10  15
ENDBRANCH   1  11
BRANCH   3  17
ATOM     17  C   UNL     1       5.905   5.573  15.745  0.00  0.00    +0.000 C 
BRANCH  17  18
ATOM     18  N   UNL     1       7.074   5.187  14.954  0.00  0.00    +0.000 NA
ATOM     19  C   UNL     1       6.727   4.301  13.856  0.00  0.00    +0.000 C 
ATOM     20  H   UNL     1       7.767   4.741  15.551  0.00  0.00    +0.000 HD
ENDBRANCH  17  18
ENDBRANCH   3  17
TORSDOF 6
ENDMDL
MODEL 7
REMARK VINA RESULT:      -5.8      2.293      5.163
REMARK  Name = 
REMARK  9 active torsions:
REMARK  status: ('A' for Active; 'I' for Inactive)
REMARK    1  A    between atoms: C_1  and  C_2
REMARK    2  A    between atoms: C_2  and  N_3
REMARK    3  A    between atoms: N_3  and  C_4
REMARK    4  A    between atoms: C_4  and  C_5
REMARK    5  A    between atoms: C_6  and  C_8
REMARK    6  A    between atoms: C_8  and  C_9
REMARK    7  A    between atoms: C_16  and  C_17
REMARK    8  A    between atoms: C_17  and  N_18
REMARK    9  A    between atoms: N_18  and  C_19
REMARK                            x       y       z     vdW  Elec       q    Type
REMARK                         _______ _______ _______ _____ _____    ______ ____
ROOT
ATOM      1  C   UNL     1       3.130   6.123  18.697  0.00  0.00    +0.000 C 
ATOM      2  C   UNL     1       2.820   7.229  19.693  0.00  0.00    +0.000 C 
ATOM      3  C   UNL     1       2.758   7.543  18.241  0.00  0.00    +0.000 C 
ENDROOT
BRANCH   1   4
ATOM      4  C   UNL     1       2.186   4.929  18.549  0.00  0.00    +0.000 A 
ATOM      5  C   UNL     1       1.364   4.569  19.638  0.00  0.00    +0.000 A 
ATOM      6  C   UNL     1       0.910   3.261  19.801  0.00  0.00    +0.000 A 
ATOM      7  C   UNL     1       1.207   2.302  18.839  0.00  0.00    +0.000 A 
ATOM      8  C   UNL     1       1.881   2.671  17.677  0.00  0.00    +0.000 A 
ATOM      9  C   UNL     1       2.350   3.980  17.525  0.00  0.00    +0.000 A 
ENDBRANCH   1   4
BRANCH   1  11
ATOM     10  N   UNL     1       5.311   5.373  17.692  0.00  0.00    +0.000 N 
ATOM     11  C   UNL     1       4.563   5.612  18.846  0.00  0.00    +0.000 C 
ATOM     12  O   UNL     1       4.932   5.247  19.961  0.00  0.00    +0.000 OA
BRANCH  10  14
ATOM     13  C   UNL     1       7.750   4.968  18.023  0.00  0.00    +0.000 C 
ATOM     14  C   UNL     1       6.371   4.369  17.803  0.00  0.00    +0.000 C 
ENDBRANCH  10  14
BRANCH  10  15
ATOM     15  C   UNL     1       5.211   6.265  16.544  0.00  0.00    +0.000 C 
ATOM     16  C   UNL     1       5.407   5.662  15.164  0.00  0.00    +0.000 C 
ENDBRANCH  10  15
ENDBRANCH   1  11
BRANCH   3  17
ATOM     17  C   UNL     1       1.412   7.967  17.712  0.00  0.00    +0.000 C 
BRANCH  17  18
ATOM     18  N   UNL     1       1.496   9.410  17.484  0.00  0.00    +0.000 NA
ATOM     19  C   UNL     1       0.861  10.173  18.545  0.00  0.00    +0.000 C 
ATOM     20  H   UNL     1       1.072   9.646  16.589  0.00  0.00    +0.000 HD
ENDBRANCH  17  18
ENDBRANCH   3  17
TORSDOF 6
ENDMDL
MODEL 8
REMARK VINA RESULT:      -5.8      1.855      4.300
REMARK  Name = 
REMARK  9 active torsions:
REMARK  status: ('A' for Active; 'I' for Inactive)
REMARK    1  A    between atoms: C_1  and  C_2
REMARK    2  A    between atoms: C_2  and  N_3
REMARK    3  A    between atoms: N_3  and  C_4
REMARK    4  A    between atoms: C_4  and  C_5
REMARK    5  A    between atoms: C_6  and  C_8
REMARK    6  A    between atoms: C_8  and  C_9
REMARK    7  A    between atoms: C_16  and  C_17
REMARK    8  A    between atoms: C_17  and  N_18
REMARK    9  A    between atoms: N_18  and  C_19
REMARK                            x       y       z     vdW  Elec       q    Type
REMARK                         _______ _______ _______ _____ _____    ______ ____
ROOT
ATOM      1  C   UNL     1       3.812   5.360  18.141  0.00  0.00    +0.000 C 
ATOM      2  C   UNL     1       2.321   5.529  17.894  0.00  0.00    +0.000 C 
ATOM      3  C   UNL     1       3.061   6.634  18.561  0.00  0.00    +0.000 C 
ENDROOT
BRANCH   1   4
ATOM      4  C   UNL     1       4.791   5.322  16.966  0.00  0.00    +0.000 A 
ATOM      5  C   UNL     1       4.735   4.238  16.065  0.00  0.00    +0.000 A 
ATOM      6  C   UNL     1       5.856   3.841  15.338  0.00  0.00    +0.000 A 
ATOM      7  C   UNL     1       7.038   4.568  15.442  0.00  0.00    +0.000 A 
ATOM      8  C   UNL     1       7.070   5.734  16.202  0.00  0.00    +0.000 A 
ATOM      9  C   UNL     1       5.948   6.119  16.943  0.00  0.00    +0.000 A 
ENDBRANCH   1   4
BRANCH   1  11
ATOM     10  N   UNL     1       3.083   3.264  19.325  0.00  0.00    +0.000 N 
ATOM     11  C   UNL     1       4.103   4.183  19.071  0.00  0.00    +0.000 C 
ATOM     12  O   UNL     1       5.154   4.198  19.710  0.00  0.00    +0.000 OA
BRANCH  10  14
ATOM     13  C   UNL     1       2.312   3.184  21.697  0.00  0.00    +0.000 C 
ATOM     14  C   UNL     1       3.155   2.551  20.602  0.00  0.00    +0.000 C 
ENDBRANCH  10  14
BRANCH  10  15
ATOM     15  C   UNL     1       2.170   2.856  18.265  0.00  0.00    +0.000 C 
ATOM     16  C   UNL     1       0.821   2.293  18.674  0.00  0.00    +0.000 C 
ENDBRANCH  10  15
ENDBRANCH   1  11
BRANCH   3  17
ATOM     17  C   UNL     1       3.090   7.949  17.825  0.00  0.00    +0.000 C 
BRANCH  17  18
ATOM     18  N   UNL     1       1.714   8.445  17.815  0.00  0.00    +0.000 NA
ATOM     19  C   UNL     1       1.637   9.860  18.138  0.00  0.00    +0.000 C 
ATOM     20  H   UNL     1       1.147   7.912  18.471  0.00  0.00    +0.000 HD
ENDBRANCH  17  18
ENDBRANCH   3  17
TORSDOF 6
ENDMDL
MODEL 9
REMARK VINA RESULT:      -5.8      1.778      3.440
REMARK  Name = 
REMARK  9 active torsions:
REMARK  status: ('A' for Active; 'I' for Inactive)
REMARK    1  A    between atoms: C_1  and  C_2
REMARK    2  A    between atoms: C_2  and  N_3
REMARK    3  A    between atoms: N_3  and  C_4
REMARK    4  A    between atoms: C_4  and  C_5
REMARK    5  A    between atoms: C_6  and  C_8
REMARK    6  A    between atoms: C_8  and  C_9
REMARK    7  A    between atoms: C_16  and  C_17
REMARK    8  A    between atoms: C_17  and  N_18
REMARK    9  A    between atoms: N_18  and  C_19
REMARK                            x       y       z     vdW  Elec       q    Type
REMARK                         _______ _______ _______ _____ _____    ______ ____
ROOT
ATOM      1  C   UNL     1       5.480   4.507  16.860  0.00  0.00    +0.000 C 
ATOM      2  C   UNL     1       5.706   3.172  16.166  0.00  0.00    +0.000 C 
ATOM      3  C   UNL     1       5.081   4.278  15.393  0.00  0.00    +0.000 C 
ENDROOT
BRANCH   1   4
ATOM      4  C   UNL     1       6.671   5.375  17.270  0.00  0.00    +0.000 A 
ATOM      5  C   UNL     1       7.437   4.998  18.393  0.00  0.00    +0.000 A 
ATOM      6  C   UNL     1       8.145   5.941  19.137  0.00  0.00    +0.000 A 
ATOM      7  C   UNL     1       8.161   7.271  18.729  0.00  0.00    +0.000 A 
ATOM      8  C   UNL     1       7.544   7.637  17.535  0.00  0.00    +0.000 A 
ATOM      9  C   UNL     1       6.821   6.691  16.802  0.00  0.00    +0.000 A 
ENDBRANCH   1   4
BRANCH   1  11
ATOM     10  N   UNL     1       3.814   5.502  18.459  0.00  0.00    +0.000 N 
ATOM     11  C   UNL     1       4.526   4.374  18.045  0.00  0.00    +0.000 C 
ATOM     12  O   UNL     1       4.568   3.339  18.707  0.00  0.00    +0.000 OA
BRANCH  10  14
ATOM     13  C   UNL     1       1.969   5.116  20.095  0.00  0.00    +0.000 C 
ATOM     14  C   UNL     1       3.413   5.535  19.867  0.00  0.00    +0.000 C 
ENDBRANCH  10  14
BRANCH  10  15
ATOM     15  C   UNL     1       3.278   6.442  17.483  0.00  0.00    +0.000 C 
ATOM     16  C   UNL     1       3.081   7.881  17.926  0.00  0.00    +0.000 C 
ENDBRANCH  10  15
ENDBRANCH   1  11
BRANCH   3  17
ATOM     17  C   UNL     1       5.850   4.763  14.191  0.00  0.00    +0.000 C 
BRANCH  17  18
ATOM     18  N   UNL     1       6.368   3.567  13.526  0.00  0.00    +0.000 NA
ATOM     19  C   UNL     1       5.678   3.288  12.278  0.00  0.00    +0.000 C 
ATOM     20  H   UNL     1       6.295   2.764  14.146  0.00  0.00    +0.000 HD
ENDBRANCH  17  18
ENDBRANCH   3  17
TORSDOF 6
ENDMDL
