MODEL 1
REMARK VINA RESULT:      -6.0      0.000      0.000
REMARK  Name = 
REMARK  22 active torsions:
REMARK  status: ('A' for Active; 'I' for Inactive)
REMARK    1  A    between atoms: NZ_1  and  CE_2
REMARK    2  A    between atoms: CE_2  and  CD_3
REMARK    3  A    between atoms: CD_3  and  CG_4
REMARK    4  A    between atoms: CG_4  and  CB_5
REMARK    5  A    between atoms: CB_5  and  CA_6
REMARK    6  A    between atoms: CA_6  and  N_7
REMARK    7  A    between atoms: CA_6  and  C_8
REMARK    8  A    between atoms: N_10  and  CA_11
REMARK    9  A    between atoms: CA_11  and  CB_12
REMARK   10  A    between atoms: CA_11  and  C_17
REMARK   11  A    between atoms: CB_12  and  CG_13
REMARK   12  A    between atoms: CG_13  and  CD_14
REMARK   13  A    between atoms: CD_14  and  CE_15
REMARK   14  A    between atoms: CE_15  and  NZ_16
REMARK   15  A    between atoms: N_19  and  CA_20
REMARK   16  A    between atoms: CA_20  and  CB_21
REMARK   17  A    between atoms: CA_20  and  C_26
REMARK   18  A    between atoms: CB_21  and  CG_22
REMARK   19  A    between atoms: CG_22  and  CD_23
REMARK   20  A    between atoms: CD_23  and  CE_24
REMARK   21  A    between atoms: CE_24  and  NZ_25
REMARK   22  A    between atoms: C_26  and  OXT_28
REMARK                            x       y       z     vdW  Elec       q    Type
REMARK                         _______ _______ _______ _____ _____    ______ ____
ROOT
ATOM      1  CA  LYS A   2       3.978   5.951  18.660  0.00  0.00    +0.000 C 
ENDROOT
BRANCH   1   4
ATOM      2  C   LYS A   1       4.213   3.474  18.610  0.00  0.00    +0.000 C 
ATOM      3  O   LYS A   1       5.137   3.460  19.417  0.00  0.00    +0.000 OA
ATOM      4  N   LYS A   2       3.564   4.621  18.214  0.00  0.00    +0.000 N 
ATOM      5  H   LYS A   2       2.856   4.577  17.488  0.00  0.00    +0.000 HD
BRANCH   2   6
ATOM      6  CA  LYS A   1       3.704   2.190  17.932  0.00  0.00    +0.000 C 
BRANCH   6   7
ATOM      7  N   LYS A   1       4.163   1.027  18.726  0.00  0.00    +0.000 NA
ATOM      8  H1  LYS A   1       4.471   1.340  19.645  0.00  0.00    +0.000 HD
ATOM      9  H2  LYS A   1       5.005   0.659  18.276  0.00  0.00    +0.000 HD
ENDBRANCH   6   7
BRANCH   6  10
ATOM     10  CB  LYS A   1       2.173   2.209  17.787  0.00  0.00    +0.000 C 
BRANCH  10  11
ATOM     11  CG  LYS A   1       1.475   1.740  19.072  0.00  0.00    +0.000 C 
BRANCH  11  12
ATOM     12  CD  LYS A   1       0.993   2.914  19.925  0.00  0.00    +0.000 C 
BRANCH  12  13
ATOM     13  CE  LYS A   1       1.329   2.668  21.394  0.00  0.00    +0.000 C 
BRANCH  13  14
ATOM     14  NZ  LYS A   1       2.309   3.637  21.867  0.00  0.00    +0.000 NA
ATOM     15  HZ1 LYS A   1       3.118   3.619  21.246  0.00  0.00    +0.000 HD
ATOM     16  HZ2 LYS A   1       2.650   3.359  22.786  0.00  0.00    +0.000 HD
ENDBRANCH  13  14
ENDBRANCH  12  13
ENDBRANCH  11  12
ENDBRANCH  10  11
ENDBRANCH   6  10
ENDBRANCH   2   6
ENDBRANCH   1   4
BRANCH   1  17
ATOM     17  C   LYS A   2       2.733   6.637  19.277  0.00  0.00    +0.000 C 
ATOM     18  O   LYS A   2       2.100   6.150  20.211  0.00  0.00    +0.000 OA
ATOM     19  N   LYS A   3       2.402   7.836  18.704  0.00  0.00    +0.000 N 
ATOM     20  H   LYS A   3       2.903   8.160  17.880  0.00  0.00    +0.000 HD
BRANCH  19  21
ATOM     21  CA  LYS A   3       1.230   8.614  19.106  0.00  0.00    +0.000 C 
BRANCH  21  22
ATOM     22  C   LYS A   3       0.906   9.599  17.978  0.00  0.00    +0.000 C 
ATOM     23  O   LYS A   3      -0.240   9.872  17.621  0.00  0.00    +0.000 OA
BRANCH  22  24
ATOM     24  OXT LYS A   3       1.984  10.155  17.382  0.00  0.00    +0.000 OA
ATOM     25  HXT LYS A   3       2.052  11.125  17.476  0.00  0.00    +0.000 HD
ENDBRANCH  22  24
ENDBRANCH  21  22
BRANCH  21  26
ATOM     26  CB  LYS A   3       1.479   9.343  20.440  0.00  0.00    +0.000 C 
BRANCH  26  27
ATOM     27  CG  LYS A   3       0.170   9.858  21.043  0.00  0.00    +0.000 C 
BRANCH  27  28
ATOM     28  CD  LYS A   3      -0.347   9.039  22.221  0.00  0.00    +0.000 C 
BRANCH  28  29
ATOM     29  CE  LYS A   3      -0.646   9.997  23.377  0.00  0.00    +0.000 C 
BRANCH  29  30
ATOM     30  NZ  LYS A   3      -1.212  11.245  22.895  0.00  0.00    +0.000 NA
ATOM     31  HZ1 LYS A   3      -1.556  11.121  21.943  0.00  0.00    +0.000 HD
ATOM     32  HZ2 LYS A   3      -0.469  11.942  22.834  0.00  0.00    +0.000 HD
ENDBRANCH  29  30
ENDBRANCH  28  29
ENDBRANCH  27  28
ENDBRANCH  26  27
ENDBRANCH  21  26
ENDBRANCH  19  21
ENDBRANCH   1  17
BRANCH   1  33
ATOM     33  CB  LYS A   2       4.466   6.820  17.499  0.00  0.00    +0.000 C 
BRANCH  33  34
ATOM     34  CG  LYS A   2       5.033   5.989  16.343  0.00  0.00    +0.000 C 
BRANCH  34  35
ATOM     35  CD  LYS A   2       6.562   5.978  16.335  0.00  0.00    +0.000 C 
BRANCH  35  36
ATOM     36  CE  LYS A   2       7.104   4.563  16.537  0.00  0.00    +0.000 C 
BRANCH  36  37
ATOM     37  NZ  LYS A   2       7.535   4.360  17.910  0.00  0.00    +0.000 NA
ATOM     38  HZ1 LYS A   2       6.744   4.063  18.475  0.00  0.00    +0.000 HD
ATOM     39  HZ2 LYS A   2       7.848   5.253  18.287  0.00  0.00    +0.000 HD
ENDBRANCH  36  37
ENDBRANCH  35  36
ENDBRANCH  34  35
ENDBRANCH  33  34
ENDBRANCH   1  33
TORSDOF 22
ENDMDL
MODEL 2
REMARK VINA RESULT:      -6.0      2.602      7.843
REMARK  Name = 
REMARK  22 active torsions:
REMARK  status: ('A' for Active; 'I' for Inactive)
REMARK    1  A    between atoms: NZ_1  and  CE_2
REMARK    2  A    between atoms: CE_2  and  CD_3
REMARK    3  A    between atoms: CD_3  and  CG_4
REMARK    4  A    between atoms: CG_4  and  CB_5
REMARK    5  A    between atoms: CB_5  and  CA_6
REMARK    6  A    between atoms: CA_6  and  N_7
REMARK    7  A    between atoms: CA_6  and  C_8
REMARK    8  A    between atoms: N_10  and  CA_11
REMARK    9  A    between atoms: CA_11  and  CB_12
REMARK   10  A    between atoms: CA_11  and  C_17
REMARK   11  A    between atoms: CB_12  and  CG_13
REMARK   12  A    between atoms: CG_13  and  CD_14
REMARK   13  A    between atoms: CD_14  and  CE_15
REMARK   14  A    between atoms: CE_15  and  NZ_16
REMARK   15  A    between atoms: N_19  and  CA_20
REMARK   16  A    between atoms: CA_20  and  CB_21
REMARK   17  A    between atoms: CA_20  and  C_26
REMARK   18  A    between atoms: CB_21  and  CG_22
REMARK   19  A    between atoms: CG_22  and  CD_23
REMARK   20  A    between atoms: CD_23  and  CE_24
REMARK   21  A    between atoms: CE_24  and  NZ_25
REMARK   22  A    between atoms: C_26  and  OXT_28
REMARK                            x       y       z     vdW  Elec       q    Type
REMARK                         _______ _______ _______ _____ _____    ______ ____
ROOT
ATOM      1  CA  LYS A   2       3.111   5.089  18.823  0.00  0.00    +0.000 C 
ENDROOT
BRANCH   1   4
ATOM      2  C   LYS A   1       2.310   7.380  19.370  0.00  0.00    +0.000 C 
ATOM      3  O   LYS A   1       1.800   7.041  20.433  0.00  0.00    +0.000 OA
ATOM      4  N   LYS A   2       2.998   6.520  18.546  0.00  0.00    +0.000 N 
ATOM      5  H   LYS A   2       3.334   6.844  17.643  0.00  0.00    +0.000 HD
BRANCH   2   6
ATOM      6  CA  LYS A   1       2.202   8.821  18.838  0.00  0.00    +0.000 C 
BRANCH   6   7
ATOM      7  N   LYS A   1       2.187   8.774  17.358  0.00  0.00    +0.000 NA
ATOM      8  H1  LYS A   1       2.892   9.408  16.988  0.00  0.00    +0.000 HD
ATOM      9  H2  LYS A   1       1.292   9.161  17.047  0.00  0.00    +0.000 HD
ENDBRANCH   6   7
BRANCH   6  10
ATOM     10  CB  LYS A   1       0.954   9.525  19.397  0.00  0.00    +0.000 C 
BRANCH  10  11
ATOM     11  CG  LYS A   1       0.257  10.378  18.327  0.00  0.00    +0.000 C 
BRANCH  11  12
ATOM     12  CD  LYS A   1      -1.263  10.211  18.360  0.00  0.00    +0.000 C 
BRANCH  12  13
ATOM     13  CE  LYS A   1      -1.942  11.577  18.310  0.00  0.00    +0.000 C 
BRANCH  13  14
ATOM     14  NZ  LYS A   1      -1.336  12.416  17.283  0.00  0.00    +0.000 NA
ATOM     15  HZ1 LYS A   1      -1.106  13.322  17.690  0.00  0.00    +0.000 HD
ATOM     16  HZ2 LYS A   1      -2.015  12.600  16.546  0.00  0.00    +0.000 HD
ENDBRANCH  13  14
ENDBRANCH  12  13
ENDBRANCH  11  12
ENDBRANCH  10  11
ENDBRANCH   6  10
ENDBRANCH   2   6
ENDBRANCH   1   4
BRANCH   1  17
ATOM     17  C   LYS A   2       4.618   4.731  18.785  0.00  0.00    +0.000 C 
ATOM     18  O   LYS A   2       5.089   3.775  19.396  0.00  0.00    +0.000 OA
ATOM     19  N   LYS A   3       5.380   5.560  18.006  0.00  0.00    +0.000 N 
ATOM     20  H   LYS A   3       4.962   6.387  17.585  0.00  0.00    +0.000 HD
BRANCH  19  21
ATOM     21  CA  LYS A   3       6.832   5.423  17.882  0.00  0.00    +0.000 C 
BRANCH  21  22
ATOM     22  C   LYS A   3       7.444   6.828  17.922  0.00  0.00    +0.000 C 
ATOM     23  O   LYS A   3       8.334   7.161  18.703  0.00  0.00    +0.000 OA
BRANCH  22  24
ATOM     24  OXT LYS A   3       6.926   7.699  17.027  0.00  0.00    +0.000 OA
ATOM     25  HXT LYS A   3       7.586   8.197  16.508  0.00  0.00    +0.000 HD
ENDBRANCH  22  24
ENDBRANCH  21  22
BRANCH  21  26
ATOM     26  CB  LYS A   3       7.210   4.678  16.588  0.00  0.00    +0.000 C 
BRANCH  26  27
ATOM     27  CG  LYS A   3       6.284   5.068  15.434  0.00  0.00    +0.000 C 
BRANCH  27  28
ATOM     28  CD  LYS A   3       6.827   4.733  14.048  0.00  0.00    +0.000 C 
BRANCH  28  29
ATOM     29  CE  LYS A   3       5.978   3.603  13.460  0.00  0.00    +0.000 C 
BRANCH  29  30
ATOM     30  NZ  LYS A   3       6.507   3.156  12.183  0.00  0.00    +0.000 NA
ATOM     31  HZ1 LYS A   3       7.269   2.497  12.339  0.00  0.00    +0.000 HD
ATOM     32  HZ2 LYS A   3       6.923   3.953  11.701  0.00  0.00    +0.000 HD
ENDBRANCH  29  30
ENDBRANCH  28  29
ENDBRANCH  27  28
ENDBRANCH  26  27
ENDBRANCH  21  26
ENDBRANCH  19  21
ENDBRANCH   1  17
BRANCH   1  33
ATOM     33  CB  LYS A   2       2.400   4.241  17.766  0.00  0.00    +0.000 C 
BRANCH  33  34
ATOM     34  CG  LYS A   2       1.349   3.306  18.374  0.00  0.00    +0.000 C 
BRANCH  34  35
ATOM     35  CD  LYS A   2       1.156   3.549  19.871  0.00  0.00    +0.000 C 
BRANCH  35  36
ATOM     36  CE  LYS A   2       1.752   2.409  20.696  0.00  0.00    +0.000 C 
BRANCH  36  37
ATOM     37  NZ  LYS A   2       1.639   2.681  22.120  0.00  0.00    +0.000 NA
ATOM     38  HZ1 LYS A   2       1.804   1.825  22.643  0.00  0.00    +0.000 HD
ATOM     39  HZ2 LYS A   2       0.682   2.968  22.319  0.00  0.00    +0.000 HD
ENDBRANCH  36  37
ENDBRANCH  35  36
ENDBRANCH  34  35
ENDBRANCH  33  34
ENDBRANCH   1  33
TORSDOF 22
ENDMDL
MODEL 3
REMARK VINA RESULT:      -6.0      2.168      7.723
REMARK  Name = 
REMARK  22 active torsions:
REMARK  status: ('A' for Active; 'I' for Inactive)
REMARK    1  A    between atoms: NZ_1  and  CE_2
REMARK    2  A    between atoms: CE_2  and  CD_3
REMARK    3  A    between atoms: CD_3  and  CG_4
REMARK    4  A    between atoms: CG_4  and  CB_5
REMARK    5  A    between atoms: CB_5  and  CA_6
REMARK    6  A    between atoms: CA_6  and  N_7
REMARK    7  A    between atoms: CA_6  and  C_8
REMARK    8  A    between atoms: N_10  and  CA_11
REMARK    9  A    between atoms: CA_11  and  CB_12
REMARK   10  A    between atoms: CA_11  and  C_17
REMARK   11  A    between atoms: CB_12  and  CG_13
REMARK   12  A    between atoms: CG_13  and  CD_14
REMARK   13  A    between atoms: CD_14  and  CE_15
REMARK   14  A    between atoms: CE_15  and  NZ_16
REMARK   15  A    between atoms: N_19  and  CA_20
REMARK   16  A    between atoms: CA_20  and  CB_21
REMARK   17  A    between atoms: CA_20  and  C_26
REMARK   18  A    between atoms: CB_21  and  CG_22
REMARK   19  A    between atoms: CG_22  and  CD_23
REMARK   20  A    between atoms: CD_23  and  CE_24
REMARK   21  A    between atoms: CE_24  and  NZ_25
REMARK   22  A    between atoms: C_26  and  OXT_28
REMARK                            x       y       z     vdW  Elec       q    Type
REMARK                         _______ _______ _______ _____ _____    ______ ____
ROOT
ATOM      1  CA  LYS A   2       3.154   4.506  19.134  0.00  0.00    +0.000 C 
ENDROOT
BRANCH   1   4
ATOM      2  C   LYS A   1       2.369   6.831  19.549  0.00  0.00    +0.000 C 
ATOM      3  O   LYS A   1       1.737   6.529  20.556  0.00  0.00    +0.000 OA
ATOM      4  N   LYS A   2       3.115   5.934  18.820  0.00  0.00    +0.000 N 
ATOM      5  H   LYS A   2       3.557   6.228  17.954  0.00  0.00    +0.000 HD
BRANCH   2   6
ATOM      6  CA  LYS A   1       2.362   8.262  18.982  0.00  0.00    +0.000 C 
BRANCH   6   7
ATOM      7  N   LYS A   1       2.204   8.182  17.512  0.00  0.00    +0.000 NA
ATOM      8  H1  LYS A   1       2.149   9.121  17.122  0.00  0.00    +0.000 HD
ATOM      9  H2  LYS A   1       1.289   7.763  17.323  0.00  0.00    +0.000 HD
ENDBRANCH   6   7
BRANCH   6  10
ATOM     10  CB  LYS A   1       1.254   9.109  19.628  0.00  0.00    +0.000 C 
BRANCH  10  11
ATOM     11  CG  LYS A   1       0.572  10.028  18.605  0.00  0.00    +0.000 C 
BRANCH  11  12
ATOM     12  CD  LYS A   1       0.179  11.375  19.213  0.00  0.00    +0.000 C 
BRANCH  12  13
ATOM     13  CE  LYS A   1       0.450  11.371  20.715  0.00  0.00    +0.000 C 
BRANCH  13  14
ATOM     14  NZ  LYS A   1       1.335  12.469  21.082  0.00  0.00    +0.000 NA
ATOM     15  HZ1 LYS A   1       2.086  12.533  20.394  0.00  0.00    +0.000 HD
ATOM     16  HZ2 LYS A   1       1.784  12.265  21.974  0.00  0.00    +0.000 HD
ENDBRANCH  13  14
ENDBRANCH  12  13
ENDBRANCH  11  12
ENDBRANCH  10  11
ENDBRANCH   6  10
ENDBRANCH   2   6
ENDBRANCH   1   4
BRANCH   1  17
ATOM     17  C   LYS A   2       4.640   4.070  19.110  0.00  0.00    +0.000 C 
ATOM     18  O   LYS A   2       5.051   3.076  19.704  0.00  0.00    +0.000 OA
ATOM     19  N   LYS A   3       5.457   4.876  18.363  0.00  0.00    +0.000 N 
ATOM     20  H   LYS A   3       5.090   5.734  17.957  0.00  0.00    +0.000 HD
BRANCH  19  21
ATOM     21  CA  LYS A   3       6.901   4.666  18.257  0.00  0.00    +0.000 C 
BRANCH  21  22
ATOM     22  C   LYS A   3       7.600   5.779  19.046  0.00  0.00    +0.000 C 
ATOM     23  O   LYS A   3       7.972   6.839  18.543  0.00  0.00    +0.000 OA
BRANCH  22  24
ATOM     24  OXT LYS A   3       7.792   5.512  20.357  0.00  0.00    +0.000 OA
ATOM     25  HXT LYS A   3       8.435   4.801  20.542  0.00  0.00    +0.000 HD
ENDBRANCH  22  24
ENDBRANCH  21  22
BRANCH  21  26
ATOM     26  CB  LYS A   3       7.352   4.647  16.784  0.00  0.00    +0.000 C 
BRANCH  26  27
ATOM     27  CG  LYS A   3       6.197   5.009  15.848  0.00  0.00    +0.000 C 
BRANCH  27  28
ATOM     28  CD  LYS A   3       6.537   4.924  14.363  0.00  0.00    +0.000 C 
BRANCH  28  29
ATOM     29  CE  LYS A   3       5.624   3.875  13.721  0.00  0.00    +0.000 C 
BRANCH  29  30
ATOM     30  NZ  LYS A   3       6.326   3.124  12.694  0.00  0.00    +0.000 NA
ATOM     31  HZ1 LYS A   3       5.745   2.348  12.380  0.00  0.00    +0.000 HD
ATOM     32  HZ2 LYS A   3       7.158   2.701  13.106  0.00  0.00    +0.000 HD
ENDBRANCH  29  30
ENDBRANCH  28  29
ENDBRANCH  27  28
ENDBRANCH  26  27
ENDBRANCH  21  26
ENDBRANCH  19  21
ENDBRANCH   1  17
BRANCH   1  33
ATOM     33  CB  LYS A   2       2.402   3.669  18.098  0.00  0.00    +0.000 C 
BRANCH  33  34
ATOM     34  CG  LYS A   2       1.309   2.799  18.728  0.00  0.00    +0.000 C 
BRANCH  34  35
ATOM     35  CD  LYS A   2       0.931   3.271  20.132  0.00  0.00    +0.000 C 
BRANCH  35  36
ATOM     36  CE  LYS A   2       1.536   2.362  21.201  0.00  0.00    +0.000 C 
BRANCH  36  37
ATOM     37  NZ  LYS A   2       2.279   3.134  22.184  0.00  0.00    +0.000 NA
ATOM     38  HZ1 LYS A   2       2.705   2.505  22.859  0.00  0.00    +0.000 HD
ATOM     39  HZ2 LYS A   2       1.623   3.719  22.699  0.00  0.00    +0.000 HD
ENDBRANCH  36  37
ENDBRANCH  35  36
ENDBRANCH  34  35
ENDBRANCH  33  34
ENDBRANCH   1  33
TORSDOF 22
ENDMDL
MODEL 4
REMARK VINA RESULT:      -5.9      3.138      5.951
REMARK  Name = 
REMARK  22 active torsions:
REMARK  status: ('A' for Active; 'I' for Inactive)
REMARK    1  A    between atoms: NZ_1  and  CE_2
REMARK    2  A    between atoms: CE_2  and  CD_3
REMARK    3  A    between atoms: CD_3  and  CG_4
REMARK    4  A    between atoms: CG_4  and  CB_5
REMARK    5  A    between atoms: CB_5  and  CA_6
REMARK    6  A    between atoms: CA_6  and  N_7
REMARK    7  A    between atoms: CA_6  and  C_8
REMARK    8  A    between atoms: N_10  and  CA_11
REMARK    9  A    between atoms: CA_11  and  CB_12
REMARK   10  A    between atoms: CA_11  and  C_17
REMARK   11  A    between atoms: CB_12  and  CG_13
REMARK   12  A    between atoms: CG_13  and  CD_14
REMARK   13  A    between atoms: CD_14  and  CE_15
REMARK   14  A    between atoms: CE_15  and  NZ_16
REMARK   15  A    between atoms: N_19  and  CA_20
REMARK   16  A    between atoms: CA_20  and  CB_21
REMARK   17  A    between atoms: CA_20  and  C_26
REMARK   18  A    between atoms: CB_21  and  CG_22
REMARK   19  A    between atoms: CG_22  and  CD_23
REMARK   20  A    between atoms: CD_23  and  CE_24
REMARK   21  A    between atoms: CE_24  and  NZ_25
REMARK   22  A    between atoms: C_26  and  OXT_28
REMARK                            x       y       z     vdW  Elec       q    Type
REMARK                         _______ _______ _______ _____ _____    ______ ____
ROOT
ATOM      1  CA  LYS A   2       5.503   3.965  18.016  0.00  0.00    +0.000 C 
ENDROOT
BRANCH   1   4
ATOM      2  C   LYS A   1       5.695   5.179  15.852  0.00  0.00    +0.000 C 
ATOM      3  O   LYS A   1       5.086   6.165  16.254  0.00  0.00    +0.000 OA
ATOM      4  N   LYS A   2       5.980   4.087  16.639  0.00  0.00    +0.000 N 
ATOM      5  H   LYS A   2       6.424   3.270  16.229  0.00  0.00    +0.000 HD
BRANCH   2   6
ATOM      6  CA  LYS A   1       6.181   5.059  14.397  0.00  0.00    +0.000 C 
BRANCH   6   7
ATOM      7  N   LYS A   1       7.605   5.463  14.343  0.00  0.00    +0.000 NA
ATOM      8  H1  LYS A   1       7.916   5.495  13.374  0.00  0.00    +0.000 HD
ATOM      9  H2  LYS A   1       8.154   4.714  14.773  0.00  0.00    +0.000 HD
ENDBRANCH   6   7
BRANCH   6  10
ATOM     10  CB  LYS A   1       5.975   3.633  13.860  0.00  0.00    +0.000 C 
BRANCH  10  11
ATOM     11  CG  LYS A   1       6.214   3.557  12.345  0.00  0.00    +0.000 C 
BRANCH  11  12
ATOM     12  CD  LYS A   1       5.195   2.656  11.646  0.00  0.00    +0.000 C 
BRANCH  12  13
ATOM     13  CE  LYS A   1       5.844   1.329  11.262  0.00  0.00    +0.000 C 
BRANCH  13  14
ATOM     14  NZ  LYS A   1       7.294   1.464  11.197  0.00  0.00    +0.000 NA
ATOM     15  HZ1 LYS A   1       7.591   1.367  10.226  0.00  0.00    +0.000 HD
ATOM     16  HZ2 LYS A   1       7.733   0.699  11.706  0.00  0.00    +0.000 HD
ENDBRANCH  13  14
ENDBRANCH  12  13
ENDBRANCH  11  12
ENDBRANCH  10  11
ENDBRANCH   6  10
ENDBRANCH   2   6
ENDBRANCH   1   4
BRANCH   1  17
ATOM     17  C   LYS A   2       3.993   4.307  18.011  0.00  0.00    +0.000 C 
ATOM     18  O   LYS A   2       3.180   3.720  17.299  0.00  0.00    +0.000 OA
ATOM     19  N   LYS A   3       3.633   5.308  18.873  0.00  0.00    +0.000 N 
ATOM     20  H   LYS A   3       4.350   5.822  19.381  0.00  0.00    +0.000 HD
BRANCH  19  21
ATOM     21  CA  LYS A   3       2.265   5.816  18.978  0.00  0.00    +0.000 C 
BRANCH  21  22
ATOM     22  C   LYS A   3       2.336   7.338  19.142  0.00  0.00    +0.000 C 
ATOM     23  O   LYS A   3       1.981   7.930  20.160  0.00  0.00    +0.000 OA
BRANCH  22  24
ATOM     24  OXT LYS A   3       2.819   8.003  18.069  0.00  0.00    +0.000 OA
ATOM     25  HXT LYS A   3       2.141   8.331  17.448  0.00  0.00    +0.000 HD
ENDBRANCH  22  24
ENDBRANCH  21  22
BRANCH  21  26
ATOM     26  CB  LYS A   3       1.517   5.154  20.151  0.00  0.00    +0.000 C 
BRANCH  26  27
ATOM     27  CG  LYS A   3       2.473   4.346  21.031  0.00  0.00    +0.000 C 
BRANCH  27  28
ATOM     28  CD  LYS A   3       2.088   2.880  21.201  0.00  0.00    +0.000 C 
BRANCH  28  29
ATOM     29  CE  LYS A   3       1.146   2.495  20.057  0.00  0.00    +0.000 C 
BRANCH  29  30
ATOM     30  NZ  LYS A   3       1.822   1.666  19.074  0.00  0.00    +0.000 NA
ATOM     31  HZ1 LYS A   3       2.097   2.237  18.275  0.00  0.00    +0.000 HD
ATOM     32  HZ2 LYS A   3       1.161   0.979  18.711  0.00  0.00    +0.000 HD
ENDBRANCH  29  30
ENDBRANCH  28  29
ENDBRANCH  27  28
ENDBRANCH  26  27
ENDBRANCH  21  26
ENDBRANCH  19  21
ENDBRANCH   1  17
BRANCH   1  33
ATOM     33  CB  LYS A   2       6.204   4.947  18.956  0.00  0.00    +0.000 C 
BRANCH  33  34
ATOM     34  CG  LYS A   2       7.567   5.400  18.421  0.00  0.00    +0.000 C 
BRANCH  34  35
ATOM     35  CD  LYS A   2       8.105   6.621  19.166  0.00  0.00    +0.000 C 
BRANCH  35  36
ATOM     36  CE  LYS A   2       8.186   7.838  18.245  0.00  0.00    +0.000 C 
BRANCH  36  37
ATOM     37  NZ  LYS A   2       7.644   7.536  16.931  0.00  0.00    +0.000 NA
ATOM     38  HZ1 LYS A   2       8.400   7.281  16.302  0.00  0.00    +0.000 HD
ATOM     39  HZ2 LYS A   2       7.219   8.381  16.553  0.00  0.00    +0.000 HD
ENDBRANCH  36  37
ENDBRANCH  35  36
ENDBRANCH  34  35
ENDBRANCH  33  34
ENDBRANCH   1  33
TORSDOF 22
ENDMDL
MODEL 5
REMARK VINA RESULT:      -5.8      2.567      7.104
REMARK  Name = 
REMARK  22 active torsions:
REMARK  status: ('A' for Active; 'I' for Inactive)
REMARK    1  A    between atoms: NZ_1  and  CE_2
REMARK    2  A    between atoms: CE_2  and  CD_3
REMARK    3  A    between atoms: CD_3  and  CG_4
REMARK    4  A    between atoms: CG_4  and  CB_5
REMARK    5  A    between atoms: CB_5  and  CA_6
REMARK    6  A    between atoms: CA_6  and  N_7
REMARK    7  A    between atoms: CA_6  and  C_8
REMARK    8  A    between atoms: N_10  and  CA_11
REMARK    9  A    between atoms: CA_11  and  CB_12
REMARK   10  A    between atoms: CA_11  and  C_17
REMARK   11  A    between atoms: CB_12  and  CG_13
REMARK   12  A    between atoms: CG_13  and  CD_14
REMARK   13  A    between atoms: CD_14  and  CE_15
REMARK   14  A    between atoms: CE_15  and  NZ_16
REMARK   15  A    between atoms: N_19  and  CA_20
REMARK   16  A    between atoms: CA_20  and  CB_21
REMARK   17  A    between atoms: CA_20  and  C_26
REMARK   18  A    between atoms: CB_21  and  CG_22
REMARK   19  A    between atoms: CG_22  and  CD_23
REMARK   20  A    between atoms: CD_23  and  CE_24
REMARK   21  A    between atoms: CE_24  and  NZ_25
REMARK   22  A    between atoms: C_26  and  OXT_28
REMARK                            x       y       z     vdW  Elec       q    Type
REMARK                         _______ _______ _______ _____ _____    ______ ____
ROOT
ATOM      1  CA  LYS A   2       3.539   4.502  18.835  0.00  0.00    +0.000 C 
ENDROOT
BRANCH   1   4
ATOM      2  C   LYS A   1       2.269   6.241  20.081  0.00  0.00    +0.000 C 
ATOM      3  O   LYS A   1       2.219   5.585  21.116  0.00  0.00    +0.000 OA
ATOM      4  N   LYS A   2       2.918   5.821  18.943  0.00  0.00    +0.000 N 
ATOM      5  H   LYS A   2       2.862   6.376  18.094  0.00  0.00    +0.000 HD
BRANCH   2   6
ATOM      6  CA  LYS A   1       1.575   7.609  19.949  0.00  0.00    +0.000 C 
BRANCH   6   7
ATOM      7  N   LYS A   1       1.730   8.339  21.228  0.00  0.00    +0.000 NA
ATOM      8  H1  LYS A   1       0.855   8.310  21.748  0.00  0.00    +0.000 HD
ATOM      9  H2  LYS A   1       1.873   9.327  21.004  0.00  0.00    +0.000 HD
ENDBRANCH   6   7
BRANCH   6  10
ATOM     10  CB  LYS A   1       2.146   8.408  18.766  0.00  0.00    +0.000 C 
BRANCH  10  11
ATOM     11  CG  LYS A   1       1.145   9.452  18.250  0.00  0.00    +0.000 C 
BRANCH  11  12
ATOM     12  CD  LYS A   1       1.521  10.871  18.678  0.00  0.00    +0.000 C 
BRANCH  12  13
ATOM     13  CE  LYS A   1       0.521  11.392  19.706  0.00  0.00    +0.000 C 
BRANCH  13  14
ATOM     14  NZ  LYS A   1       1.103  11.381  21.042  0.00  0.00    +0.000 NA
ATOM     15  HZ1 LYS A   1       1.169  10.416  21.366  0.00  0.00    +0.000 HD
ATOM     16  HZ2 LYS A   1       0.479  11.857  21.692  0.00  0.00    +0.000 HD
ENDBRANCH  13  14
ENDBRANCH  12  13
ENDBRANCH  11  12
ENDBRANCH  10  11
ENDBRANCH   6  10
ENDBRANCH   2   6
ENDBRANCH   1   4
BRANCH   1  17
ATOM     17  C   LYS A   2       5.013   4.721  18.411  0.00  0.00    +0.000 C 
ATOM     18  O   LYS A   2       5.955   4.166  18.971  0.00  0.00    +0.000 OA
ATOM     19  N   LYS A   3       5.180   5.576  17.354  0.00  0.00    +0.000 N 
ATOM     20  H   LYS A   3       4.378   6.077  16.976  0.00  0.00    +0.000 HD
BRANCH  19  21
ATOM     21  CA  LYS A   3       6.495   5.956  16.838  0.00  0.00    +0.000 C 
BRANCH  21  22
ATOM     22  C   LYS A   3       7.161   4.700  16.267  0.00  0.00    +0.000 C 
ATOM     23  O   LYS A   3       6.885   4.224  15.166  0.00  0.00    +0.000 OA
BRANCH  22  24
ATOM     24  OXT LYS A   3       8.086   4.131  17.072  0.00  0.00    +0.000 OA
ATOM     25  HXT LYS A   3       9.013   4.312  16.825  0.00  0.00    +0.000 HD
ENDBRANCH  22  24
ENDBRANCH  21  22
BRANCH  21  26
ATOM     26  CB  LYS A   3       7.356   6.604  17.938  0.00  0.00    +0.000 C 
BRANCH  26  27
ATOM     27  CG  LYS A   3       7.750   8.034  17.563  0.00  0.00    +0.000 C 
BRANCH  27  28
ATOM     28  CD  LYS A   3       8.604   8.748  18.606  0.00  0.00    +0.000 C 
BRANCH  28  29
ATOM     29  CE  LYS A   3       8.791  10.201  18.162  0.00  0.00    +0.000 C 
BRANCH  29  30
ATOM     30  NZ  LYS A   3       9.754  10.890  19.002  0.00  0.00    +0.000 NA
ATOM     31  HZ1 LYS A   3       9.628  10.605  19.973  0.00  0.00    +0.000 HD
ATOM     32  HZ2 LYS A   3       9.558  11.891  18.977  0.00  0.00    +0.000 HD
ENDBRANCH  29  30
ENDBRANCH  28  29
ENDBRANCH  27  28
ENDBRANCH  26  27
ENDBRANCH  21  26
ENDBRANCH  19  21
ENDBRANCH   1  17
BRANCH   1  33
ATOM     33  CB  LYS A   2       2.867   3.636  17.767  0.00  0.00    +0.000 C 
BRANCH  33  34
ATOM     34  CG  LYS A   2       1.584   2.970  18.275  0.00  0.00    +0.000 C 
BRANCH  34  35
ATOM     35  CD  LYS A   2       1.838   2.068  19.482  0.00  0.00    +0.000 C 
BRANCH  35  36
ATOM     36  CE  LYS A   2       1.159   2.619  20.735  0.00  0.00    +0.000 C 
BRANCH  36  37
ATOM     37  NZ  LYS A   2       2.095   2.697  21.845  0.00  0.00    +0.000 NA
ATOM     38  HZ1 LYS A   2       3.040   2.803  21.486  0.00  0.00    +0.000 HD
ATOM     39  HZ2 LYS A   2       2.070   1.815  22.353  0.00  0.00    +0.000 HD
ENDBRANCH  36  37
ENDBRANCH  35  36
ENDBRANCH  34  35
ENDBRANCH  33  34
ENDBRANCH   1  33
TORSDOF 22
ENDMDL
MODEL 6
REMARK VINA RESULT:      -5.8      2.830      7.107
REMARK  Name = 
REMARK  22 active torsions:
REMARK  status: ('A' for Active; 'I' for Inactive)
REMARK    1  A    between atoms: NZ_1  and  CE_2
REMARK    2  A    between atoms: CE_2  and  CD_3
REMARK    3  A    between atoms: CD_3  and  CG_4
REMARK    4  A    between atoms: CG_4  and  CB_5
REMARK    5  A    between atoms: CB_5  and  CA_6
REMARK    6  A    between atoms: CA_6  and  N_7
REMARK    7  A    between atoms: CA_6  and  C_8
REMARK    8  A    between atoms: N_10  and  CA_11
REMARK    9  A    between atoms: CA_11  and  CB_12
REMARK   10  A    between atoms: CA_11  and  C_17
REMARK   11  A    between atoms: CB_12  and  CG_13
REMARK   12  A    between atoms: CG_13  and  CD_14
REMARK   13  A    between atoms: CD_14  and  CE_15
REMARK   14  A    between atoms: CE_15  and  NZ_16
REMARK   15  A    between atoms: N_19  and  CA_20
REMARK   16  A    between atoms: CA_20  and  CB_21
REMARK   17  A    between atoms: CA_20  and  C_26
REMARK   18  A    between atoms: CB_21  and  CG_22
REMARK   19  A    between atoms: CG_22  and  CD_23
REMARK   20  A    between atoms: CD_23  and  CE_24
REMARK   21  A    between atoms: CE_24  and  NZ_25
REMARK   22  A    between atoms: C_26  and  OXT_28
REMARK                            x       y       z     vdW  Elec       q    Type
REMARK                         _______ _______ _______ _____ _____    ______ ____
ROOT
ATOM      1  CA  LYS A   2       3.245   5.991  18.389  0.00  0.00    +0.000 C 
ENDROOT
BRANCH   1   4
ATOM      2  C   LYS A   1       2.066   7.980  19.308  0.00  0.00    +0.000 C 
ATOM      3  O   LYS A   1       1.786   7.431  20.368  0.00  0.00    +0.000 OA
ATOM      4  N   LYS A   2       2.800   7.381  18.310  0.00  0.00    +0.000 N 
ATOM      5  H   LYS A   2       2.937   7.861  17.425  0.00  0.00    +0.000 HD
BRANCH   2   6
ATOM      6  CA  LYS A   1       1.590   9.406  18.978  0.00  0.00    +0.000 C 
BRANCH   6   7
ATOM      7  N   LYS A   1       1.550   9.559  17.506  0.00  0.00    +0.000 NA
ATOM      8  H1  LYS A   1       1.938   8.727  17.065  0.00  0.00    +0.000 HD
ATOM      9  H2  LYS A   1       2.193  10.315  17.257  0.00  0.00    +0.000 HD
ENDBRANCH   6   7
BRANCH   6  10
ATOM     10  CB  LYS A   1       0.220   9.694  19.616  0.00  0.00    +0.000 C 
BRANCH  10  11
ATOM     11  CG  LYS A   1       0.122  11.140  20.122  0.00  0.00    +0.000 C 
BRANCH  11  12
ATOM     12  CD  LYS A   1      -0.062  11.208  21.639  0.00  0.00    +0.000 C 
BRANCH  12  13
ATOM     13  CE  LYS A   1      -0.252   9.804  22.207  0.00  0.00    +0.000 C 
BRANCH  13  14
ATOM     14  NZ  LYS A   1       0.271   9.722  23.564  0.00  0.00    +0.000 NA
ATOM     15  HZ1 LYS A   1       0.858   8.892  23.643  0.00  0.00    +0.000 HD
ATOM     16  HZ2 LYS A   1      -0.497   9.590  24.221  0.00  0.00    +0.000 HD
ENDBRANCH  13  14
ENDBRANCH  12  13
ENDBRANCH  11  12
ENDBRANCH  10  11
ENDBRANCH   6  10
ENDBRANCH   2   6
ENDBRANCH   1   4
BRANCH   1  17
ATOM     17  C   LYS A   2       4.533   5.871  17.536  0.00  0.00    +0.000 C 
ATOM     18  O   LYS A   2       4.566   5.273  16.463  0.00  0.00    +0.000 OA
ATOM     19  N   LYS A   3       5.629   6.495  18.069  0.00  0.00    +0.000 N 
ATOM     20  H   LYS A   3       5.576   6.906  18.999  0.00  0.00    +0.000 HD
BRANCH  19  21
ATOM     21  CA  LYS A   3       6.952   6.452  17.445  0.00  0.00    +0.000 C 
BRANCH  21  22
ATOM     22  C   LYS A   3       7.374   4.983  17.333  0.00  0.00    +0.000 C 
ATOM     23  O   LYS A   3       7.623   4.270  18.304  0.00  0.00    +0.000 OA
BRANCH  22  24
ATOM     24  OXT LYS A   3       7.465   4.513  16.069  0.00  0.00    +0.000 OA
ATOM     25  HXT LYS A   3       8.116   4.972  15.504  0.00  0.00    +0.000 HD
ENDBRANCH  22  24
ENDBRANCH  21  22
BRANCH  21  26
ATOM     26  CB  LYS A   3       7.973   7.275  18.254  0.00  0.00    +0.000 C 
BRANCH  26  27
ATOM     27  CG  LYS A   3       7.984   8.738  17.805  0.00  0.00    +0.000 C 
BRANCH  27  28
ATOM     28  CD  LYS A   3       8.822   9.661  18.683  0.00  0.00    +0.000 C 
BRANCH  28  29
ATOM     29  CE  LYS A   3       8.914  11.026  17.995  0.00  0.00    +0.000 C 
BRANCH  29  30
ATOM     30  NZ  LYS A   3       9.842  11.904  18.687  0.00  0.00    +0.000 NA
ATOM     31  HZ1 LYS A   3       9.567  11.992  19.664  0.00  0.00    +0.000 HD
ATOM     32  HZ2 LYS A   3       9.766  12.841  18.291  0.00  0.00    +0.000 HD
ENDBRANCH  29  30
ENDBRANCH  28  29
ENDBRANCH  27  28
ENDBRANCH  26  27
ENDBRANCH  21  26
ENDBRANCH  19  21
ENDBRANCH   1  17
BRANCH   1  33
ATOM     33  CB  LYS A   2       2.209   5.023  17.813  0.00  0.00    +0.000 C 
BRANCH  33  34
ATOM     34  CG  LYS A   2       1.584   4.127  18.888  0.00  0.00    +0.000 C 
BRANCH  34  35
ATOM     35  CD  LYS A   2       2.368   2.831  19.089  0.00  0.00    +0.000 C 
BRANCH  35  36
ATOM     36  CE  LYS A   2       2.906   2.300  17.760  0.00  0.00    +0.000 C 
BRANCH  36  37
ATOM     37  NZ  LYS A   2       4.360   2.281  17.755  0.00  0.00    +0.000 NA
ATOM     38  HZ1 LYS A   2       4.710   3.155  17.373  0.00  0.00    +0.000 HD
ATOM     39  HZ2 LYS A   2       4.672   1.540  17.131  0.00  0.00    +0.000 HD
ENDBRANCH  36  37
ENDBRANCH  35  36
ENDBRANCH  34  35
ENDBRANCH  33  34
ENDBRANCH   1  33
TORSDOF 22
ENDMDL
MODEL 7
REMARK VINA RESULT:      -5.7      3.322      5.788
REMARK  Name = 
REMARK  22 active torsions:
REMARK  status: ('A' for Active; 'I' for Inactive)
REMARK    1  A    between atoms: NZ_1  and  CE_2
REMARK    2  A    between atoms: CE_2  and  CD_3
REMARK    3  A    between atoms: CD_3  and  CG_4
REMARK    4  A    between atoms: CG_4  and  CB_5
REMARK    5  A    between atoms: CB_5  and  CA_6
REMARK    6  A    between atoms: CA_6  and  N_7
REMARK    7  A    between atoms: CA_6  and  C_8
REMARK    8  A    between atoms: N_10  and  CA_11
REMARK    9  A    between atoms: CA_11  and  CB_12
REMARK   10  A    between atoms: CA_11  and  C_17
REMARK   11  A    between atoms: CB_12  and  CG_13
REMARK   12  A    between atoms: CG_13  and  CD_14
REMARK   13  A    between atoms: CD_14  and  CE_15
REMARK   14  A    between atoms: CE_15  and  NZ_16
REMARK   15  A    between atoms: N_19  and  CA_20
REMARK   16  A    between atoms: CA_20  and  CB_21
REMARK   17  A    between atoms: CA_20  and  C_26
REMARK   18  A    between atoms: CB_21  and  CG_22
REMARK   19  A    between atoms: CG_22  and  CD_23
REMARK   20  A    between atoms: CD_23  and  CE_24
REMARK   21  A    between atoms: CE_24  and  NZ_25
REMARK   22  A    between atoms: C_26  and  OXT_28
REMARK                            x       y       z     vdW  Elec       q    Type
REMARK                         _______ _______ _______ _____ _____    ______ ____
ROOT
ATOM      1  CA  LYS A   2       5.919   3.967  18.490  0.00  0.00    +0.000 C 
ENDROOT
BRANCH   1   4
ATOM      2  C   LYS A   1       6.307   4.085  16.035  0.00  0.00    +0.000 C 
ATOM      3  O   LYS A   1       7.520   3.936  16.132  0.00  0.00    +0.000 OA
ATOM      4  N   LYS A   2       5.448   4.074  17.110  0.00  0.00    +0.000 N 
ATOM      5  H   LYS A   2       4.462   4.276  16.973  0.00  0.00    +0.000 HD
BRANCH   2   6
ATOM      6  CA  LYS A   1       5.623   4.332  14.678  0.00  0.00    +0.000 C 
BRANCH   6   7
ATOM      7  N   LYS A   1       5.401   5.787  14.522  0.00  0.00    +0.000 NA
ATOM      8  H1  LYS A   1       4.603   6.075  15.085  0.00  0.00    +0.000 HD
ATOM      9  H2  LYS A   1       5.116   5.954  13.553  0.00  0.00    +0.000 HD
ENDBRANCH   6   7
BRANCH   6  10
ATOM     10  CB  LYS A   1       6.460   3.758  13.523  0.00  0.00    +0.000 C 
BRANCH  10  11
ATOM     11  CG  LYS A   1       5.683   3.767  12.198  0.00  0.00    +0.000 C 
BRANCH  11  12
ATOM     12  CD  LYS A   1       5.320   2.356  11.735  0.00  0.00    +0.000 C 
BRANCH  12  13
ATOM     13  CE  LYS A   1       6.568   1.626  11.247  0.00  0.00    +0.000 C 
BRANCH  13  14
ATOM     14  NZ  LYS A   1       6.347   0.186  11.226  0.00  0.00    +0.000 NA
ATOM     15  HZ1 LYS A   1       6.966  -0.253  11.907  0.00  0.00    +0.000 HD
ATOM     16  HZ2 LYS A   1       6.615  -0.189  10.317  0.00  0.00    +0.000 HD
ENDBRANCH  13  14
ENDBRANCH  12  13
ENDBRANCH  11  12
ENDBRANCH  10  11
ENDBRANCH   6  10
ENDBRANCH   2   6
ENDBRANCH   1   4
BRANCH   1  17
ATOM     17  C   LYS A   2       4.774   3.334  19.319  0.00  0.00    +0.000 C 
ATOM     18  O   LYS A   2       4.958   2.415  20.114  0.00  0.00    +0.000 OA
ATOM     19  N   LYS A   3       3.541   3.889  19.103  0.00  0.00    +0.000 N 
ATOM     20  H   LYS A   3       3.421   4.591  18.375  0.00  0.00    +0.000 HD
BRANCH  19  21
ATOM     21  CA  LYS A   3       2.323   3.397  19.747  0.00  0.00    +0.000 C 
BRANCH  21  22
ATOM     22  C   LYS A   3       1.295   3.100  18.650  0.00  0.00    +0.000 C 
ATOM     23  O   LYS A   3       0.260   2.463  18.842  0.00  0.00    +0.000 OA
BRANCH  22  24
ATOM     24  OXT LYS A   3       1.609   3.588  17.429  0.00  0.00    +0.000 OA
ATOM     25  HXT LYS A   3       2.563   3.592  17.221  0.00  0.00    +0.000 HD
ENDBRANCH  22  24
ENDBRANCH  21  22
BRANCH  21  26
ATOM     26  CB  LYS A   3       1.784   4.420  20.766  0.00  0.00    +0.000 C 
BRANCH  26  27
ATOM     27  CG  LYS A   3       1.288   5.688  20.067  0.00  0.00    +0.000 C 
BRANCH  27  28
ATOM     28  CD  LYS A   3       2.252   6.867  20.141  0.00  0.00    +0.000 C 
BRANCH  28  29
ATOM     29  CE  LYS A   3       1.466   8.104  20.585  0.00  0.00    +0.000 C 
BRANCH  29  30
ATOM     30  NZ  LYS A   3       1.759   8.447  21.966  0.00  0.00    +0.000 NA
ATOM     31  HZ1 LYS A   3       0.973   8.957  22.367  0.00  0.00    +0.000 HD
ATOM     32  HZ2 LYS A   3       2.549   9.092  21.985  0.00  0.00    +0.000 HD
ENDBRANCH  29  30
ENDBRANCH  28  29
ENDBRANCH  27  28
ENDBRANCH  26  27
ENDBRANCH  21  26
ENDBRANCH  19  21
ENDBRANCH   1  17
BRANCH   1  33
ATOM     33  CB  LYS A   2       6.237   5.335  19.096  0.00  0.00    +0.000 C 
BRANCH  33  34
ATOM     34  CG  LYS A   2       7.738   5.643  19.094  0.00  0.00    +0.000 C 
BRANCH  34  35
ATOM     35  CD  LYS A   2       8.027   7.111  18.784  0.00  0.00    +0.000 C 
BRANCH  35  36
ATOM     36  CE  LYS A   2       7.362   7.541  17.477  0.00  0.00    +0.000 C 
BRANCH  36  37
ATOM     37  NZ  LYS A   2       7.812   6.718  16.366  0.00  0.00    +0.000 NA
ATOM     38  HZ1 LYS A   2       8.660   7.114  15.971  0.00  0.00    +0.000 HD
ATOM     39  HZ2 LYS A   2       7.104   6.746  15.635  0.00  0.00    +0.000 HD
ENDBRANCH  36  37
ENDBRANCH  35  36
ENDBRANCH  34  35
ENDBRANCH  33  34
ENDBRANCH   1  33
TORSDOF 22
ENDMDL
MODEL 8
REMARK VINA RESULT:      -5.7      4.112      6.816
REMARK  Name = 
REMARK  22 active torsions:
REMARK  status: ('A' for Active; 'I' for Inactive)
REMARK    1  A    between atoms: NZ_1  and  CE_2
REMARK    2  A    between atoms: CE_2  and  CD_3
REMARK    3  A    between atoms: CD_3  and  CG_4
REMARK    4  A    between atoms: CG_4  and  CB_5
REMARK    5  A    between atoms: CB_5  and  CA_6
REMARK    6  A    between atoms: CA_6  and  N_7
REMARK    7  A    between atoms: CA_6  and  C_8
REMARK    8  A    between atoms: N_10  and  CA_11
REMARK    9  A    between atoms: CA_11  and  CB_12
REMARK   10  A    between atoms: CA_11  and  C_17
REMARK   11  A    between atoms: CB_12  and  CG_13
REMARK   12  A    between atoms: CG_13  and  CD_14
REMARK   13  A    between atoms: CD_14  and  CE_15
REMARK   14  A    between atoms: CE_15  and  NZ_16
REMARK   15  A    between atoms: N_19  and  CA_20
REMARK   16  A    between atoms: CA_20  and  CB_21
REMARK   17  A    between atoms: CA_20  and  C_26
REMARK   18  A    between atoms: CB_21  and  CG_22
REMARK   19  A    between atoms: CG_22  and  CD_23
REMARK   20  A    between atoms: CD_23  and  CE_24
REMARK   21  A    between atoms: CE_24  and  NZ_25
REMARK   22  A    between atoms: C_26  and  OXT_28
REMARK                            x       y       z     vdW  Elec       q    Type
REMARK                         _______ _______ _______ _____ _____    ______ ____
ROOT
ATOM      1  CA  LYS A   2       6.224   4.105  15.725  0.00  0.00    +0.000 C 
ENDROOT
BRANCH   1   4
ATOM      2  C   LYS A   1       6.477   4.015  13.251  0.00  0.00    +0.000 C 
ATOM      3  O   LYS A   1       7.326   4.899  13.220  0.00  0.00    +0.000 OA
ATOM      4  N   LYS A   2       5.916   3.536  14.413  0.00  0.00    +0.000 N 
ATOM      5  H   LYS A   2       5.165   2.855  14.370  0.00  0.00    +0.000 HD
BRANCH   2   6
ATOM      6  CA  LYS A   1       5.929   3.366  11.967  0.00  0.00    +0.000 C 
BRANCH   6   7
ATOM      7  N   LYS A   1       6.610   2.066  11.771  0.00  0.00    +0.000 NA
ATOM      8  H1  LYS A   1       7.293   2.147  11.020  0.00  0.00    +0.000 HD
ATOM      9  H2  LYS A   1       5.913   1.402  11.425  0.00  0.00    +0.000 HD
ENDBRANCH   6   7
BRANCH   6  10
ATOM     10  CB  LYS A   1       4.402   3.202  12.037  0.00  0.00    +0.000 C 
BRANCH  10  11
ATOM     11  CG  LYS A   1       3.774   3.127  10.638  0.00  0.00    +0.000 C 
BRANCH  11  12
ATOM     12  CD  LYS A   1       3.127   4.450  10.226  0.00  0.00    +0.000 C 
BRANCH  12  13
ATOM     13  CE  LYS A   1       2.770   4.419   8.742  0.00  0.00    +0.000 C 
BRANCH  13  14
ATOM     14  NZ  LYS A   1       1.703   5.368   8.450  0.00  0.00    +0.000 NA
ATOM     15  HZ1 LYS A   1       1.087   5.433   9.260  0.00  0.00    +0.000 HD
ATOM     16  HZ2 LYS A   1       1.129   5.015   7.685  0.00  0.00    +0.000 HD
ENDBRANCH  13  14
ENDBRANCH  12  13
ENDBRANCH  11  12
ENDBRANCH  10  11
ENDBRANCH   6  10
ENDBRANCH   2   6
ENDBRANCH   1   4
BRANCH   1  17
ATOM     17  C   LYS A   2       4.889   4.599  16.336  0.00  0.00    +0.000 C 
ATOM     18  O   LYS A   2       4.456   5.735  16.157  0.00  0.00    +0.000 OA
ATOM     19  N   LYS A   3       4.225   3.663  17.084  0.00  0.00    +0.000 N 
ATOM     20  H   LYS A   3       4.661   2.763  17.275  0.00  0.00    +0.000 HD
BRANCH  19  21
ATOM     21  CA  LYS A   3       2.975   3.949  17.790  0.00  0.00    +0.000 C 
BRANCH  21  22
ATOM     22  C   LYS A   3       3.287   4.931  18.925  0.00  0.00    +0.000 C 
ATOM     23  O   LYS A   3       2.846   6.078  18.972  0.00  0.00    +0.000 OA
BRANCH  22  24
ATOM     24  OXT LYS A   3       4.100   4.445  19.889  0.00  0.00    +0.000 OA
ATOM     25  HXT LYS A   3       4.378   3.517  19.764  0.00  0.00    +0.000 HD
ENDBRANCH  22  24
ENDBRANCH  21  22
BRANCH  21  26
ATOM     26  CB  LYS A   3       2.331   2.654  18.322  0.00  0.00    +0.000 C 
BRANCH  26  27
ATOM     27  CG  LYS A   3       0.890   2.900  18.776  0.00  0.00    +0.000 C 
BRANCH  27  28
ATOM     28  CD  LYS A   3       0.746   3.265  20.250  0.00  0.00    +0.000 C 
BRANCH  28  29
ATOM     29  CE  LYS A   3       1.706   2.388  21.058  0.00  0.00    +0.000 C 
BRANCH  29  30
ATOM     30  NZ  LYS A   3       2.375   3.154  22.095  0.00  0.00    +0.000 NA
ATOM     31  HZ1 LYS A   3       2.563   4.097  21.757  0.00  0.00    +0.000 HD
ATOM     32  HZ2 LYS A   3       3.287   2.736  22.277  0.00  0.00    +0.000 HD
ENDBRANCH  29  30
ENDBRANCH  28  29
ENDBRANCH  27  28
ENDBRANCH  26  27
ENDBRANCH  21  26
ENDBRANCH  19  21
ENDBRANCH   1  17
BRANCH   1  33
ATOM     33  CB  LYS A   2       7.167   5.305  15.625  0.00  0.00    +0.000 C 
BRANCH  33  34
ATOM     34  CG  LYS A   2       7.389   5.991  16.977  0.00  0.00    +0.000 C 
BRANCH  34  35
ATOM     35  CD  LYS A   2       7.655   4.986  18.098  0.00  0.00    +0.000 C 
BRANCH  35  36
ATOM     36  CE  LYS A   2       7.164   5.518  19.444  0.00  0.00    +0.000 C 
BRANCH  36  37
ATOM     37  NZ  LYS A   2       8.194   5.396  20.462  0.00  0.00    +0.000 NA
ATOM     38  HZ1 LYS A   2       7.785   5.036  21.319  0.00  0.00    +0.000 HD
ATOM     39  HZ2 LYS A   2       8.551   6.326  20.674  0.00  0.00    +0.000 HD
ENDBRANCH  36  37
ENDBRANCH  35  36
ENDBRANCH  34  35
ENDBRANCH  33  34
ENDBRANCH   1  33
TORSDOF 22
ENDMDL
MODEL 9
REMARK VINA RESULT:      -5.7      2.833      8.248
REMARK  Name = 
REMARK  22 active torsions:
REMARK  status: ('A' for Active; 'I' for Inactive)
REMARK    1  A    between atoms: NZ_1  and  CE_2
REMARK    2  A    between atoms: CE_2  and  CD_3
REMARK    3  A    between atoms: CD_3  and  CG_4
REMARK    4  A    between atoms: CG_4  and  CB_5
REMARK    5  A    between atoms: CB_5  and  CA_6
REMARK    6  A    between atoms: CA_6  and  N_7
REMARK    7  A    between atoms: CA_6  and  C_8
REMARK    8  A    between atoms: N_10  and  CA_11
REMARK    9  A    between atoms: CA_11  and  CB_12
REMARK   10  A    between atoms: CA_11  and  C_17
REMARK   11  A    between atoms: CB_12  and  CG_13
REMARK   12  A    between atoms: CG_13  and  CD_14
REMARK   13  A    between atoms: CD_14  and  CE_15
REMARK   14  A    between atoms: CE_15  and  NZ_16
REMARK   15  A    between atoms: N_19  and  CA_20
REMARK   16  A    between atoms: CA_20  and  CB_21
REMARK   17  A    between atoms: CA_20  and  C_26
REMARK   18  A    between atoms: CB_21  and  CG_22
REMARK   19  A    between atoms: CG_22  and  CD_23
REMARK   20  A    between atoms: CD_23  and  CE_24
REMARK   21  A    between atoms: CE_24  and  NZ_25
REMARK   22  A    between atoms: C_26  and  OXT_28
REMARK                            x       y       z     vdW  Elec       q    Type
REMARK                         _______ _______ _______ _____ _____    ______ ____
ROOT
ATOM      1  CA  LYS A   2       3.000   5.892  18.585  0.00  0.00    +0.000 C 
ENDROOT
BRANCH   1   4
ATOM      2  C   LYS A   1       1.888   7.843  19.656  0.00  0.00    +0.000 C 
ATOM      3  O   LYS A   1       1.671   7.251  20.708  0.00  0.00    +0.000 OA
ATOM      4  N   LYS A   2       2.557   7.285  18.591  0.00  0.00    +0.000 N 
ATOM      5  H   LYS A   2       2.641   7.800  17.720  0.00  0.00    +0.000 HD
BRANCH   2   6
ATOM      6  CA  LYS A   1       1.397   9.282  19.415  0.00  0.00    +0.000 C 
BRANCH   6   7
ATOM      7  N   LYS A   1       1.254   9.491  17.957  0.00  0.00    +0.000 NA
ATOM      8  H1  LYS A   1       1.694   8.721  17.455  0.00  0.00    +0.000 HD
ATOM      9  H2  LYS A   1       1.804  10.317  17.708  0.00  0.00    +0.000 HD
ENDBRANCH   6   7
BRANCH   6  10
ATOM     10  CB  LYS A   1       0.078   9.549  20.159  0.00  0.00    +0.000 C 
BRANCH  10  11
ATOM     11  CG  LYS A   1      -0.809  10.548  19.402  0.00  0.00    +0.000 C 
BRANCH  11  12
ATOM     12  CD  LYS A   1      -0.625  11.979  19.908  0.00  0.00    +0.000 C 
BRANCH  12  13
ATOM     13  CE  LYS A   1      -1.302  12.963  18.958  0.00  0.00    +0.000 C 
BRANCH  13  14
ATOM     14  NZ  LYS A   1      -1.132  12.541  17.573  0.00  0.00    +0.000 NA
ATOM     15  HZ1 LYS A   1      -1.078  11.524  17.542  0.00  0.00    +0.000 HD
ATOM     16  HZ2 LYS A   1      -0.241  12.884  17.217  0.00  0.00    +0.000 HD
ENDBRANCH  13  14
ENDBRANCH  12  13
ENDBRANCH  11  12
ENDBRANCH  10  11
ENDBRANCH   6  10
ENDBRANCH   2   6
ENDBRANCH   1   4
BRANCH   1  17
ATOM     17  C   LYS A   2       4.293   5.825  17.734  0.00  0.00    +0.000 C 
ATOM     18  O   LYS A   2       4.816   6.821  17.239  0.00  0.00    +0.000 OA
ATOM     19  N   LYS A   3       4.813   4.566  17.588  0.00  0.00    +0.000 N 
ATOM     20  H   LYS A   3       4.302   3.762  17.945  0.00  0.00    +0.000 HD
BRANCH  19  21
ATOM     21  CA  LYS A   3       5.998   4.284  16.777  0.00  0.00    +0.000 C 
BRANCH  21  22
ATOM     22  C   LYS A   3       7.203   4.950  17.451  0.00  0.00    +0.000 C 
ATOM     23  O   LYS A   3       7.788   4.475  18.424  0.00  0.00    +0.000 OA
BRANCH  22  24
ATOM     24  OXT LYS A   3       7.585   6.124  16.900  0.00  0.00    +0.000 OA
ATOM     25  HXT LYS A   3       8.342   6.558  17.339  0.00  0.00    +0.000 HD
ENDBRANCH  22  24
ENDBRANCH  21  22
BRANCH  21  26
ATOM     26  CB  LYS A   3       5.812   4.781  15.331  0.00  0.00    +0.000 C 
BRANCH  26  27
ATOM     27  CG  LYS A   3       6.293   3.737  14.321  0.00  0.00    +0.000 C 
BRANCH  27  28
ATOM     28  CD  LYS A   3       5.499   3.706  13.019  0.00  0.00    +0.000 C 
BRANCH  28  29
ATOM     29  CE  LYS A   3       6.407   3.156  11.915  0.00  0.00    +0.000 C 
BRANCH  29  30
ATOM     30  NZ  LYS A   3       6.072   1.780  11.593  0.00  0.00    +0.000 NA
ATOM     31  HZ1 LYS A   3       5.059   1.677  11.544  0.00  0.00    +0.000 HD
ATOM     32  HZ2 LYS A   3       6.376   1.179  12.359  0.00  0.00    +0.000 HD
ENDBRANCH  29  30
ENDBRANCH  28  29
ENDBRANCH  27  28
ENDBRANCH  26  27
ENDBRANCH  21  26
ENDBRANCH  19  21
ENDBRANCH   1  17
BRANCH   1  33
ATOM     33  CB  LYS A   2       1.968   4.963  17.943  0.00  0.00    +0.000 C 
BRANCH  33  34
ATOM     34  CG  LYS A   2       1.442   3.906  18.921  0.00  0.00    +0.000 C 
BRANCH  34  35
ATOM     35  CD  LYS A   2       1.866   2.492  18.526  0.00  0.00    +0.000 C 
BRANCH  35  36
ATOM     36  CE  LYS A   2       3.197   2.113  19.174  0.00  0.00    +0.000 C 
BRANCH  36  37
ATOM     37  NZ  LYS A   2       4.068   1.439  18.225  0.00  0.00    +0.000 NA
ATOM     38  HZ1 LYS A   2       4.779   0.916  18.728  0.00  0.00    +0.000 HD
ATOM     39  HZ2 LYS A   2       4.554   2.144  17.675  0.00  0.00    +0.000 HD
ENDBRANCH  36  37
ENDBRANCH  35  36
ENDBRANCH  34  35
ENDBRANCH  33  34
ENDBRANCH   1  33
TORSDOF 22
ENDMDL
