MODEL 1
REMARK VINA RESULT:      -8.4      0.000      0.000
REMARK  Name = 
REMARK  5 active torsions:
REMARK  status: ('A' for Active; 'I' for Inactive)
REMARK    1  A    between atoms: C_2  and  C_3
REMARK    2  A    between atoms: C_2  and  N_10
REMARK    3  A    between atoms: C_3  and  C_4
REMARK    4  A    between atoms: C_4  and  C_5
REMARK    5  A    between atoms: N_20  and  C_21
REMARK                            x       y       z     vdW  Elec       q    Type
REMARK                         _______ _______ _______ _____ _____    ______ ____
ROOT
ATOM      1  N   UNL     1       4.839   5.890  18.613  0.00  0.00    +0.000 NA
ATOM      2  C   UNL     1       3.676   5.365  18.409  0.00  0.00    +0.000 C 
ATOM      3  S   UNL     1       3.317   3.916  17.485  0.00  0.00    +0.000 S 
ATOM      4  C   UNL     1       1.796   3.563  18.418  0.00  0.00    +0.000 C 
ATOM      5  C   UNL     1       2.012   2.321  19.266  0.00  0.00    +0.000 C 
ATOM      6  S   UNL     1       2.491   2.906  20.864  0.00  0.00    +0.000 S 
ATOM      7  O   UNL     1       3.908   3.203  20.862  0.00  0.00    +0.000 OA
ATOM      8  O   UNL     1       1.887   2.059  21.866  0.00  0.00    +0.000 OA
ATOM      9  C   UNL     1       1.592   4.421  20.779  0.00  0.00    +0.000 C 
ATOM     10  C   UNL     1       1.506   4.804  19.300  0.00  0.00    +0.000 C 
ATOM     11  N   UNL     1       2.499   5.839  18.960  0.00  0.00    +0.000 N 
ENDROOT
BRANCH  11  12
ATOM     12  C   UNL     1       2.132   7.204  18.984  0.00  0.00    +0.000 A 
ATOM     13  C   UNL     1       2.167   7.975  17.806  0.00  0.00    +0.000 A 
ATOM     14  C   UNL     1       1.768   9.317  17.783  0.00  0.00    +0.000 A 
ATOM     15  C   UNL     1       1.333   9.938  18.947  0.00  0.00    +0.000 A 
ATOM     16  C   UNL     1       1.296   9.212  20.131  0.00  0.00    +0.000 A 
ATOM     17  C   UNL     1       1.686   7.870  20.140  0.00  0.00    +0.000 A 
ATOM     18  F   UNL     1       1.623   7.226  21.316  0.00  0.00    +0.000 F 
ENDBRANCH  11  12
BRANCH   1  20
ATOM     19  O   UNL     1       6.613   4.394  18.616  0.00  0.00    +0.000 OA
ATOM     20  C   UNL     1       5.994   5.334  18.126  0.00  0.00    +0.000 C 
BRANCH  20  21
ATOM     21  C   UNL     1       6.402   5.887  16.769  0.00  0.00    +0.000 C 
BRANCH  21  22
ATOM     22  C   UNL     1       7.170   4.912  15.875  0.00  0.00    +0.000 C 
BRANCH  22  23
ATOM     23  C   UNL     1       6.680   4.875  14.425  0.00  0.00    +0.000 C 
ATOM     24  C   UNL     1       7.786   4.965  13.378  0.00  0.00    +0.000 C 
ATOM     25  C   UNL     1       7.090   4.534  12.094  0.00  0.00    +0.000 C 
ATOM     26  C   UNL     1       6.013   3.537  12.520  0.00  0.00    +0.000 C 
ATOM     27  C   UNL     1       5.996   3.558  14.049  0.00  0.00    +0.000 C 
ENDBRANCH  22  23
ENDBRANCH  21  22
ENDBRANCH  20  21
ENDBRANCH   1  20
TORSDOF 5
ENDMDL
MODEL 2
REMARK VINA RESULT:      -8.3      1.021      1.399
REMARK  Name = 
REMARK  5 active torsions:
REMARK  status: ('A' for Active; 'I' for Inactive)
REMARK    1  A    between atoms: C_2  and  C_3
REMARK    2  A    between atoms: C_2  and  N_10
REMARK    3  A    between atoms: C_3  and  C_4
REMARK    4  A    between atoms: C_4  and  C_5
REMARK    5  A    between atoms: N_20  and  C_21
REMARK                            x       y       z     vdW  Elec       q    Type
REMARK                         _______ _______ _______ _____ _____    ______ ____
ROOT
ATOM      1  N   UNL     1       4.905   5.705  19.401  0.00  0.00    +0.000 NA
ATOM      2  C   UNL     1       3.811   5.181  18.956  0.00  0.00    +0.000 C 
ATOM      3  S   UNL     1       3.646   3.685  18.050  0.00  0.00    +0.000 S 
ATOM      4  C   UNL     1       1.941   3.400  18.615  0.00  0.00    +0.000 C 
ATOM      5  C   UNL     1       1.922   2.206  19.553  0.00  0.00    +0.000 C 
ATOM      6  S   UNL     1       2.026   2.875  21.187  0.00  0.00    +0.000 S 
ATOM      7  O   UNL     1       3.409   3.158  21.504  0.00  0.00    +0.000 OA
ATOM      8  O   UNL     1       1.184   2.091  22.060  0.00  0.00    +0.000 OA
ATOM      9  C   UNL     1       1.206   4.391  20.812  0.00  0.00    +0.000 C 
ATOM     10  C   UNL     1       1.479   4.691  19.337  0.00  0.00    +0.000 C 
ATOM     11  N   UNL     1       2.547   5.696  19.188  0.00  0.00    +0.000 N 
ENDROOT
BRANCH  11  12
ATOM     12  C   UNL     1       2.217   7.063  19.053  0.00  0.00    +0.000 A 
ATOM     13  C   UNL     1       2.375   7.720  17.817  0.00  0.00    +0.000 A 
ATOM     14  C   UNL     1       2.016   9.061  17.635  0.00  0.00    +0.000 A 
ATOM     15  C   UNL     1       1.497   9.796  18.693  0.00  0.00    +0.000 A 
ATOM     16  C   UNL     1       1.338   9.186  19.931  0.00  0.00    +0.000 A 
ATOM     17  C   UNL     1       1.689   7.844  20.098  0.00  0.00    +0.000 A 
ATOM     18  F   UNL     1       1.506   7.315  21.318  0.00  0.00    +0.000 F 
ENDBRANCH  11  12
BRANCH   1  20
ATOM     19  O   UNL     1       6.391   3.923  19.396  0.00  0.00    +0.000 OA
ATOM     20  C   UNL     1       6.128   5.110  19.231  0.00  0.00    +0.000 C 
BRANCH  20  21
ATOM     21  C   UNL     1       7.172   6.043  18.635  0.00  0.00    +0.000 C 
BRANCH  21  22
ATOM     22  C   UNL     1       6.694   6.878  17.446  0.00  0.00    +0.000 C 
BRANCH  22  23
ATOM     23  C   UNL     1       6.640   6.110  16.123  0.00  0.00    +0.000 C 
ATOM     24  C   UNL     1       7.132   4.669  16.205  0.00  0.00    +0.000 C 
ATOM     25  C   UNL     1       6.629   4.052  14.907  0.00  0.00    +0.000 C 
ATOM     26  C   UNL     1       5.333   4.788  14.572  0.00  0.00    +0.000 C 
ATOM     27  C   UNL     1       5.218   5.929  15.584  0.00  0.00    +0.000 C 
ENDBRANCH  22  23
ENDBRANCH  21  22
ENDBRANCH  20  21
ENDBRANCH   1  20
TORSDOF 5
ENDMDL
MODEL 3
REMARK VINA RESULT:      -8.2      3.287      4.514
REMARK  Name = 
REMARK  5 active torsions:
REMARK  status: ('A' for Active; 'I' for Inactive)
REMARK    1  A    between atoms: C_2  and  C_3
REMARK    2  A    between atoms: C_2  and  N_10
REMARK    3  A    between atoms: C_3  and  C_4
REMARK    4  A    between atoms: C_4  and  C_5
REMARK    5  A    between atoms: N_20  and  C_21
REMARK                            x       y       z     vdW  Elec       q    Type
REMARK                         _______ _______ _______ _____ _____    ______ ____
ROOT
ATOM      1  N   UNL     1       5.722   7.046  17.917  0.00  0.00    +0.000 NA
ATOM      2  C   UNL     1       4.763   6.257  17.559  0.00  0.00    +0.000 C 
ATOM      3  S   UNL     1       4.820   5.014  16.321  0.00  0.00    +0.000 S 
ATOM      4  C   UNL     1       3.509   4.022  17.097  0.00  0.00    +0.000 C 
ATOM      5  C   UNL     1       4.116   2.744  17.649  0.00  0.00    +0.000 C 
ATOM      6  S   UNL     1       4.455   3.069  19.354  0.00  0.00    +0.000 S 
ATOM      7  O   UNL     1       5.717   3.769  19.467  0.00  0.00    +0.000 OA
ATOM      8  O   UNL     1       4.169   1.877  20.117  0.00  0.00    +0.000 OA
ATOM      9  C   UNL     1       3.142   4.224  19.582  0.00  0.00    +0.000 C 
ATOM     10  C   UNL     1       2.892   4.886  18.226  0.00  0.00    +0.000 C 
ATOM     11  N   UNL     1       3.518   6.219  18.163  0.00  0.00    +0.000 N 
ENDROOT
BRANCH  11  12
ATOM     12  C   UNL     1       2.760   7.370  18.481  0.00  0.00    +0.000 A 
ATOM     13  C   UNL     1       2.582   8.396  17.532  0.00  0.00    +0.000 A 
ATOM     14  C   UNL     1       1.802   9.528  17.797  0.00  0.00    +0.000 A 
ATOM     15  C   UNL     1       1.184   9.678  19.033  0.00  0.00    +0.000 A 
ATOM     16  C   UNL     1       1.347   8.693  19.998  0.00  0.00    +0.000 A 
ATOM     17  C   UNL     1       2.118   7.561  19.718  0.00  0.00    +0.000 A 
ATOM     18  F   UNL     1       2.231   6.646  20.694  0.00  0.00    +0.000 F 
ENDBRANCH  11  12
BRANCH   1  20
ATOM     19  O   UNL     1       7.280   6.397  16.325  0.00  0.00    +0.000 OA
ATOM     20  C   UNL     1       6.972   6.985  17.357  0.00  0.00    +0.000 C 
BRANCH  20  21
ATOM     21  C   UNL     1       7.986   7.879  18.053  0.00  0.00    +0.000 C 
BRANCH  21  22
ATOM     22  C   UNL     1       7.872   9.369  17.726  0.00  0.00    +0.000 C 
BRANCH  22  23
ATOM     23  C   UNL     1       9.072  10.203  18.181  0.00  0.00    +0.000 C 
ATOM     24  C   UNL     1       8.947  11.698  17.908  0.00  0.00    +0.000 C 
ATOM     25  C   UNL     1      10.047  12.306  18.767  0.00  0.00    +0.000 C 
ATOM     26  C   UNL     1      10.184  11.384  19.979  0.00  0.00    +0.000 C 
ATOM     27  C   UNL     1       9.291  10.176  19.696  0.00  0.00    +0.000 C 
ENDBRANCH  22  23
ENDBRANCH  21  22
ENDBRANCH  20  21
ENDBRANCH   1  20
TORSDOF 5
ENDMDL
MODEL 4
REMARK VINA RESULT:      -8.0      0.902      1.286
REMARK  Name = 
REMARK  5 active torsions:
REMARK  status: ('A' for Active; 'I' for Inactive)
REMARK    1  A    between atoms: C_2  and  C_3
REMARK    2  A    between atoms: C_2  and  N_10
REMARK    3  A    between atoms: C_3  and  C_4
REMARK    4  A    between atoms: C_4  and  C_5
REMARK    5  A    between atoms: N_20  and  C_21
REMARK                            x       y       z     vdW  Elec       q    Type
REMARK                         _______ _______ _______ _____ _____    ______ ____
ROOT
ATOM      1  N   UNL     1       4.790   5.882  18.619  0.00  0.00    +0.000 NA
ATOM      2  C   UNL     1       3.621   5.359  18.454  0.00  0.00    +0.000 C 
ATOM      3  S   UNL     1       3.224   3.925  17.521  0.00  0.00    +0.000 S 
ATOM      4  C   UNL     1       1.744   3.554  18.509  0.00  0.00    +0.000 C 
ATOM      5  C   UNL     1       1.994   2.299  19.326  0.00  0.00    +0.000 C 
ATOM      6  S   UNL     1       2.538   2.858  20.913  0.00  0.00    +0.000 S 
ATOM      7  O   UNL     1       3.953   3.157  20.858  0.00  0.00    +0.000 OA
ATOM      8  O   UNL     1       1.976   1.993  21.924  0.00  0.00    +0.000 OA
ATOM      9  C   UNL     1       1.635   4.373  20.890  0.00  0.00    +0.000 C 
ATOM     10  C   UNL     1       1.488   4.780  19.423  0.00  0.00    +0.000 C 
ATOM     11  N   UNL     1       2.466   5.822  19.061  0.00  0.00    +0.000 N 
ENDROOT
BRANCH  11  12
ATOM     12  C   UNL     1       2.099   7.186  19.122  0.00  0.00    +0.000 A 
ATOM     13  C   UNL     1       1.583   7.737  20.311  0.00  0.00    +0.000 A 
ATOM     14  C   UNL     1       1.252   9.093  20.420  0.00  0.00    +0.000 A 
ATOM     15  C   UNL     1       1.414   9.943  19.333  0.00  0.00    +0.000 A 
ATOM     16  C   UNL     1       1.908   9.433  18.139  0.00  0.00    +0.000 A 
ATOM     17  C   UNL     1       2.247   8.080  18.045  0.00  0.00    +0.000 A 
ATOM     18  F   UNL     1       2.723   7.653  16.865  0.00  0.00    +0.000 F 
ENDBRANCH  11  12
BRANCH   1  20
ATOM     19  O   UNL     1       6.577   4.404  18.537  0.00  0.00    +0.000 OA
ATOM     20  C   UNL     1       5.925   5.335  18.076  0.00  0.00    +0.000 C 
BRANCH  20  21
ATOM     21  C   UNL     1       6.258   5.887  16.699  0.00  0.00    +0.000 C 
BRANCH  21  22
ATOM     22  C   UNL     1       7.113   4.971  15.821  0.00  0.00    +0.000 C 
BRANCH  22  23
ATOM     23  C   UNL     1       6.657   4.898  14.362  0.00  0.00    +0.000 C 
ATOM     24  C   UNL     1       7.784   4.988  13.339  0.00  0.00    +0.000 C 
ATOM     25  C   UNL     1       7.126   4.521  12.048  0.00  0.00    +0.000 C 
ATOM     26  C   UNL     1       6.057   3.513  12.469  0.00  0.00    +0.000 C 
ATOM     27  C   UNL     1       6.005   3.561  13.996  0.00  0.00    +0.000 C 
ENDBRANCH  22  23
ENDBRANCH  21  22
ENDBRANCH  20  21
ENDBRANCH   1  20
TORSDOF 5
ENDMDL
MODEL 5
REMARK VINA RESULT:      -7.8      2.522      3.750
REMARK  Name = 
REMARK  5 active torsions:
REMARK  status: ('A' for Active; 'I' for Inactive)
REMARK    1  A    between atoms: C_2  and  C_3
REMARK    2  A    between atoms: C_2  and  N_10
REMARK    3  A    between atoms: C_3  and  C_4
REMARK    4  A    between atoms: C_4  and  C_5
REMARK    5  A    between atoms: N_20  and  C_21
REMARK                            x       y       z     vdW  Elec       q    Type
REMARK                         _______ _______ _______ _____ _____    ______ ____
ROOT
ATOM      1  N   UNL     1       5.409   5.889  18.837  0.00  0.00    +0.000 NA
ATOM      2  C   UNL     1       4.432   5.434  18.124  0.00  0.00    +0.000 C 
ATOM      3  S   UNL     1       4.534   4.291  16.795  0.00  0.00    +0.000 S 
ATOM      4  C   UNL     1       2.835   3.690  17.034  0.00  0.00    +0.000 C 
ATOM      5  C   UNL     1       2.882   2.265  17.557  0.00  0.00    +0.000 C 
ATOM      6  S   UNL     1       2.758   2.393  19.316  0.00  0.00    +0.000 S 
ATOM      7  O   UNL     1       4.063   2.685  19.870  0.00  0.00    +0.000 OA
ATOM      8  O   UNL     1       1.946   1.300  19.802  0.00  0.00    +0.000 OA
ATOM      9  C   UNL     1       1.793   3.869  19.322  0.00  0.00    +0.000 C 
ATOM     10  C   UNL     1       2.155   4.641  18.052  0.00  0.00    +0.000 C 
ATOM     11  N   UNL     1       3.099   5.733  18.345  0.00  0.00    +0.000 N 
ENDROOT
BRANCH  11  12
ATOM     12  C   UNL     1       2.614   7.039  18.591  0.00  0.00    +0.000 A 
ATOM     13  C   UNL     1       2.670   8.025  17.587  0.00  0.00    +0.000 A 
ATOM     14  C   UNL     1       2.159   9.314  17.781  0.00  0.00    +0.000 A 
ATOM     15  C   UNL     1       1.586   9.664  18.997  0.00  0.00    +0.000 A 
ATOM     16  C   UNL     1       1.525   8.722  20.016  0.00  0.00    +0.000 A 
ATOM     17  C   UNL     1       2.027   7.434  19.807  0.00  0.00    +0.000 A 
ATOM     18  F   UNL     1       1.933   6.572  20.831  0.00  0.00    +0.000 F 
ENDBRANCH  11  12
BRANCH   1  20
ATOM     19  O   UNL     1       7.087   4.367  18.332  0.00  0.00    +0.000 OA
ATOM     20  C   UNL     1       6.707   5.492  18.644  0.00  0.00    +0.000 C 
BRANCH  20  21
ATOM     21  C   UNL     1       7.701   6.642  18.693  0.00  0.00    +0.000 C 
BRANCH  21  22
ATOM     22  C   UNL     1       7.423   7.783  17.713  0.00  0.00    +0.000 C 
BRANCH  22  23
ATOM     23  C   UNL     1       8.410   8.948  17.812  0.00  0.00    +0.000 C 
ATOM     24  C   UNL     1       7.808  10.318  17.521  0.00  0.00    +0.000 C 
ATOM     25  C   UNL     1       8.861  11.285  18.045  0.00  0.00    +0.000 C 
ATOM     26  C   UNL     1       9.534  10.569  19.217  0.00  0.00    +0.000 C 
ATOM     27  C   UNL     1       8.977   9.145  19.221  0.00  0.00    +0.000 C 
ENDBRANCH  22  23
ENDBRANCH  21  22
ENDBRANCH  20  21
ENDBRANCH   1  20
TORSDOF 5
ENDMDL
MODEL 6
REMARK VINA RESULT:      -7.7      3.338      4.605
REMARK  Name = 
REMARK  5 active torsions:
REMARK  status: ('A' for Active; 'I' for Inactive)
REMARK    1  A    between atoms: C_2  and  C_3
REMARK    2  A    between atoms: C_2  and  N_10
REMARK    3  A    between atoms: C_3  and  C_4
REMARK    4  A    between atoms: C_4  and  C_5
REMARK    5  A    between atoms: N_20  and  C_21
REMARK                            x       y       z     vdW  Elec       q    Type
REMARK                         _______ _______ _______ _____ _____    ______ ____
ROOT
ATOM      1  N   UNL     1       5.507   7.030  17.970  0.00  0.00    +0.000 NA
ATOM      2  C   UNL     1       4.543   6.218  17.686  0.00  0.00    +0.000 C 
ATOM      3  S   UNL     1       4.540   4.968  16.453  0.00  0.00    +0.000 S 
ATOM      4  C   UNL     1       3.311   3.952  17.326  0.00  0.00    +0.000 C 
ATOM      5  C   UNL     1       3.985   2.691  17.840  0.00  0.00    +0.000 C 
ATOM      6  S   UNL     1       4.438   3.036  19.514  0.00  0.00    +0.000 S 
ATOM      7  O   UNL     1       5.689   3.764  19.533  0.00  0.00    +0.000 OA
ATOM      8  O   UNL     1       4.234   1.842  20.302  0.00  0.00    +0.000 OA
ATOM      9  C   UNL     1       3.118   4.162  19.830  0.00  0.00    +0.000 C 
ATOM     10  C   UNL     1       2.757   4.810  18.493  0.00  0.00    +0.000 C 
ATOM     11  N   UNL     1       3.346   6.156  18.378  0.00  0.00    +0.000 N 
ENDROOT
BRANCH  11  12
ATOM     12  C   UNL     1       2.588   7.292  18.744  0.00  0.00    +0.000 A 
ATOM     13  C   UNL     1       2.062   7.414  20.045  0.00  0.00    +0.000 A 
ATOM     14  C   UNL     1       1.345   8.544  20.456  0.00  0.00    +0.000 A 
ATOM     15  C   UNL     1       1.117   9.588  19.568  0.00  0.00    +0.000 A 
ATOM     16  C   UNL     1       1.609   9.499  18.272  0.00  0.00    +0.000 A 
ATOM     17  C   UNL     1       2.334   8.371  17.877  0.00  0.00    +0.000 A 
ATOM     18  F   UNL     1       2.784   8.350  16.613  0.00  0.00    +0.000 F 
ENDBRANCH  11  12
BRANCH   1  20
ATOM     19  O   UNL     1       6.946   6.461  16.240  0.00  0.00    +0.000 OA
ATOM     20  C   UNL     1       6.715   6.993  17.321  0.00  0.00    +0.000 C 
BRANCH  20  21
ATOM     21  C   UNL     1       7.784   7.842  17.994  0.00  0.00    +0.000 C 
BRANCH  21  22
ATOM     22  C   UNL     1       7.774   9.323  17.610  0.00  0.00    +0.000 C 
BRANCH  22  23
ATOM     23  C   UNL     1       8.990  10.106  18.108  0.00  0.00    +0.000 C 
ATOM     24  C   UNL     1       8.905  11.614  17.897  0.00  0.00    +0.000 C 
ATOM     25  C   UNL     1      10.013  12.157  18.789  0.00  0.00    +0.000 C 
ATOM     26  C   UNL     1      10.117  11.182  19.962  0.00  0.00    +0.000 C 
ATOM     27  C   UNL     1       9.195  10.011  19.623  0.00  0.00    +0.000 C 
ENDBRANCH  22  23
ENDBRANCH  21  22
ENDBRANCH  20  21
ENDBRANCH   1  20
TORSDOF 5
ENDMDL
MODEL 7
REMARK VINA RESULT:      -7.7      2.960      4.205
REMARK  Name = 
REMARK  5 active torsions:
REMARK  status: ('A' for Active; 'I' for Inactive)
REMARK    1  A    between atoms: C_2  and  C_3
REMARK    2  A    between atoms: C_2  and  N_10
REMARK    3  A    between atoms: C_3  and  C_4
REMARK    4  A    between atoms: C_4  and  C_5
REMARK    5  A    between atoms: N_20  and  C_21
REMARK                            x       y       z     vdW  Elec       q    Type
REMARK                         _______ _______ _______ _____ _____    ______ ____
ROOT
ATOM      1  N   UNL     1       5.721   6.250  18.707  0.00  0.00    +0.000 NA
ATOM      2  C   UNL     1       4.782   5.653  18.049  0.00  0.00    +0.000 C 
ATOM      3  S   UNL     1       4.975   4.532  16.711  0.00  0.00    +0.000 S 
ATOM      4  C   UNL     1       3.400   3.687  17.045  0.00  0.00    +0.000 C 
ATOM      5  C   UNL     1       3.688   2.287  17.558  0.00  0.00    +0.000 C 
ATOM      6  S   UNL     1       3.647   2.403  19.321  0.00  0.00    +0.000 S 
ATOM      7  O   UNL     1       4.924   2.887  19.801  0.00  0.00    +0.000 OA
ATOM      8  O   UNL     1       3.034   1.204  19.848  0.00  0.00    +0.000 OA
ATOM      9  C   UNL     1       2.476   3.720  19.389  0.00  0.00    +0.000 C 
ATOM     10  C   UNL     1       2.647   4.532  18.104  0.00  0.00    +0.000 C 
ATOM     11  N   UNL     1       3.435   5.753  18.348  0.00  0.00    +0.000 N 
ENDROOT
BRANCH  11  12
ATOM     12  C   UNL     1       2.777   6.973  18.627  0.00  0.00    +0.000 A 
ATOM     13  C   UNL     1       2.148   7.180  19.870  0.00  0.00    +0.000 A 
ATOM     14  C   UNL     1       1.526   8.392  20.197  0.00  0.00    +0.000 A 
ATOM     15  C   UNL     1       1.502   9.436  19.280  0.00  0.00    +0.000 A 
ATOM     16  C   UNL     1       2.101   9.264  18.038  0.00  0.00    +0.000 A 
ATOM     17  C   UNL     1       2.729   8.055  17.727  0.00  0.00    +0.000 A 
ATOM     18  F   UNL     1       3.292   7.957  16.513  0.00  0.00    +0.000 F 
ENDBRANCH  11  12
BRANCH   1  20
ATOM     19  O   UNL     1       7.734   5.101  18.815  0.00  0.00    +0.000 OA
ATOM     20  C   UNL     1       7.050   6.048  18.439  0.00  0.00    +0.000 C 
BRANCH  20  21
ATOM     21  C   UNL     1       7.624   7.055  17.454  0.00  0.00    +0.000 C 
BRANCH  21  22
ATOM     22  C   UNL     1       7.247   8.514  17.722  0.00  0.00    +0.000 C 
BRANCH  22  23
ATOM     23  C   UNL     1       8.447   9.453  17.866  0.00  0.00    +0.000 C 
ATOM     24  C   UNL     1       8.136  10.924  17.609  0.00  0.00    +0.000 C 
ATOM     25  C   UNL     1       9.354  11.644  18.172  0.00  0.00    +0.000 C 
ATOM     26  C   UNL     1       9.850  10.777  19.329  0.00  0.00    +0.000 C 
ATOM     27  C   UNL     1       9.019   9.494  19.285  0.00  0.00    +0.000 C 
ENDBRANCH  22  23
ENDBRANCH  21  22
ENDBRANCH  20  21
ENDBRANCH   1  20
TORSDOF 5
ENDMDL
MODEL 8
REMARK VINA RESULT:      -7.6      2.530      6.643
REMARK  Name = 
REMARK  5 active torsions:
REMARK  status: ('A' for Active; 'I' for Inactive)
REMARK    1  A    between atoms: C_2  and  C_3
REMARK    2  A    between atoms: C_2  and  N_10
REMARK    3  A    between atoms: C_3  and  C_4
REMARK    4  A    between atoms: C_4  and  C_5
REMARK    5  A    between atoms: N_20  and  C_21
REMARK                            x       y       z     vdW  Elec       q    Type
REMARK                         _______ _______ _______ _____ _____    ______ ____
ROOT
ATOM      1  N   UNL     1       3.084   6.498  17.958  0.00  0.00    +0.000 NA
ATOM      2  C   UNL     1       3.480   5.432  18.571  0.00  0.00    +0.000 C 
ATOM      3  S   UNL     1       3.288   5.058  20.276  0.00  0.00    +0.000 S 
ATOM      4  C   UNL     1       3.326   3.261  20.002  0.00  0.00    +0.000 C 
ATOM      5  C   UNL     1       1.946   2.688  20.271  0.00  0.00    +0.000 C 
ATOM      6  S   UNL     1       1.144   2.602  18.698  0.00  0.00    +0.000 S 
ATOM      7  O   UNL     1       0.590   3.899  18.370  0.00  0.00    +0.000 OA
ATOM      8  O   UNL     1       0.352   1.395  18.649  0.00  0.00    +0.000 OA
ATOM      9  C   UNL     1       2.617   2.358  17.758  0.00  0.00    +0.000 C 
ATOM     10  C   UNL     1       3.752   3.035  18.528  0.00  0.00    +0.000 C 
ATOM     11  N   UNL     1       4.078   4.350  17.948  0.00  0.00    +0.000 N 
ENDROOT
BRANCH  11  12
ATOM     12  C   UNL     1       5.115   4.464  16.995  0.00  0.00    +0.000 A 
ATOM     13  C   UNL     1       4.831   4.398  15.616  0.00  0.00    +0.000 A 
ATOM     14  C   UNL     1       5.827   4.551  14.643  0.00  0.00    +0.000 A 
ATOM     15  C   UNL     1       7.148   4.762  15.021  0.00  0.00    +0.000 A 
ATOM     16  C   UNL     1       7.468   4.820  16.371  0.00  0.00    +0.000 A 
ATOM     17  C   UNL     1       6.464   4.677  17.334  0.00  0.00    +0.000 A 
ATOM     18  F   UNL     1       6.841   4.748  18.620  0.00  0.00    +0.000 F 
ENDBRANCH  11  12
BRANCH   1  20
ATOM     19  O   UNL     1       2.279   7.642  19.810  0.00  0.00    +0.000 OA
ATOM     20  C   UNL     1       2.409   7.506  18.597  0.00  0.00    +0.000 C 
BRANCH  20  21
ATOM     21  C   UNL     1       1.932   8.601  17.655  0.00  0.00    +0.000 C 
BRANCH  21  22
ATOM     22  C   UNL     1       1.631   9.945  18.320  0.00  0.00    +0.000 C 
BRANCH  22  23
ATOM     23  C   UNL     1       0.167  10.126  18.730  0.00  0.00    +0.000 C 
ATOM     24  C   UNL     1      -0.244  11.570  18.999  0.00  0.00    +0.000 C 
ATOM     25  C   UNL     1      -1.765  11.508  19.007  0.00  0.00    +0.000 C 
ATOM     26  C   UNL     1      -2.138  10.386  18.038  0.00  0.00    +0.000 C 
ATOM     27  C   UNL     1      -0.824   9.714  17.639  0.00  0.00    +0.000 C 
ENDBRANCH  22  23
ENDBRANCH  21  22
ENDBRANCH  20  21
ENDBRANCH   1  20
TORSDOF 5
ENDMDL
MODEL 9
REMARK VINA RESULT:      -7.5      2.773      6.718
REMARK  Name = 
REMARK  5 active torsions:
REMARK  status: ('A' for Active; 'I' for Inactive)
REMARK    1  A    between atoms: C_2  and  C_3
REMARK    2  A    between atoms: C_2  and  N_10
REMARK    3  A    between atoms: C_3  and  C_4
REMARK    4  A    between atoms: C_4  and  C_5
REMARK    5  A    between atoms: N_20  and  C_21
REMARK                            x       y       z     vdW  Elec       q    Type
REMARK                         _______ _______ _______ _____ _____    ______ ____
ROOT
ATOM      1  N   UNL     1       3.041   6.620  18.476  0.00  0.00    +0.000 NA
ATOM      2  C   UNL     1       3.250   5.549  19.167  0.00  0.00    +0.000 C 
ATOM      3  S   UNL     1       2.585   5.161  20.745  0.00  0.00    +0.000 S 
ATOM      4  C   UNL     1       2.703   3.366  20.479  0.00  0.00    +0.000 C 
ATOM      5  C   UNL     1       1.303   2.792  20.343  0.00  0.00    +0.000 C 
ATOM      6  S   UNL     1       0.979   2.720  18.606  0.00  0.00    +0.000 S 
ATOM      7  O   UNL     1       0.538   4.019  18.145  0.00  0.00    +0.000 OA
ATOM      8  O   UNL     1       0.235   1.513  18.326  0.00  0.00    +0.000 OA
ATOM      9  C   UNL     1       2.657   2.482  18.119  0.00  0.00    +0.000 C 
ATOM     10  C   UNL     1       3.528   3.152  19.184  0.00  0.00    +0.000 C 
ATOM     11  N   UNL     1       4.002   4.472  18.730  0.00  0.00    +0.000 N 
ENDROOT
BRANCH  11  12
ATOM     12  C   UNL     1       5.266   4.593  18.109  0.00  0.00    +0.000 A 
ATOM     13  C   UNL     1       6.401   4.956  18.859  0.00  0.00    +0.000 A 
ATOM     14  C   UNL     1       7.676   5.042  18.286  0.00  0.00    +0.000 A 
ATOM     15  C   UNL     1       7.854   4.780  16.934  0.00  0.00    +0.000 A 
ATOM     16  C   UNL     1       6.755   4.431  16.158  0.00  0.00    +0.000 A 
ATOM     17  C   UNL     1       5.490   4.337  16.743  0.00  0.00    +0.000 A 
ATOM     18  F   UNL     1       4.472   3.991  15.939  0.00  0.00    +0.000 F 
ENDBRANCH  11  12
BRANCH   1  20
ATOM     19  O   UNL     1       1.918   7.878  20.070  0.00  0.00    +0.000 OA
ATOM     20  C   UNL     1       2.212   7.623  18.906  0.00  0.00    +0.000 C 
BRANCH  20  21
ATOM     21  C   UNL     1       1.773   8.559  17.790  0.00  0.00    +0.000 C 
BRANCH  21  22
ATOM     22  C   UNL     1       1.472   9.994  18.227  0.00  0.00    +0.000 C 
BRANCH  22  23
ATOM     23  C   UNL     1       0.007  10.242  18.596  0.00  0.00    +0.000 C 
ATOM     24  C   UNL     1      -0.372  11.712  18.741  0.00  0.00    +0.000 C 
ATOM     25  C   UNL     1      -1.894  11.685  18.728  0.00  0.00    +0.000 C 
ATOM     26  C   UNL     1      -2.281  10.498  17.846  0.00  0.00    +0.000 C 
ATOM     27  C   UNL     1      -0.978   9.766  17.525  0.00  0.00    +0.000 C 
ENDBRANCH  22  23
ENDBRANCH  21  22
ENDBRANCH  20  21
ENDBRANCH   1  20
TORSDOF 5
ENDMDL
