MODEL 1
REMARK VINA RESULT:      -7.9      0.000      0.000
REMARK  Name = 
REMARK  8 active torsions:
REMARK  status: ('A' for Active; 'I' for Inactive)
REMARK    1  A    between atoms: C_1  and  C_2
REMARK    2  A    between atoms: C_4  and  C_5
REMARK    3  A    between atoms: N_17  and  C_18
REMARK    4  A    between atoms: C_18  and  C_19
REMARK    5  A    between atoms: C_19  and  O_20
REMARK    6  A    between atoms: C_19  and  C_21
REMARK    7  A    between atoms: C_21  and  O_22
REMARK    8  A    between atoms: O_22  and  C_23
REMARK                            x       y       z     vdW  Elec       q    Type
REMARK                         _______ _______ _______ _____ _____    ______ ____
ROOT
ATOM      1  C   UNL     1       1.472   4.181  18.480  0.00  0.00    +0.000 C 
ATOM      2  C   UNL     1       2.871   4.481  17.917  0.00  0.00    +0.000 C 
ATOM      3  C   UNL     1       3.877   3.482  18.523  0.00  0.00    +0.000 C 
ATOM      4  C   UNL     1       5.323   3.987  18.451  0.00  0.00    +0.000 C 
ATOM      5  C   UNL     1       5.408   5.281  19.284  0.00  0.00    +0.000 C 
ATOM      6  C   UNL     1       4.132   6.140  19.233  0.00  0.00    +0.000 C 
ATOM      7  N   UNL     1       3.327   5.878  18.043  0.00  0.00    +0.000 NA
ENDROOT
BRANCH   4   8
ATOM      8  C   UNL     1       5.859   4.124  17.029  0.00  0.00    +0.000 A 
ATOM      9  C   UNL     1       5.481   3.468  15.873  0.00  0.00    +0.000 A 
ATOM     10  C   UNL     1       6.148   3.936  14.692  0.00  0.00    +0.000 A 
ATOM     11  C   UNL     1       6.001   3.547  13.341  0.00  0.00    +0.000 A 
ATOM     12  C   UNL     1       6.769   4.160  12.355  0.00  0.00    +0.000 A 
ATOM     13  F   UNL     1       6.632   3.778  11.076  0.00  0.00    +0.000 F 
ATOM     14  C   UNL     1       7.681   5.152  12.669  0.00  0.00    +0.000 A 
ATOM     15  C   UNL     1       7.840   5.560  13.995  0.00  0.00    +0.000 A 
ATOM     16  C   UNL     1       7.062   4.944  14.997  0.00  0.00    +0.000 A 
ATOM     17  S   UNL     1       7.069   5.292  16.681  0.00  0.00    +0.000 S 
ENDBRANCH   4   8
BRANCH   7  18
ATOM     18  C   UNL     1       2.301   6.892  17.790  0.00  0.00    +0.000 C 
BRANCH  18  19
ATOM     19  C   UNL     1       2.384   8.121  18.727  0.00  0.00    +0.000 C 
BRANCH  19  20
ATOM     20  O   UNL     1       1.630   7.824  19.916  0.00  0.00    +0.000 OA
ATOM     21  H   UNL     1       1.270   6.924  19.823  0.00  0.00    +0.000 HD
ENDBRANCH  19  20
BRANCH  19  22
ATOM     22  C   UNL     1       1.814   9.364  18.015  0.00  0.00    +0.000 C 
BRANCH  22  23
ATOM     23  O   UNL     1       0.404   9.238  17.791  0.00  0.00    +0.000 OA
BRANCH  23  24
ATOM     24  C   UNL     1      -0.356  10.244  18.350  0.00  0.00    +0.000 A 
ATOM     25  C   UNL     1      -0.002  10.933  19.524  0.00  0.00    +0.000 A 
ATOM     26  C   UNL     1      -0.799  11.956  20.039  0.00  0.00    +0.000 A 
ATOM     27  C   UNL     1      -1.985  12.329  19.412  0.00  0.00    +0.000 A 
ATOM     28  C   UNL     1      -2.335  11.649  18.244  0.00  0.00    +0.000 A 
ATOM     29  N   UNL     1      -3.437  11.805  17.431  0.00  0.00    +0.000 N 
ATOM     30  C   UNL     1      -3.384  10.924  16.385  0.00  0.00    +0.000 A 
ATOM     31  C   UNL     1      -2.229  10.185  16.521  0.00  0.00    +0.000 A 
ATOM     32  C   UNL     1      -1.554  10.626  17.696  0.00  0.00    +0.000 A 
ATOM     33  H   UNL     1      -4.175  12.474  17.595  0.00  0.00    +0.000 HD
ENDBRANCH  23  24
ENDBRANCH  22  23
ENDBRANCH  19  22
ENDBRANCH  18  19
ENDBRANCH   7  18
TORSDOF 7
ENDMDL
MODEL 2
REMARK VINA RESULT:      -7.7      5.336     11.661
REMARK  Name = 
REMARK  8 active torsions:
REMARK  status: ('A' for Active; 'I' for Inactive)
REMARK    1  A    between atoms: C_1  and  C_2
REMARK    2  A    between atoms: C_4  and  C_5
REMARK    3  A    between atoms: N_17  and  C_18
REMARK    4  A    between atoms: C_18  and  C_19
REMARK    5  A    between atoms: C_19  and  O_20
REMARK    6  A    between atoms: C_19  and  C_21
REMARK    7  A    between atoms: C_21  and  O_22
REMARK    8  A    between atoms: O_22  and  C_23
REMARK                            x       y       z     vdW  Elec       q    Type
REMARK                         _______ _______ _______ _____ _____    ______ ____
ROOT
ATOM      1  C   UNL     1      -1.304  10.170  17.706  0.00  0.00    +0.000 C 
ATOM      2  C   UNL     1      -1.577  10.949  19.003  0.00  0.00    +0.000 C 
ATOM      3  C   UNL     1      -1.640  12.455  18.677  0.00  0.00    +0.000 C 
ATOM      4  C   UNL     1      -1.392  13.335  19.907  0.00  0.00    +0.000 C 
ATOM      5  C   UNL     1       0.033  13.038  20.414  0.00  0.00    +0.000 C 
ATOM      6  C   UNL     1       0.468  11.573  20.230  0.00  0.00    +0.000 C 
ATOM      7  N   UNL     1      -0.667  10.661  20.128  0.00  0.00    +0.000 NA
ENDROOT
BRANCH   4   8
ATOM      8  C   UNL     1      -2.472  13.217  20.979  0.00  0.00    +0.000 A 
ATOM      9  C   UNL     1      -3.848  13.243  20.855  0.00  0.00    +0.000 A 
ATOM     10  C   UNL     1      -4.549  12.999  22.083  0.00  0.00    +0.000 A 
ATOM     11  C   UNL     1      -5.935  12.908  22.345  0.00  0.00    +0.000 A 
ATOM     12  C   UNL     1      -6.381  12.655  23.640  0.00  0.00    +0.000 A 
ATOM     13  F   UNL     1      -7.698  12.580  23.883  0.00  0.00    +0.000 F 
ATOM     14  C   UNL     1      -5.491  12.486  24.686  0.00  0.00    +0.000 A 
ATOM     15  C   UNL     1      -4.116  12.564  24.452  0.00  0.00    +0.000 A 
ATOM     16  C   UNL     1      -3.660  12.818  23.142  0.00  0.00    +0.000 A 
ATOM     17  S   UNL     1      -2.028  12.935  22.613  0.00  0.00    +0.000 S 
ENDBRANCH   4   8
BRANCH   7  18
ATOM     18  C   UNL     1      -0.307   9.250  20.289  0.00  0.00    +0.000 C 
BRANCH  18  19
ATOM     19  C   UNL     1       1.213   8.973  20.196  0.00  0.00    +0.000 C 
BRANCH  19  20
ATOM     20  O   UNL     1       1.585   9.006  18.806  0.00  0.00    +0.000 OA
ATOM     21  H   UNL     1       1.162   9.784  18.403  0.00  0.00    +0.000 HD
ENDBRANCH  19  20
BRANCH  19  22
ATOM     22  C   UNL     1       1.535   7.600  20.816  0.00  0.00    +0.000 C 
BRANCH  22  23
ATOM     23  O   UNL     1       2.542   6.909  20.065  0.00  0.00    +0.000 OA
BRANCH  23  24
ATOM     24  C   UNL     1       2.431   5.535  20.086  0.00  0.00    +0.000 A 
ATOM     25  C   UNL     1       1.319   4.847  20.606  0.00  0.00    +0.000 A 
ATOM     26  C   UNL     1       1.247   3.454  20.586  0.00  0.00    +0.000 A 
ATOM     27  C   UNL     1       2.283   2.688  20.057  0.00  0.00    +0.000 A 
ATOM     28  C   UNL     1       3.385   3.369  19.537  0.00  0.00    +0.000 A 
ATOM     29  N   UNL     1       4.536   2.874  18.963  0.00  0.00    +0.000 N 
ATOM     30  C   UNL     1       5.360   3.901  18.590  0.00  0.00    +0.000 A 
ATOM     31  C   UNL     1       4.734   5.082  18.925  0.00  0.00    +0.000 A 
ATOM     32  C   UNL     1       3.483   4.765  19.531  0.00  0.00    +0.000 A 
ATOM     33  H   UNL     1       4.736   1.892  18.844  0.00  0.00    +0.000 HD
ENDBRANCH  23  24
ENDBRANCH  22  23
ENDBRANCH  19  22
ENDBRANCH  18  19
ENDBRANCH   7  18
TORSDOF 7
ENDMDL
MODEL 3
REMARK VINA RESULT:      -7.7      7.507     10.860
REMARK  Name = 
REMARK  8 active torsions:
REMARK  status: ('A' for Active; 'I' for Inactive)
REMARK    1  A    between atoms: C_1  and  C_2
REMARK    2  A    between atoms: C_4  and  C_5
REMARK    3  A    between atoms: N_17  and  C_18
REMARK    4  A    between atoms: C_18  and  C_19
REMARK    5  A    between atoms: C_19  and  O_20
REMARK    6  A    between atoms: C_19  and  C_21
REMARK    7  A    between atoms: C_21  and  O_22
REMARK    8  A    between atoms: O_22  and  C_23
REMARK                            x       y       z     vdW  Elec       q    Type
REMARK                         _______ _______ _______ _____ _____    ______ ____
ROOT
ATOM      1  C   UNL     1      -5.640  16.321  21.442  0.00  0.00    +0.000 C 
ATOM      2  C   UNL     1      -5.456  14.929  20.815  0.00  0.00    +0.000 C 
ATOM      3  C   UNL     1      -6.692  14.605  19.951  0.00  0.00    +0.000 C 
ATOM      4  C   UNL     1      -6.862  13.100  19.709  0.00  0.00    +0.000 C 
ATOM      5  C   UNL     1      -7.073  12.427  21.079  0.00  0.00    +0.000 C 
ATOM      6  C   UNL     1      -6.291  13.090  22.227  0.00  0.00    +0.000 C 
ATOM      7  N   UNL     1      -5.131  13.840  21.754  0.00  0.00    +0.000 NA
ENDROOT
BRANCH   4   8
ATOM      8  C   UNL     1      -5.744  12.479  18.875  0.00  0.00    +0.000 A 
ATOM      9  C   UNL     1      -4.560  11.894  19.278  0.00  0.00    +0.000 A 
ATOM     10  C   UNL     1      -3.795  11.325  18.205  0.00  0.00    +0.000 A 
ATOM     11  C   UNL     1      -2.571  10.618  18.226  0.00  0.00    +0.000 A 
ATOM     12  C   UNL     1      -2.019  10.151  17.036  0.00  0.00    +0.000 A 
ATOM     13  F   UNL     1      -0.853   9.490  17.062  0.00  0.00    +0.000 F 
ATOM     14  C   UNL     1      -2.648  10.364  15.822  0.00  0.00    +0.000 A 
ATOM     15  C   UNL     1      -3.861  11.052  15.775  0.00  0.00    +0.000 A 
ATOM     16  C   UNL     1      -4.426  11.524  16.978  0.00  0.00    +0.000 A 
ATOM     17  S   UNL     1      -5.910  12.372  17.169  0.00  0.00    +0.000 S 
ENDBRANCH   4   8
BRANCH   7  18
ATOM     18  C   UNL     1      -4.187  14.197  22.815  0.00  0.00    +0.000 C 
BRANCH  18  19
ATOM     19  C   UNL     1      -4.151  13.193  23.993  0.00  0.00    +0.000 C 
BRANCH  19  20
ATOM     20  O   UNL     1      -4.048  13.947  25.215  0.00  0.00    +0.000 OA
ATOM     21  H   UNL     1      -3.129  14.257  25.297  0.00  0.00    +0.000 HD
ENDBRANCH  19  20
BRANCH  19  22
ATOM     22  C   UNL     1      -2.951  12.240  23.835  0.00  0.00    +0.000 C 
BRANCH  22  23
ATOM     23  O   UNL     1      -2.278  12.448  22.587  0.00  0.00    +0.000 OA
BRANCH  23  24
ATOM     24  C   UNL     1      -1.274  11.539  22.319  0.00  0.00    +0.000 A 
ATOM     25  C   UNL     1      -1.001  10.416  23.120  0.00  0.00    +0.000 A 
ATOM     26  C   UNL     1       0.015   9.517  22.795  0.00  0.00    +0.000 A 
ATOM     27  C   UNL     1       0.805   9.704  21.664  0.00  0.00    +0.000 A 
ATOM     28  C   UNL     1       0.532  10.815  20.865  0.00  0.00    +0.000 A 
ATOM     29  N   UNL     1       1.147  11.242  19.708  0.00  0.00    +0.000 N 
ATOM     30  C   UNL     1       0.557  12.389  19.252  0.00  0.00    +0.000 A 
ATOM     31  C   UNL     1      -0.457  12.713  20.126  0.00  0.00    +0.000 A 
ATOM     32  C   UNL     1      -0.485  11.730  21.158  0.00  0.00    +0.000 A 
ATOM     33  H   UNL     1       1.924  10.770  19.270  0.00  0.00    +0.000 HD
ENDBRANCH  23  24
ENDBRANCH  22  23
ENDBRANCH  19  22
ENDBRANCH  18  19
ENDBRANCH   7  18
TORSDOF 7
ENDMDL
MODEL 4
REMARK VINA RESULT:      -7.7      5.185     11.143
REMARK  Name = 
REMARK  8 active torsions:
REMARK  status: ('A' for Active; 'I' for Inactive)
REMARK    1  A    between atoms: C_1  and  C_2
REMARK    2  A    between atoms: C_4  and  C_5
REMARK    3  A    between atoms: N_17  and  C_18
REMARK    4  A    between atoms: C_18  and  C_19
REMARK    5  A    between atoms: C_19  and  O_20
REMARK    6  A    between atoms: C_19  and  C_21
REMARK    7  A    between atoms: C_21  and  O_22
REMARK    8  A    between atoms: O_22  and  C_23
REMARK                            x       y       z     vdW  Elec       q    Type
REMARK                         _______ _______ _______ _____ _____    ______ ____
ROOT
ATOM      1  C   UNL     1      -0.802   9.649  17.334  0.00  0.00    +0.000 C 
ATOM      2  C   UNL     1      -1.127  10.580  18.514  0.00  0.00    +0.000 C 
ATOM      3  C   UNL     1      -1.654  11.919  17.962  0.00  0.00    +0.000 C 
ATOM      4  C   UNL     1      -1.521  13.066  18.971  0.00  0.00    +0.000 C 
ATOM      5  C   UNL     1      -0.021  13.254  19.269  0.00  0.00    +0.000 C 
ATOM      6  C   UNL     1       0.787  11.944  19.254  0.00  0.00    +0.000 C 
ATOM      7  N   UNL     1      -0.045  10.770  19.498  0.00  0.00    +0.000 NA
ENDROOT
BRANCH   4   8
ATOM      8  C   UNL     1      -2.387  12.895  20.217  0.00  0.00    +0.000 A 
ATOM      9  C   UNL     1      -2.016  12.725  21.536  0.00  0.00    +0.000 A 
ATOM     10  C   UNL     1      -3.118  12.699  22.454  0.00  0.00    +0.000 A 
ATOM     11  C   UNL     1      -3.136  12.585  23.863  0.00  0.00    +0.000 A 
ATOM     12  C   UNL     1      -4.351  12.590  24.544  0.00  0.00    +0.000 A 
ATOM     13  F   UNL     1      -4.361  12.471  25.880  0.00  0.00    +0.000 F 
ATOM     14  C   UNL     1      -5.552  12.707  23.868  0.00  0.00    +0.000 A 
ATOM     15  C   UNL     1      -5.562  12.828  22.477  0.00  0.00    +0.000 A 
ATOM     16  C   UNL     1      -4.334  12.827  21.783  0.00  0.00    +0.000 A 
ATOM     17  S   UNL     1      -4.096  12.984  20.087  0.00  0.00    +0.000 S 
ENDBRANCH   4   8
BRANCH   7  18
ATOM     18  C   UNL     1       0.718   9.563  19.822  0.00  0.00    +0.000 C 
BRANCH  18  19
ATOM     19  C   UNL     1       0.514   9.057  21.271  0.00  0.00    +0.000 C 
BRANCH  19  20
ATOM     20  O   UNL     1       1.257   9.921  22.151  0.00  0.00    +0.000 OA
ATOM     21  H   UNL     1       0.692  10.122  22.917  0.00  0.00    +0.000 HD
ENDBRANCH  19  20
BRANCH  19  22
ATOM     22  C   UNL     1       1.003   7.600  21.393  0.00  0.00    +0.000 C 
BRANCH  22  23
ATOM     23  O   UNL     1       2.051   7.320  20.456  0.00  0.00    +0.000 OA
BRANCH  23  24
ATOM     24  C   UNL     1       2.081   6.018  20.003  0.00  0.00    +0.000 A 
ATOM     25  C   UNL     1       1.345   4.969  20.584  0.00  0.00    +0.000 A 
ATOM     26  C   UNL     1       1.396   3.671  20.075  0.00  0.00    +0.000 A 
ATOM     27  C   UNL     1       2.189   3.362  18.972  0.00  0.00    +0.000 A 
ATOM     28  C   UNL     1       2.916   4.402  18.392  0.00  0.00    +0.000 A 
ATOM     29  N   UNL     1       3.770   4.383  17.311  0.00  0.00    +0.000 N 
ATOM     30  C   UNL     1       4.274   5.635  17.082  0.00  0.00    +0.000 A 
ATOM     31  C   UNL     1       3.737   6.481  18.028  0.00  0.00    +0.000 A 
ATOM     32  C   UNL     1       2.878   5.716  18.871  0.00  0.00    +0.000 A 
ATOM     33  H   UNL     1       3.990   3.558  16.773  0.00  0.00    +0.000 HD
ENDBRANCH  23  24
ENDBRANCH  22  23
ENDBRANCH  19  22
ENDBRANCH  18  19
ENDBRANCH   7  18
TORSDOF 7
ENDMDL
MODEL 5
REMARK VINA RESULT:      -7.6      4.622      9.548
REMARK  Name = 
REMARK  8 active torsions:
REMARK  status: ('A' for Active; 'I' for Inactive)
REMARK    1  A    between atoms: C_1  and  C_2
REMARK    2  A    between atoms: C_4  and  C_5
REMARK    3  A    between atoms: N_17  and  C_18
REMARK    4  A    between atoms: C_18  and  C_19
REMARK    5  A    between atoms: C_19  and  O_20
REMARK    6  A    between atoms: C_19  and  C_21
REMARK    7  A    between atoms: C_21  and  O_22
REMARK    8  A    between atoms: O_22  and  C_23
REMARK                            x       y       z     vdW  Elec       q    Type
REMARK                         _______ _______ _______ _____ _____    ______ ____
ROOT
ATOM      1  C   UNL     1      -0.146  10.220  21.917  0.00  0.00    +0.000 C 
ATOM      2  C   UNL     1       0.543  11.291  21.055  0.00  0.00    +0.000 C 
ATOM      3  C   UNL     1       0.022  12.680  21.474  0.00  0.00    +0.000 C 
ATOM      4  C   UNL     1       0.226  13.739  20.384  0.00  0.00    +0.000 C 
ATOM      5  C   UNL     1      -0.585  13.301  19.149  0.00  0.00    +0.000 C 
ATOM      6  C   UNL     1      -0.643  11.776  18.949  0.00  0.00    +0.000 C 
ATOM      7  N   UNL     1       0.468  11.085  19.596  0.00  0.00    +0.000 NA
ENDROOT
BRANCH   4   8
ATOM      8  C   UNL     1       1.691  14.047  20.090  0.00  0.00    +0.000 A 
ATOM      9  C   UNL     1       2.382  14.005  18.895  0.00  0.00    +0.000 A 
ATOM     10  C   UNL     1       3.739  14.462  18.988  0.00  0.00    +0.000 A 
ATOM     11  C   UNL     1       4.730  14.603  17.990  0.00  0.00    +0.000 A 
ATOM     12  C   UNL     1       5.993  15.081  18.329  0.00  0.00    +0.000 A 
ATOM     13  F   UNL     1       6.932  15.202  17.379  0.00  0.00    +0.000 F 
ATOM     14  C   UNL     1       6.304  15.427  19.633  0.00  0.00    +0.000 A 
ATOM     15  C   UNL     1       5.340  15.305  20.636  0.00  0.00    +0.000 A 
ATOM     16  C   UNL     1       4.059  14.824  20.297  0.00  0.00    +0.000 A 
ATOM     17  S   UNL     1       2.715  14.610  21.349  0.00  0.00    +0.000 S 
ENDBRANCH   4   8
BRANCH   7  18
ATOM     18  C   UNL     1       0.636   9.698  19.156  0.00  0.00    +0.000 C 
BRANCH  18  19
ATOM     19  C   UNL     1       1.981   9.421  18.441  0.00  0.00    +0.000 C 
BRANCH  19  20
ATOM     20  O   UNL     1       2.103  10.353  17.350  0.00  0.00    +0.000 OA
ATOM     21  H   UNL     1       1.222  10.461  16.951  0.00  0.00    +0.000 HD
ENDBRANCH  19  20
BRANCH  19  22
ATOM     22  C   UNL     1       2.014   7.969  17.926  0.00  0.00    +0.000 C 
BRANCH  22  23
ATOM     23  O   UNL     1       3.358   7.506  17.750  0.00  0.00    +0.000 OA
BRANCH  23  24
ATOM     24  C   UNL     1       3.484   6.135  17.656  0.00  0.00    +0.000 A 
ATOM     25  C   UNL     1       2.454   5.231  17.970  0.00  0.00    +0.000 A 
ATOM     26  C   UNL     1       2.627   3.853  17.840  0.00  0.00    +0.000 A 
ATOM     27  C   UNL     1       3.836   3.318  17.400  0.00  0.00    +0.000 A 
ATOM     28  C   UNL     1       4.857   4.214  17.084  0.00  0.00    +0.000 A 
ATOM     29  N   UNL     1       6.137   3.969  16.635  0.00  0.00    +0.000 N 
ATOM     30  C   UNL     1       6.810   5.147  16.451  0.00  0.00    +0.000 A 
ATOM     31  C   UNL     1       5.953   6.173  16.784  0.00  0.00    +0.000 A 
ATOM     32  C   UNL     1       4.713   5.602  17.193  0.00  0.00    +0.000 A 
ATOM     33  H   UNL     1       6.516   3.048  16.472  0.00  0.00    +0.000 HD
ENDBRANCH  23  24
ENDBRANCH  22  23
ENDBRANCH  19  22
ENDBRANCH  18  19
ENDBRANCH   7  18
TORSDOF 7
ENDMDL
MODEL 6
REMARK VINA RESULT:      -7.6      6.194      9.060
REMARK  Name = 
REMARK  8 active torsions:
REMARK  status: ('A' for Active; 'I' for Inactive)
REMARK    1  A    between atoms: C_1  and  C_2
REMARK    2  A    between atoms: C_4  and  C_5
REMARK    3  A    between atoms: N_17  and  C_18
REMARK    4  A    between atoms: C_18  and  C_19
REMARK    5  A    between atoms: C_19  and  O_20
REMARK    6  A    between atoms: C_19  and  C_21
REMARK    7  A    between atoms: C_21  and  O_22
REMARK    8  A    between atoms: O_22  and  C_23
REMARK                            x       y       z     vdW  Elec       q    Type
REMARK                         _______ _______ _______ _____ _____    ______ ____
ROOT
ATOM      1  C   UNL     1       7.877   5.104  19.214  0.00  0.00    +0.000 C 
ATOM      2  C   UNL     1       6.562   5.745  18.742  0.00  0.00    +0.000 C 
ATOM      3  C   UNL     1       5.488   4.646  18.616  0.00  0.00    +0.000 C 
ATOM      4  C   UNL     1       4.334   5.053  17.691  0.00  0.00    +0.000 C 
ATOM      5  C   UNL     1       4.921   5.280  16.285  0.00  0.00    +0.000 C 
ATOM      6  C   UNL     1       6.345   5.865  16.289  0.00  0.00    +0.000 C 
ATOM      7  N   UNL     1       6.654   6.576  17.527  0.00  0.00    +0.000 NA
ENDROOT
BRANCH   4   8
ATOM      8  C   UNL     1       3.505   6.221  18.217  0.00  0.00    +0.000 A 
ATOM      9  C   UNL     1       3.143   7.401  17.595  0.00  0.00    +0.000 A 
ATOM     10  C   UNL     1       2.265   8.226  18.374  0.00  0.00    +0.000 A 
ATOM     11  C   UNL     1       1.658   9.465  18.066  0.00  0.00    +0.000 A 
ATOM     12  C   UNL     1       0.826  10.080  18.997  0.00  0.00    +0.000 A 
ATOM     13  F   UNL     1       0.262  11.261  18.702  0.00  0.00    +0.000 F 
ATOM     14  C   UNL     1       0.577   9.502  20.229  0.00  0.00    +0.000 A 
ATOM     15  C   UNL     1       1.158   8.275  20.555  0.00  0.00    +0.000 A 
ATOM     16  C   UNL     1       1.999   7.646  19.614  0.00  0.00    +0.000 A 
ATOM     17  S   UNL     1       2.803   6.135  19.781  0.00  0.00    +0.000 S 
ENDBRANCH   4   8
BRANCH   7  18
ATOM     18  C   UNL     1       7.848   7.419  17.440  0.00  0.00    +0.000 C 
BRANCH  18  19
ATOM     19  C   UNL     1       7.677   8.823  18.069  0.00  0.00    +0.000 C 
BRANCH  19  20
ATOM     20  O   UNL     1       7.254   9.725  17.030  0.00  0.00    +0.000 OA
ATOM     21  H   UNL     1       7.161   9.211  16.208  0.00  0.00    +0.000 HD
ENDBRANCH  19  20
BRANCH  19  22
ATOM     22  C   UNL     1       9.009   9.288  18.688  0.00  0.00    +0.000 C 
BRANCH  22  23
ATOM     23  O   UNL     1       9.475  10.499  18.079  0.00  0.00    +0.000 OA
BRANCH  23  24
ATOM     24  C   UNL     1       9.846  11.483  18.973  0.00  0.00    +0.000 A 
ATOM     25  C   UNL     1       9.564  11.437  20.350  0.00  0.00    +0.000 A 
ATOM     26  C   UNL     1       9.978  12.451  21.214  0.00  0.00    +0.000 A 
ATOM     27  C   UNL     1      10.682  13.556  20.741  0.00  0.00    +0.000 A 
ATOM     28  C   UNL     1      10.967  13.600  19.376  0.00  0.00    +0.000 A 
ATOM     29  N   UNL     1      11.634  14.560  18.646  0.00  0.00    +0.000 N 
ATOM     30  C   UNL     1      11.686  14.202  17.326  0.00  0.00    +0.000 A 
ATOM     31  C   UNL     1      11.043  12.990  17.197  0.00  0.00    +0.000 A 
ATOM     32  C   UNL     1      10.575  12.596  18.484  0.00  0.00    +0.000 A 
ATOM     33  H   UNL     1      12.023  15.405  19.038  0.00  0.00    +0.000 HD
ENDBRANCH  23  24
ENDBRANCH  22  23
ENDBRANCH  19  22
ENDBRANCH  18  19
ENDBRANCH   7  18
TORSDOF 7
ENDMDL
MODEL 7
REMARK VINA RESULT:      -7.6      0.696      1.643
REMARK  Name = 
REMARK  8 active torsions:
REMARK  status: ('A' for Active; 'I' for Inactive)
REMARK    1  A    between atoms: C_1  and  C_2
REMARK    2  A    between atoms: C_4  and  C_5
REMARK    3  A    between atoms: N_17  and  C_18
REMARK    4  A    between atoms: C_18  and  C_19
REMARK    5  A    between atoms: C_19  and  O_20
REMARK    6  A    between atoms: C_19  and  C_21
REMARK    7  A    between atoms: C_21  and  O_22
REMARK    8  A    between atoms: O_22  and  C_23
REMARK                            x       y       z     vdW  Elec       q    Type
REMARK                         _______ _______ _______ _____ _____    ______ ____
ROOT
ATOM      1  C   UNL     1       1.354   4.021  18.288  0.00  0.00    +0.000 C 
ATOM      2  C   UNL     1       2.773   4.348  17.794  0.00  0.00    +0.000 C 
ATOM      3  C   UNL     1       3.758   3.329  18.399  0.00  0.00    +0.000 C 
ATOM      4  C   UNL     1       5.204   3.840  18.406  0.00  0.00    +0.000 C 
ATOM      5  C   UNL     1       5.249   5.100  19.292  0.00  0.00    +0.000 C 
ATOM      6  C   UNL     1       3.972   5.957  19.225  0.00  0.00    +0.000 C 
ATOM      7  N   UNL     1       3.217   5.740  17.995  0.00  0.00    +0.000 NA
ENDROOT
BRANCH   4   8
ATOM      8  C   UNL     1       5.796   4.036  17.013  0.00  0.00    +0.000 A 
ATOM      9  C   UNL     1       5.436   3.461  15.809  0.00  0.00    +0.000 A 
ATOM     10  C   UNL     1       6.162   3.968  14.680  0.00  0.00    +0.000 A 
ATOM     11  C   UNL     1       6.050   3.661  13.305  0.00  0.00    +0.000 A 
ATOM     12  C   UNL     1       6.875   4.299  12.382  0.00  0.00    +0.000 A 
ATOM     13  F   UNL     1       6.770   3.995  11.080  0.00  0.00    +0.000 F 
ATOM     14  C   UNL     1       7.809   5.237  12.783  0.00  0.00    +0.000 A 
ATOM     15  C   UNL     1       7.935   5.564  14.135  0.00  0.00    +0.000 A 
ATOM     16  C   UNL     1       7.100   4.923  15.073  0.00  0.00    +0.000 A 
ATOM     17  S   UNL     1       7.057   5.176  16.773  0.00  0.00    +0.000 S 
ENDBRANCH   4   8
BRANCH   7  18
ATOM     18  C   UNL     1       2.197   6.760  17.742  0.00  0.00    +0.000 C 
BRANCH  18  19
ATOM     19  C   UNL     1       2.333   8.022  18.627  0.00  0.00    +0.000 C 
BRANCH  19  20
ATOM     20  O   UNL     1       1.729   7.736  19.902  0.00  0.00    +0.000 OA
ATOM     21  H   UNL     1       0.873   8.198  19.937  0.00  0.00    +0.000 HD
ENDBRANCH  19  20
BRANCH  19  22
ATOM     22  C   UNL     1       1.637   9.218  17.948  0.00  0.00    +0.000 C 
BRANCH  22  23
ATOM     23  O   UNL     1       0.897   9.999  18.894  0.00  0.00    +0.000 OA
BRANCH  23  24
ATOM     24  C   UNL     1      -0.375  10.341  18.485  0.00  0.00    +0.000 A 
ATOM     25  C   UNL     1      -1.068   9.684  17.452  0.00  0.00    +0.000 A 
ATOM     26  C   UNL     1      -2.362  10.057  17.088  0.00  0.00    +0.000 A 
ATOM     27  C   UNL     1      -3.016  11.105  17.731  0.00  0.00    +0.000 A 
ATOM     28  C   UNL     1      -2.332  11.755  18.759  0.00  0.00    +0.000 A 
ATOM     29  N   UNL     1      -2.728  12.810  19.552  0.00  0.00    +0.000 N 
ATOM     30  C   UNL     1      -1.738  13.135  20.440  0.00  0.00    +0.000 A 
ATOM     31  C   UNL     1      -0.683  12.277  20.220  0.00  0.00    +0.000 A 
ATOM     32  C   UNL     1      -1.038  11.399  19.156  0.00  0.00    +0.000 A 
ATOM     33  H   UNL     1      -3.622  13.273  19.478  0.00  0.00    +0.000 HD
ENDBRANCH  23  24
ENDBRANCH  22  23
ENDBRANCH  19  22
ENDBRANCH  18  19
ENDBRANCH   7  18
TORSDOF 7
ENDMDL
MODEL 8
REMARK VINA RESULT:      -7.6      4.355      9.653
REMARK  Name = 
REMARK  8 active torsions:
REMARK  status: ('A' for Active; 'I' for Inactive)
REMARK    1  A    between atoms: C_1  and  C_2
REMARK    2  A    between atoms: C_4  and  C_5
REMARK    3  A    between atoms: N_17  and  C_18
REMARK    4  A    between atoms: C_18  and  C_19
REMARK    5  A    between atoms: C_19  and  O_20
REMARK    6  A    between atoms: C_19  and  C_21
REMARK    7  A    between atoms: C_21  and  O_22
REMARK    8  A    between atoms: O_22  and  C_23
REMARK                            x       y       z     vdW  Elec       q    Type
REMARK                         _______ _______ _______ _____ _____    ______ ____
ROOT
ATOM      1  C   UNL     1      -0.131   9.440  21.368  0.00  0.00    +0.000 C 
ATOM      2  C   UNL     1       0.026  10.679  20.472  0.00  0.00    +0.000 C 
ATOM      3  C   UNL     1      -0.920  11.785  20.980  0.00  0.00    +0.000 C 
ATOM      4  C   UNL     1      -1.230  12.834  19.906  0.00  0.00    +0.000 C 
ATOM      5  C   UNL     1      -1.949  12.117  18.747  0.00  0.00    +0.000 C 
ATOM      6  C   UNL     1      -1.466  10.675  18.510  0.00  0.00    +0.000 C 
ATOM      7  N   UNL     1      -0.119  10.445  19.023  0.00  0.00    +0.000 NA
ENDROOT
BRANCH   4   8
ATOM      8  C   UNL     1      -0.017  13.654  19.476  0.00  0.00    +0.000 A 
ATOM      9  C   UNL     1       1.277  13.249  19.214  0.00  0.00    +0.000 A 
ATOM     10  C   UNL     1       2.130  14.297  18.731  0.00  0.00    +0.000 A 
ATOM     11  C   UNL     1       3.483  14.263  18.323  0.00  0.00    +0.000 A 
ATOM     12  C   UNL     1       4.104  15.429  17.881  0.00  0.00    +0.000 A 
ATOM     13  F   UNL     1       5.391  15.391  17.505  0.00  0.00    +0.000 F 
ATOM     14  C   UNL     1       3.420  16.631  17.829  0.00  0.00    +0.000 A 
ATOM     15  C   UNL     1       2.081  16.689  18.220  0.00  0.00    +0.000 A 
ATOM     16  C   UNL     1       1.447  15.511  18.665  0.00  0.00    +0.000 A 
ATOM     17  S   UNL     1      -0.187  15.335  19.172  0.00  0.00    +0.000 S 
ENDBRANCH   4   8
BRANCH   7  18
ATOM     18  C   UNL     1       0.498   9.211  18.529  0.00  0.00    +0.000 C 
BRANCH  18  19
ATOM     19  C   UNL     1       2.007   9.343  18.212  0.00  0.00    +0.000 C 
BRANCH  19  20
ATOM     20  O   UNL     1       2.172  10.433  17.286  0.00  0.00    +0.000 OA
ATOM     21  H   UNL     1       2.644  11.147  17.748  0.00  0.00    +0.000 HD
ENDBRANCH  19  20
BRANCH  19  22
ATOM     22  C   UNL     1       2.533   8.027  17.607  0.00  0.00    +0.000 C 
BRANCH  22  23
ATOM     23  O   UNL     1       2.891   7.087  18.629  0.00  0.00    +0.000 OA
BRANCH  23  24
ATOM     24  C   UNL     1       2.952   5.776  18.205  0.00  0.00    +0.000 A 
ATOM     25  C   UNL     1       1.842   4.914  18.161  0.00  0.00    +0.000 A 
ATOM     26  C   UNL     1       1.954   3.600  17.706  0.00  0.00    +0.000 A 
ATOM     27  C   UNL     1       3.178   3.088  17.285  0.00  0.00    +0.000 A 
ATOM     28  C   UNL     1       4.280   3.942  17.323  0.00  0.00    +0.000 A 
ATOM     29  N   UNL     1       5.592   3.705  16.974  0.00  0.00    +0.000 N 
ATOM     30  C   UNL     1       6.347   4.829  17.171  0.00  0.00    +0.000 A 
ATOM     31  C   UNL     1       5.512   5.813  17.655  0.00  0.00    +0.000 A 
ATOM     32  C   UNL     1       4.200   5.268  17.763  0.00  0.00    +0.000 A 
ATOM     33  H   UNL     1       5.938   2.823  16.627  0.00  0.00    +0.000 HD
ENDBRANCH  23  24
ENDBRANCH  22  23
ENDBRANCH  19  22
ENDBRANCH  18  19
ENDBRANCH   7  18
TORSDOF 7
ENDMDL
MODEL 9
REMARK VINA RESULT:      -7.6      4.526      9.496
REMARK  Name = 
REMARK  8 active torsions:
REMARK  status: ('A' for Active; 'I' for Inactive)
REMARK    1  A    between atoms: C_1  and  C_2
REMARK    2  A    between atoms: C_4  and  C_5
REMARK    3  A    between atoms: N_17  and  C_18
REMARK    4  A    between atoms: C_18  and  C_19
REMARK    5  A    between atoms: C_19  and  O_20
REMARK    6  A    between atoms: C_19  and  C_21
REMARK    7  A    between atoms: C_21  and  O_22
REMARK    8  A    between atoms: O_22  and  C_23
REMARK                            x       y       z     vdW  Elec       q    Type
REMARK                         _______ _______ _______ _____ _____    ______ ____
ROOT
ATOM      1  C   UNL     1       0.536   9.251  22.286  0.00  0.00    +0.000 C 
ATOM      2  C   UNL     1       0.703  10.473  21.368  0.00  0.00    +0.000 C 
ATOM      3  C   UNL     1      -0.166  11.626  21.909  0.00  0.00    +0.000 C 
ATOM      4  C   UNL     1      -0.482  12.677  20.839  0.00  0.00    +0.000 C 
ATOM      5  C   UNL     1      -1.290  11.982  19.726  0.00  0.00    +0.000 C 
ATOM      6  C   UNL     1      -0.884  10.517  19.483  0.00  0.00    +0.000 C 
ATOM      7  N   UNL     1       0.476  10.231  19.931  0.00  0.00    +0.000 NA
ENDROOT
BRANCH   4   8
ATOM      8  C   UNL     1       0.743  13.437  20.340  0.00  0.00    +0.000 A 
ATOM      9  C   UNL     1       1.830  13.924  21.040  0.00  0.00    +0.000 A 
ATOM     10  C   UNL     1       2.847  14.504  20.211  0.00  0.00    +0.000 A 
ATOM     11  C   UNL     1       4.101  15.060  20.552  0.00  0.00    +0.000 A 
ATOM     12  C   UNL     1       4.931  15.564  19.553  0.00  0.00    +0.000 A 
ATOM     13  F   UNL     1       6.115  16.100  19.885  0.00  0.00    +0.000 F 
ATOM     14  C   UNL     1       4.554  15.530  18.222  0.00  0.00    +0.000 A 
ATOM     15  C   UNL     1       3.324  14.979  17.859  0.00  0.00    +0.000 A 
ATOM     16  C   UNL     1       2.481  14.465  18.866  0.00  0.00    +0.000 A 
ATOM     17  S   UNL     1       0.943  13.725  18.659  0.00  0.00    +0.000 S 
ENDBRANCH   4   8
BRANCH   7  18
ATOM     18  C   UNL     1       1.011   8.967  19.422  0.00  0.00    +0.000 C 
BRANCH  18  19
ATOM     19  C   UNL     1       2.148   9.134  18.385  0.00  0.00    +0.000 C 
BRANCH  19  20
ATOM     20  O   UNL     1       1.755  10.163  17.459  0.00  0.00    +0.000 OA
ATOM     21  H   UNL     1       1.812   9.793  16.560  0.00  0.00    +0.000 HD
ENDBRANCH  19  20
BRANCH  19  22
ATOM     22  C   UNL     1       2.391   7.801  17.651  0.00  0.00    +0.000 C 
BRANCH  22  23
ATOM     23  O   UNL     1       2.615   6.728  18.575  0.00  0.00    +0.000 OA
BRANCH  23  24
ATOM     24  C   UNL     1       3.183   5.601  18.016  0.00  0.00    +0.000 A 
ATOM     25  C   UNL     1       4.392   5.607  17.299  0.00  0.00    +0.000 A 
ATOM     26  C   UNL     1       4.933   4.435  16.769  0.00  0.00    +0.000 A 
ATOM     27  C   UNL     1       4.288   3.211  16.925  0.00  0.00    +0.000 A 
ATOM     28  C   UNL     1       3.090   3.203  17.640  0.00  0.00    +0.000 A 
ATOM     29  N   UNL     1       2.250   2.152  17.941  0.00  0.00    +0.000 N 
ATOM     30  C   UNL     1       1.177   2.594  18.666  0.00  0.00    +0.000 A 
ATOM     31  C   UNL     1       1.322   3.953  18.841  0.00  0.00    +0.000 A 
ATOM     32  C   UNL     1       2.526   4.358  18.193  0.00  0.00    +0.000 A 
ATOM     33  H   UNL     1       2.410   1.197  17.658  0.00  0.00    +0.000 HD
ENDBRANCH  23  24
ENDBRANCH  22  23
ENDBRANCH  19  22
ENDBRANCH  18  19
ENDBRANCH   7  18
TORSDOF 7
ENDMDL
