MODEL 1
REMARK VINA RESULT:      -7.5      0.000      0.000
REMARK  Name = 
REMARK  4 active torsions:
REMARK  status: ('A' for Active; 'I' for Inactive)
REMARK    1  A    between atoms: C_2  and  O_3
REMARK    2  A    between atoms: C_2  and  C_4
REMARK    3  A    between atoms: C_4  and  N_5
REMARK    4  A    between atoms: C_17  and  C_19
REMARK                            x       y       z     vdW  Elec       q    Type
REMARK                         _______ _______ _______ _____ _____    ______ ____
ROOT
ATOM      1  N   UNL     1      -0.644  10.568  19.034  0.00  0.00    +0.000 N 
ATOM      2  C   UNL     1       0.393   9.679  19.158  0.00  0.00    +0.000 A 
ATOM      3  C   UNL     1       0.598   9.414  20.497  0.00  0.00    +0.000 A 
ATOM      4  C   UNL     1      -0.275  10.262  21.226  0.00  0.00    +0.000 A 
ATOM      5  C   UNL     1      -0.467  10.468  22.607  0.00  0.00    +0.000 A 
ATOM      6  C   UNL     1      -1.406  11.398  23.050  0.00  0.00    +0.000 A 
ATOM      7  C   UNL     1      -2.152  12.126  22.130  0.00  0.00    +0.000 A 
ATOM      8  C   UNL     1      -1.984  11.942  20.752  0.00  0.00    +0.000 A 
ATOM      9 CL   UNL     1      -2.915  12.943  19.705  0.00  0.00    +0.000 Cl
ATOM     10  C   UNL     1      -1.042  10.994  20.298  0.00  0.00    +0.000 A 
ATOM     11  C   UNL     1       1.608   8.424  21.008  0.00  0.00    +0.000 C 
ATOM     12  N   UNL     1       2.088   7.614  19.873  0.00  0.00    +0.000 N 
ATOM     13  C   UNL     1       2.109   6.225  20.029  0.00  0.00    +0.000 C 
ATOM     14  O   UNL     1       1.853   5.696  21.111  0.00  0.00    +0.000 OA
ATOM     15  C   UNL     1       2.442   8.401  18.676  0.00  0.00    +0.000 C 
ATOM     16  C   UNL     1       1.162   9.014  18.056  0.00  0.00    +0.000 C 
ENDROOT
BRANCH  13  17
ATOM     17  C   UNL     1       2.475   5.303  18.906  0.00  0.00    +0.000 A 
ATOM     18  C   UNL     1       1.555   4.299  18.562  0.00  0.00    +0.000 A 
ATOM     19  C   UNL     1       1.835   3.398  17.531  0.00  0.00    +0.000 A 
ATOM     20  C   UNL     1       3.043   3.476  16.844  0.00  0.00    +0.000 A 
ATOM     21  C   UNL     1       3.944   4.491  17.144  0.00  0.00    +0.000 A 
ATOM     22  C   UNL     1       3.636   5.425  18.139  0.00  0.00    +0.000 A 
ENDBRANCH  13  17
BRANCH   1  23
ATOM     23  C   UNL     1      -1.241  10.932  17.752  0.00  0.00    +0.000 C 
BRANCH  23  25
ATOM     24  O   UNL     1      -3.087   9.433  18.038  0.00  0.00    +0.000 OA
ATOM     25  C   UNL     1      -2.312   9.989  17.267  0.00  0.00    +0.000 C 
BRANCH  25  26
ATOM     26  O   UNL     1      -2.418   9.812  15.932  0.00  0.00    +0.000 OA
ATOM     27  H   UNL     1      -2.640   8.907  15.639  0.00  0.00    +0.000 HD
ENDBRANCH  25  26
ENDBRANCH  23  25
ENDBRANCH   1  23
TORSDOF 4
ENDMDL
MODEL 2
REMARK VINA RESULT:      -7.1      3.193      8.013
REMARK  Name = 
REMARK  4 active torsions:
REMARK  status: ('A' for Active; 'I' for Inactive)
REMARK    1  A    between atoms: C_2  and  O_3
REMARK    2  A    between atoms: C_2  and  C_4
REMARK    3  A    between atoms: C_4  and  N_5
REMARK    4  A    between atoms: C_17  and  C_19
REMARK                            x       y       z     vdW  Elec       q    Type
REMARK                         _______ _______ _______ _____ _____    ______ ____
ROOT
ATOM      1  N   UNL     1       2.054   4.487  19.429  0.00  0.00    +0.000 N 
ATOM      2  C   UNL     1       2.062   5.853  19.551  0.00  0.00    +0.000 A 
ATOM      3  C   UNL     1       2.901   6.383  18.590  0.00  0.00    +0.000 A 
ATOM      4  C   UNL     1       3.517   5.289  17.929  0.00  0.00    +0.000 A 
ATOM      5  C   UNL     1       4.490   5.219  16.912  0.00  0.00    +0.000 A 
ATOM      6  C   UNL     1       4.932   3.979  16.453  0.00  0.00    +0.000 A 
ATOM      7  C   UNL     1       4.417   2.810  17.001  0.00  0.00    +0.000 A 
ATOM      8  C   UNL     1       3.448   2.848  18.012  0.00  0.00    +0.000 A 
ATOM      9 CL   UNL     1       2.927   1.341  18.662  0.00  0.00    +0.000 Cl
ATOM     10  C   UNL     1       2.989   4.101  18.473  0.00  0.00    +0.000 A 
ATOM     11  C   UNL     1       3.099   7.858  18.376  0.00  0.00    +0.000 C 
ATOM     12  N   UNL     1       2.060   8.586  19.127  0.00  0.00    +0.000 N 
ATOM     13  C   UNL     1       1.351   9.584  18.453  0.00  0.00    +0.000 C 
ATOM     14  O   UNL     1       1.657   9.932  17.312  0.00  0.00    +0.000 OA
ATOM     15  C   UNL     1       1.872   8.112  20.512  0.00  0.00    +0.000 C 
ATOM     16  C   UNL     1       1.258   6.691  20.498  0.00  0.00    +0.000 C 
ENDROOT
BRANCH  13  17
ATOM     17  C   UNL     1       0.204  10.311  19.085  0.00  0.00    +0.000 A 
ATOM     18  C   UNL     1      -0.978  10.438  18.337  0.00  0.00    +0.000 A 
ATOM     19  C   UNL     1      -2.085  11.112  18.861  0.00  0.00    +0.000 A 
ATOM     20  C   UNL     1      -2.020  11.683  20.129  0.00  0.00    +0.000 A 
ATOM     21  C   UNL     1      -0.872  11.527  20.898  0.00  0.00    +0.000 A 
ATOM     22  C   UNL     1       0.213  10.804  20.392  0.00  0.00    +0.000 A 
ENDBRANCH  13  17
BRANCH   1  23
ATOM     23  C   UNL     1       1.143   3.620  20.171  0.00  0.00    +0.000 C 
BRANCH  23  25
ATOM     24  O   UNL     1       2.938   3.013  21.636  0.00  0.00    +0.000 OA
ATOM     25  C   UNL     1       1.731   3.010  21.418  0.00  0.00    +0.000 C 
BRANCH  25  26
ATOM     26  O   UNL     1       0.866   2.495  22.319  0.00  0.00    +0.000 OA
ATOM     27  H   UNL     1      -0.082   2.638  22.128  0.00  0.00    +0.000 HD
ENDBRANCH  25  26
ENDBRANCH  23  25
ENDBRANCH   1  23
TORSDOF 4
ENDMDL
MODEL 3
REMARK VINA RESULT:      -6.9      1.857      2.602
REMARK  Name = 
REMARK  4 active torsions:
REMARK  status: ('A' for Active; 'I' for Inactive)
REMARK    1  A    between atoms: C_2  and  O_3
REMARK    2  A    between atoms: C_2  and  C_4
REMARK    3  A    between atoms: C_4  and  N_5
REMARK    4  A    between atoms: C_17  and  C_19
REMARK                            x       y       z     vdW  Elec       q    Type
REMARK                         _______ _______ _______ _____ _____    ______ ____
ROOT
ATOM      1  N   UNL     1      -2.655  10.605  17.990  0.00  0.00    +0.000 N 
ATOM      2  C   UNL     1      -1.368  10.255  18.308  0.00  0.00    +0.000 A 
ATOM      3  C   UNL     1      -1.025  10.848  19.508  0.00  0.00    +0.000 A 
ATOM      4  C   UNL     1      -2.110  11.685  19.879  0.00  0.00    +0.000 A 
ATOM      5  C   UNL     1      -2.303  12.564  20.964  0.00  0.00    +0.000 A 
ATOM      6  C   UNL     1      -3.489  13.288  21.073  0.00  0.00    +0.000 A 
ATOM      7  C   UNL     1      -4.481  13.147  20.110  0.00  0.00    +0.000 A 
ATOM      8  C   UNL     1      -4.318  12.280  19.022  0.00  0.00    +0.000 A 
ATOM      9 CL   UNL     1      -5.584  12.233  17.856  0.00  0.00    +0.000 Cl
ATOM     10  C   UNL     1      -3.123  11.537  18.912  0.00  0.00    +0.000 A 
ATOM     11  C   UNL     1       0.288  10.627  20.204  0.00  0.00    +0.000 C 
ATOM     12  N   UNL     1       0.974   9.488  19.566  0.00  0.00    +0.000 N 
ATOM     13  C   UNL     1       1.487   8.489  20.397  0.00  0.00    +0.000 C 
ATOM     14  O   UNL     1       1.479   8.607  21.624  0.00  0.00    +0.000 OA
ATOM     15  C   UNL     1       0.978   9.536  18.090  0.00  0.00    +0.000 C 
ATOM     16  C   UNL     1      -0.461   9.327  17.557  0.00  0.00    +0.000 C 
ENDROOT
BRANCH  13  17
ATOM     17  C   UNL     1       2.105   7.239  19.852  0.00  0.00    +0.000 A 
ATOM     18  C   UNL     1       1.833   6.033  20.520  0.00  0.00    +0.000 A 
ATOM     19  C   UNL     1       2.384   4.829  20.072  0.00  0.00    +0.000 A 
ATOM     20  C   UNL     1       3.227   4.816  18.965  0.00  0.00    +0.000 A 
ATOM     21  C   UNL     1       3.471   5.994  18.267  0.00  0.00    +0.000 A 
ATOM     22  C   UNL     1       2.873   7.188  18.686  0.00  0.00    +0.000 A 
ENDBRANCH  13  17
BRANCH   1  23
ATOM     23  C   UNL     1      -3.395  10.017  16.877  0.00  0.00    +0.000 C 
BRANCH  23  25
ATOM     24  O   UNL     1      -3.262   9.931  14.488  0.00  0.00    +0.000 OA
ATOM     25  C   UNL     1      -3.012  10.546  15.518  0.00  0.00    +0.000 C 
BRANCH  25  26
ATOM     26  O   UNL     1      -2.417  11.758  15.475  0.00  0.00    +0.000 OA
ATOM     27  H   UNL     1      -2.990  12.522  15.681  0.00  0.00    +0.000 HD
ENDBRANCH  25  26
ENDBRANCH  23  25
ENDBRANCH   1  23
TORSDOF 4
ENDMDL
MODEL 4
REMARK VINA RESULT:      -6.8      1.798      2.761
REMARK  Name = 
REMARK  4 active torsions:
REMARK  status: ('A' for Active; 'I' for Inactive)
REMARK    1  A    between atoms: C_2  and  O_3
REMARK    2  A    between atoms: C_2  and  C_4
REMARK    3  A    between atoms: C_4  and  N_5
REMARK    4  A    between atoms: C_17  and  C_19
REMARK                            x       y       z     vdW  Elec       q    Type
REMARK                         _______ _______ _______ _____ _____    ______ ____
ROOT
ATOM      1  N   UNL     1      -2.773  10.788  18.182  0.00  0.00    +0.000 N 
ATOM      2  C   UNL     1      -1.479  10.414  18.438  0.00  0.00    +0.000 A 
ATOM      3  C   UNL     1      -1.055  11.031  19.598  0.00  0.00    +0.000 A 
ATOM      4  C   UNL     1      -2.096  11.906  20.006  0.00  0.00    +0.000 A 
ATOM      5  C   UNL     1      -2.205  12.819  21.074  0.00  0.00    +0.000 A 
ATOM      6  C   UNL     1      -3.365  13.576  21.228  0.00  0.00    +0.000 A 
ATOM      7  C   UNL     1      -4.414  13.434  20.327  0.00  0.00    +0.000 A 
ATOM      8  C   UNL     1      -4.334  12.534  19.257  0.00  0.00    +0.000 A 
ATOM      9 CL   UNL     1      -5.665  12.487  18.166  0.00  0.00    +0.000 Cl
ATOM     10  C   UNL     1      -3.166  11.757  19.102  0.00  0.00    +0.000 A 
ATOM     11  C   UNL     1       0.291  10.795  20.227  0.00  0.00    +0.000 C 
ATOM     12  N   UNL     1       0.910   9.621  19.584  0.00  0.00    +0.000 N 
ATOM     13  C   UNL     1       1.446   8.633  20.414  0.00  0.00    +0.000 C 
ATOM     14  O   UNL     1       1.511   8.785  21.635  0.00  0.00    +0.000 OA
ATOM     15  C   UNL     1       0.832   9.628  18.110  0.00  0.00    +0.000 C 
ATOM     16  C   UNL     1      -0.640   9.442  17.665  0.00  0.00    +0.000 C 
ENDROOT
BRANCH  13  17
ATOM     17  C   UNL     1       2.002   7.352  19.872  0.00  0.00    +0.000 A 
ATOM     18  C   UNL     1       2.780   7.422  18.705  0.00  0.00    +0.000 A 
ATOM     19  C   UNL     1       3.322   6.266  18.138  0.00  0.00    +0.000 A 
ATOM     20  C   UNL     1       3.080   5.024  18.718  0.00  0.00    +0.000 A 
ATOM     21  C   UNL     1       2.348   4.943  19.898  0.00  0.00    +0.000 A 
ATOM     22  C   UNL     1       1.854   6.109  20.492  0.00  0.00    +0.000 A 
ENDBRANCH  13  17
BRANCH   1  23
ATOM     23  C   UNL     1      -3.590  10.189  17.131  0.00  0.00    +0.000 C 
BRANCH  23  25
ATOM     24  O   UNL     1      -2.660   9.943  14.938  0.00  0.00    +0.000 OA
ATOM     25  C   UNL     1      -3.259  10.655  15.736  0.00  0.00    +0.000 C 
BRANCH  25  26
ATOM     26  O   UNL     1      -3.691  11.884  15.378  0.00  0.00    +0.000 OA
ATOM     27  H   UNL     1      -3.555  12.592  16.038  0.00  0.00    +0.000 HD
ENDBRANCH  25  26
ENDBRANCH  23  25
ENDBRANCH   1  23
TORSDOF 4
ENDMDL
MODEL 5
REMARK VINA RESULT:      -6.7      3.841      7.539
REMARK  Name = 
REMARK  4 active torsions:
REMARK  status: ('A' for Active; 'I' for Inactive)
REMARK    1  A    between atoms: C_2  and  O_3
REMARK    2  A    between atoms: C_2  and  C_4
REMARK    3  A    between atoms: C_4  and  N_5
REMARK    4  A    between atoms: C_17  and  C_19
REMARK                            x       y       z     vdW  Elec       q    Type
REMARK                         _______ _______ _______ _____ _____    ______ ____
ROOT
ATOM      1  N   UNL     1       3.314   6.416  18.113  0.00  0.00    +0.000 N 
ATOM      2  C   UNL     1       2.507   7.490  18.387  0.00  0.00    +0.000 A 
ATOM      3  C   UNL     1       1.841   7.259  19.575  0.00  0.00    +0.000 A 
ATOM      4  C   UNL     1       2.170   5.941  19.985  0.00  0.00    +0.000 A 
ATOM      5  C   UNL     1       1.753   5.153  21.076  0.00  0.00    +0.000 A 
ATOM      6  C   UNL     1       2.239   3.856  21.227  0.00  0.00    +0.000 A 
ATOM      7  C   UNL     1       3.133   3.336  20.298  0.00  0.00    +0.000 A 
ATOM      8  C   UNL     1       3.567   4.095  19.204  0.00  0.00    +0.000 A 
ATOM      9 CL   UNL     1       4.624   3.329  18.082  0.00  0.00    +0.000 Cl
ATOM     10  C   UNL     1       3.086   5.413  19.052  0.00  0.00    +0.000 A 
ATOM     11  C   UNL     1       0.923   8.257  20.226  0.00  0.00    +0.000 C 
ATOM     12  N   UNL     1       1.101   9.562  19.563  0.00  0.00    +0.000 N 
ATOM     13  C   UNL     1       1.289  10.683  20.375  0.00  0.00    +0.000 C 
ATOM     14  O   UNL     1       1.190  10.613  21.601  0.00  0.00    +0.000 OA
ATOM     15  C   UNL     1       1.107   9.494  18.088  0.00  0.00    +0.000 C 
ATOM     16  C   UNL     1       2.383   8.763  17.605  0.00  0.00    +0.000 C 
ENDROOT
BRANCH  13  17
ATOM     17  C   UNL     1       1.585  12.037  19.808  0.00  0.00    +0.000 A 
ATOM     18  C   UNL     1       1.217  13.158  20.571  0.00  0.00    +0.000 A 
ATOM     19  C   UNL     1       1.455  14.452  20.099  0.00  0.00    +0.000 A 
ATOM     20  C   UNL     1       2.046  14.644  18.853  0.00  0.00    +0.000 A 
ATOM     21  C   UNL     1       2.456  13.544  18.106  0.00  0.00    +0.000 A 
ATOM     22  C   UNL     1       2.266  12.252  18.607  0.00  0.00    +0.000 A 
ENDBRANCH  13  17
BRANCH   1  23
ATOM     23  C   UNL     1       4.288   6.399  17.027  0.00  0.00    +0.000 C 
BRANCH  23  25
ATOM     24  O   UNL     1       6.189   6.208  18.471  0.00  0.00    +0.000 OA
ATOM     25  C   UNL     1       5.707   6.685  17.450  0.00  0.00    +0.000 C 
BRANCH  25  26
ATOM     26  O   UNL     1       6.450   7.458  16.629  0.00  0.00    +0.000 OA
ATOM     27  H   UNL     1       6.633   8.364  16.948  0.00  0.00    +0.000 HD
ENDBRANCH  25  26
ENDBRANCH  23  25
ENDBRANCH   1  23
TORSDOF 4
ENDMDL
MODEL 6
REMARK VINA RESULT:      -6.6      1.813      2.757
REMARK  Name = 
REMARK  4 active torsions:
REMARK  status: ('A' for Active; 'I' for Inactive)
REMARK    1  A    between atoms: C_2  and  O_3
REMARK    2  A    between atoms: C_2  and  C_4
REMARK    3  A    between atoms: C_4  and  N_5
REMARK    4  A    between atoms: C_17  and  C_19
REMARK                            x       y       z     vdW  Elec       q    Type
REMARK                         _______ _______ _______ _____ _____    ______ ____
ROOT
ATOM      1  N   UNL     1      -2.915  11.273  18.866  0.00  0.00    +0.000 N 
ATOM      2  C   UNL     1      -1.616  10.846  18.973  0.00  0.00    +0.000 A 
ATOM      3  C   UNL     1      -1.052  11.404  20.103  0.00  0.00    +0.000 A 
ATOM      4  C   UNL     1      -2.011  12.299  20.645  0.00  0.00    +0.000 A 
ATOM      5  C   UNL     1      -1.976  13.175  21.748  0.00  0.00    +0.000 A 
ATOM      6  C   UNL     1      -3.085  13.965  22.048  0.00  0.00    +0.000 A 
ATOM      7  C   UNL     1      -4.225  13.893  21.256  0.00  0.00    +0.000 A 
ATOM      8  C   UNL     1      -4.290  13.030  20.154  0.00  0.00    +0.000 A 
ATOM      9 CL   UNL     1      -5.726  13.069  19.206  0.00  0.00    +0.000 Cl
ATOM     10  C   UNL     1      -3.174  12.220  19.853  0.00  0.00    +0.000 A 
ATOM     11  C   UNL     1       0.341  11.100  20.579  0.00  0.00    +0.000 C 
ATOM     12  N   UNL     1       0.847   9.930  19.837  0.00  0.00    +0.000 N 
ATOM     13  C   UNL     1       1.427   8.894  20.574  0.00  0.00    +0.000 C 
ATOM     14  O   UNL     1       1.623   8.999  21.786  0.00  0.00    +0.000 OA
ATOM     15  C   UNL     1       0.618   9.994  18.380  0.00  0.00    +0.000 C 
ATOM     16  C   UNL     1      -0.898   9.875  18.085  0.00  0.00    +0.000 C 
ENDROOT
BRANCH  13  17
ATOM     17  C   UNL     1       1.875   7.616  19.935  0.00  0.00    +0.000 A 
ATOM     18  C   UNL     1       1.600   6.417  20.612  0.00  0.00    +0.000 A 
ATOM     19  C   UNL     1       1.997   5.188  20.079  0.00  0.00    +0.000 A 
ATOM     20  C   UNL     1       2.690   5.141  18.873  0.00  0.00    +0.000 A 
ATOM     21  C   UNL     1       2.932   6.316  18.169  0.00  0.00    +0.000 A 
ATOM     22  C   UNL     1       2.484   7.539  18.679  0.00  0.00    +0.000 A 
ENDBRANCH  13  17
BRANCH   1  23
ATOM     23  C   UNL     1      -3.857  10.741  17.886  0.00  0.00    +0.000 C 
BRANCH  23  25
ATOM     24  O   UNL     1      -3.012  11.087  15.672  0.00  0.00    +0.000 OA
ATOM     25  C   UNL     1      -3.812  11.418  16.539  0.00  0.00    +0.000 C 
BRANCH  25  26
ATOM     26  O   UNL     1      -4.727  12.384  16.305  0.00  0.00    +0.000 OA
ATOM     27  H   UNL     1      -5.053  12.862  17.093  0.00  0.00    +0.000 HD
ENDBRANCH  25  26
ENDBRANCH  23  25
ENDBRANCH   1  23
TORSDOF 4
ENDMDL
MODEL 7
REMARK VINA RESULT:      -6.5      3.019      4.733
REMARK  Name = 
REMARK  4 active torsions:
REMARK  status: ('A' for Active; 'I' for Inactive)
REMARK    1  A    between atoms: C_2  and  O_3
REMARK    2  A    between atoms: C_2  and  C_4
REMARK    3  A    between atoms: C_4  and  N_5
REMARK    4  A    between atoms: C_17  and  C_19
REMARK                            x       y       z     vdW  Elec       q    Type
REMARK                         _______ _______ _______ _____ _____    ______ ____
ROOT
ATOM      1  N   UNL     1      -4.567  12.246  19.572  0.00  0.00    +0.000 N 
ATOM      2  C   UNL     1      -3.204  12.166  19.439  0.00  0.00    +0.000 A 
ATOM      3  C   UNL     1      -2.612  12.887  20.457  0.00  0.00    +0.000 A 
ATOM      4  C   UNL     1      -3.657  13.526  21.174  0.00  0.00    +0.000 A 
ATOM      5  C   UNL     1      -3.654  14.419  22.265  0.00  0.00    +0.000 A 
ATOM      6  C   UNL     1      -4.857  14.910  22.768  0.00  0.00    +0.000 A 
ATOM      7  C   UNL     1      -6.062  14.524  22.193  0.00  0.00    +0.000 A 
ATOM      8  C   UNL     1      -6.096  13.637  21.109  0.00  0.00    +0.000 A 
ATOM      9 CL   UNL     1      -7.639  13.278  20.434  0.00  0.00    +0.000 Cl
ATOM     10  C   UNL     1      -4.882  13.128  20.602  0.00  0.00    +0.000 A 
ATOM     11  C   UNL     1      -1.126  12.963  20.672  0.00  0.00    +0.000 C 
ATOM     12  N   UNL     1      -0.477  11.936  19.836  0.00  0.00    +0.000 N 
ATOM     13  C   UNL     1       0.470  11.107  20.443  0.00  0.00    +0.000 C 
ATOM     14  O   UNL     1       0.843  11.298  21.602  0.00  0.00    +0.000 OA
ATOM     15  C   UNL     1      -0.968  11.892  18.445  0.00  0.00    +0.000 C 
ATOM     16  C   UNL     1      -2.430  11.381  18.424  0.00  0.00    +0.000 C 
ENDROOT
BRANCH  13  17
ATOM     17  C   UNL     1       1.111   9.965  19.717  0.00  0.00    +0.000 A 
ATOM     18  C   UNL     1       1.286   8.762  20.421  0.00  0.00    +0.000 A 
ATOM     19  C   UNL     1       1.885   7.657  19.809  0.00  0.00    +0.000 A 
ATOM     20  C   UNL     1       2.333   7.745  18.494  0.00  0.00    +0.000 A 
ATOM     21  C   UNL     1       2.127   8.915  17.770  0.00  0.00    +0.000 A 
ATOM     22  C   UNL     1       1.477   9.999  18.369  0.00  0.00    +0.000 A 
ENDBRANCH  13  17
BRANCH   1  23
ATOM     23  C   UNL     1      -5.499  11.460  18.769  0.00  0.00    +0.000 C 
BRANCH  23  25
ATOM     24  O   UNL     1      -6.349  13.056  17.198  0.00  0.00    +0.000 OA
ATOM     25  C   UNL     1      -5.750  12.003  17.385  0.00  0.00    +0.000 C 
BRANCH  25  26
ATOM     26  O   UNL     1      -5.244  11.300  16.348  0.00  0.00    +0.000 OA
ATOM     27  H   UNL     1      -5.607  10.401  16.225  0.00  0.00    +0.000 HD
ENDBRANCH  25  26
ENDBRANCH  23  25
ENDBRANCH   1  23
TORSDOF 4
ENDMDL
MODEL 8
REMARK VINA RESULT:      -6.5      3.996      9.144
REMARK  Name = 
REMARK  4 active torsions:
REMARK  status: ('A' for Active; 'I' for Inactive)
REMARK    1  A    between atoms: C_2  and  O_3
REMARK    2  A    between atoms: C_2  and  C_4
REMARK    3  A    between atoms: C_4  and  N_5
REMARK    4  A    between atoms: C_17  and  C_19
REMARK                            x       y       z     vdW  Elec       q    Type
REMARK                         _______ _______ _______ _____ _____    ______ ____
ROOT
ATOM      1  N   UNL     1      -1.433  11.909  20.210  0.00  0.00    +0.000 N 
ATOM      2  C   UNL     1      -2.386  12.424  21.051  0.00  0.00    +0.000 A 
ATOM      3  C   UNL     1      -2.169  11.939  22.326  0.00  0.00    +0.000 A 
ATOM      4  C   UNL     1      -1.108  11.001  22.236  0.00  0.00    +0.000 A 
ATOM      5  C   UNL     1      -0.497  10.163  23.191  0.00  0.00    +0.000 A 
ATOM      6  C   UNL     1       0.538   9.311  22.811  0.00  0.00    +0.000 A 
ATOM      7  C   UNL     1       0.968   9.283  21.489  0.00  0.00    +0.000 A 
ATOM      8  C   UNL     1       0.381  10.105  20.519  0.00  0.00    +0.000 A 
ATOM      9 CL   UNL     1       0.948   9.942  18.901  0.00  0.00    +0.000 Cl
ATOM     10  C   UNL     1      -0.661  10.978  20.900  0.00  0.00    +0.000 A 
ATOM     11  C   UNL     1      -2.977  12.350  23.525  0.00  0.00    +0.000 C 
ATOM     12  N   UNL     1      -3.789  13.527  23.164  0.00  0.00    +0.000 N 
ATOM     13  C   UNL     1      -3.769  14.621  24.033  0.00  0.00    +0.000 C 
ATOM     14  O   UNL     1      -3.194  14.567  25.121  0.00  0.00    +0.000 OA
ATOM     15  C   UNL     1      -4.492  13.402  21.872  0.00  0.00    +0.000 C 
ATOM     16  C   UNL     1      -3.462  13.412  20.715  0.00  0.00    +0.000 C 
ENDROOT
BRANCH  13  17
ATOM     17  C   UNL     1      -4.469  15.905  23.712  0.00  0.00    +0.000 A 
ATOM     18  C   UNL     1      -3.762  16.865  22.970  0.00  0.00    +0.000 A 
ATOM     19  C   UNL     1      -4.350  18.091  22.643  0.00  0.00    +0.000 A 
ATOM     20  C   UNL     1      -5.644  18.380  23.067  0.00  0.00    +0.000 A 
ATOM     21  C   UNL     1      -6.372  17.422  23.765  0.00  0.00    +0.000 A 
ATOM     22  C   UNL     1      -5.800  16.176  24.043  0.00  0.00    +0.000 A 
ENDBRANCH  13  17
BRANCH   1  23
ATOM     23  C   UNL     1      -1.259  12.346  18.828  0.00  0.00    +0.000 C 
BRANCH  23  25
ATOM     24  O   UNL     1      -2.749  10.603  18.137  0.00  0.00    +0.000 OA
ATOM     25  C   UNL     1      -2.027  11.539  17.812  0.00  0.00    +0.000 C 
BRANCH  25  26
ATOM     26  O   UNL     1      -1.923  11.917  16.519  0.00  0.00    +0.000 OA
ATOM     27  H   UNL     1      -2.703  12.371  16.145  0.00  0.00    +0.000 HD
ENDBRANCH  25  26
ENDBRANCH  23  25
ENDBRANCH   1  23
TORSDOF 4
ENDMDL
MODEL 9
REMARK VINA RESULT:      -6.4      1.729      2.744
REMARK  Name = 
REMARK  4 active torsions:
REMARK  status: ('A' for Active; 'I' for Inactive)
REMARK    1  A    between atoms: C_2  and  O_3
REMARK    2  A    between atoms: C_2  and  C_4
REMARK    3  A    between atoms: C_4  and  N_5
REMARK    4  A    between atoms: C_17  and  C_19
REMARK                            x       y       z     vdW  Elec       q    Type
REMARK                         _______ _______ _______ _____ _____    ______ ____
ROOT
ATOM      1  N   UNL     1      -2.657  11.960  19.371  0.00  0.00    +0.000 N 
ATOM      2  C   UNL     1      -1.404  11.435  19.560  0.00  0.00    +0.000 A 
ATOM      3  C   UNL     1      -1.061  11.562  20.892  0.00  0.00    +0.000 A 
ATOM      4  C   UNL     1      -2.101  12.296  21.519  0.00  0.00    +0.000 A 
ATOM      5  C   UNL     1      -2.271  12.768  22.836  0.00  0.00    +0.000 A 
ATOM      6  C   UNL     1      -3.412  13.492  23.177  0.00  0.00    +0.000 A 
ATOM      7  C   UNL     1      -4.382  13.754  22.217  0.00  0.00    +0.000 A 
ATOM      8  C   UNL     1      -4.241  13.298  20.900  0.00  0.00    +0.000 A 
ATOM      9 CL   UNL     1      -5.472  13.735  19.779  0.00  0.00    +0.000 Cl
ATOM     10  C   UNL     1      -3.093  12.555  20.552  0.00  0.00    +0.000 A 
ATOM     11  C   UNL     1       0.215  11.027  21.481  0.00  0.00    +0.000 C 
ATOM     12  N   UNL     1       0.846  10.127  20.498  0.00  0.00    +0.000 N 
ATOM     13  C   UNL     1       1.271   8.873  20.944  0.00  0.00    +0.000 C 
ATOM     14  O   UNL     1       1.234   8.569  22.138  0.00  0.00    +0.000 OA
ATOM     15  C   UNL     1       0.897  10.672  19.127  0.00  0.00    +0.000 C 
ATOM     16  C   UNL     1      -0.536  10.755  18.545  0.00  0.00    +0.000 C 
ENDROOT
BRANCH  13  17
ATOM     17  C   UNL     1       1.825   7.841  20.011  0.00  0.00    +0.000 A 
ATOM     18  C   UNL     1       1.866   6.511  20.461  0.00  0.00    +0.000 A 
ATOM     19  C   UNL     1       2.379   5.498  19.646  0.00  0.00    +0.000 A 
ATOM     20  C   UNL     1       2.874   5.802  18.381  0.00  0.00    +0.000 A 
ATOM     21  C   UNL     1       2.801   7.107  17.905  0.00  0.00    +0.000 A 
ATOM     22  C   UNL     1       2.235   8.108  18.702  0.00  0.00    +0.000 A 
ENDBRANCH  13  17
BRANCH   1  23
ATOM     23  C   UNL     1      -3.399  11.836  18.121  0.00  0.00    +0.000 C 
BRANCH  23  25
ATOM     24  O   UNL     1      -5.441  10.594  18.282  0.00  0.00    +0.000 OA
ATOM     25  C   UNL     1      -4.245  10.592  18.012  0.00  0.00    +0.000 C 
BRANCH  25  26
ATOM     26  O   UNL     1      -3.638   9.474  17.559  0.00  0.00    +0.000 OA
ATOM     27  H   UNL     1      -4.188   8.886  17.004  0.00  0.00    +0.000 HD
ENDBRANCH  25  26
ENDBRANCH  23  25
ENDBRANCH   1  23
TORSDOF 4
ENDMDL
