MODEL 1
REMARK VINA RESULT:      -8.1      0.000      0.000
REMARK  Name = 
REMARK  4 active torsions:
REMARK  status: ('A' for Active; 'I' for Inactive)
REMARK    1  A    between atoms: C_1  and  N_2
REMARK    2  A    between atoms: N_5  and  C_6
REMARK    3  A    between atoms: C_6  and  C_7
REMARK    4  A    between atoms: C_6  and  C_13
REMARK                            x       y       z     vdW  Elec       q    Type
REMARK                         _______ _______ _______ _____ _____    ______ ____
ROOT
ATOM      1  C   UNL     1       3.061   5.836  18.297  0.00  0.00    +0.000 C 
ENDROOT
BRANCH   1   6
ATOM      2  C   UNL     1       5.655   4.405  14.435  0.00  0.00    +0.000 C 
ATOM      3  N   UNL     1       5.746   4.863  15.816  0.00  0.00    +0.000 NA
ATOM      4  C   UNL     1       5.082   3.933  16.745  0.00  0.00    +0.000 C 
ATOM      5  C   UNL     1       5.110   4.450  18.206  0.00  0.00    +0.000 C 
ATOM      6  N   UNL     1       4.552   5.818  18.406  0.00  0.00    +0.000 NA
ATOM      7  C   UNL     1       5.240   6.695  17.430  0.00  0.00    +0.000 C 
ATOM      8  C   UNL     1       5.188   6.218  15.964  0.00  0.00    +0.000 C 
ENDBRANCH   1   6
BRANCH   1   9
ATOM      9  C   UNL     1       2.438   4.727  19.162  0.00  0.00    +0.000 A 
ATOM     10  C   UNL     1       1.469   3.855  18.633  0.00  0.00    +0.000 A 
ATOM     11  C   UNL     1       0.821   2.928  19.449  0.00  0.00    +0.000 A 
ATOM     12  C   UNL     1       1.133   2.855  20.805  0.00  0.00    +0.000 A 
ATOM     13  C   UNL     1       2.107   3.695  21.342  0.00  0.00    +0.000 A 
ATOM     14  C   UNL     1       2.761   4.621  20.526  0.00  0.00    +0.000 A 
ENDBRANCH   1   9
BRANCH   1  15
ATOM     15  C   UNL     1       2.392   7.185  18.614  0.00  0.00    +0.000 A 
ATOM     16  C   UNL     1       2.011   7.474  19.939  0.00  0.00    +0.000 A 
ATOM     17  C   UNL     1       1.402   8.689  20.265  0.00  0.00    +0.000 A 
ATOM     18  C   UNL     1       1.161   9.637  19.274  0.00  0.00    +0.000 A 
ATOM     19  C   UNL     1       1.547   9.379  17.962  0.00  0.00    +0.000 A 
ATOM     20  C   UNL     1       2.174   8.171  17.637  0.00  0.00    +0.000 A 
ENDBRANCH   1  15
TORSDOF 3
ENDMDL
MODEL 2
REMARK VINA RESULT:      -8.0      0.064      1.079
REMARK  Name = 
REMARK  4 active torsions:
REMARK  status: ('A' for Active; 'I' for Inactive)
REMARK    1  A    between atoms: C_1  and  N_2
REMARK    2  A    between atoms: N_5  and  C_6
REMARK    3  A    between atoms: C_6  and  C_7
REMARK    4  A    between atoms: C_6  and  C_13
REMARK                            x       y       z     vdW  Elec       q    Type
REMARK                         _______ _______ _______ _____ _____    ______ ____
ROOT
ATOM      1  C   UNL     1       3.074   5.849  18.271  0.00  0.00    +0.000 C 
ENDROOT
BRANCH   1   6
ATOM      2  C   UNL     1       5.645   4.410  14.397  0.00  0.00    +0.000 C 
ATOM      3  N   UNL     1       5.744   4.866  15.778  0.00  0.00    +0.000 NA
ATOM      4  C   UNL     1       5.078   3.938  16.708  0.00  0.00    +0.000 C 
ATOM      5  C   UNL     1       5.115   4.452  18.170  0.00  0.00    +0.000 C 
ATOM      6  N   UNL     1       4.565   5.822  18.375  0.00  0.00    +0.000 NA
ATOM      7  C   UNL     1       5.255   6.698  17.398  0.00  0.00    +0.000 C 
ATOM      8  C   UNL     1       5.194   6.223  15.931  0.00  0.00    +0.000 C 
ENDBRANCH   1   6
BRANCH   1   9
ATOM      9  C   UNL     1       2.450   4.721  19.110  0.00  0.00    +0.000 A 
ATOM     10  C   UNL     1       1.498   3.848  18.553  0.00  0.00    +0.000 A 
ATOM     11  C   UNL     1       0.847   2.902  19.344  0.00  0.00    +0.000 A 
ATOM     12  C   UNL     1       1.140   2.811  20.703  0.00  0.00    +0.000 A 
ATOM     13  C   UNL     1       2.096   3.653  21.268  0.00  0.00    +0.000 A 
ATOM     14  C   UNL     1       2.753   4.598  20.477  0.00  0.00    +0.000 A 
ENDBRANCH   1   9
BRANCH   1  15
ATOM     15  C   UNL     1       2.412   7.193  18.626  0.00  0.00    +0.000 A 
ATOM     16  C   UNL     1       2.169   8.134  17.606  0.00  0.00    +0.000 A 
ATOM     17  C   UNL     1       1.569   9.365  17.889  0.00  0.00    +0.000 A 
ATOM     18  C   UNL     1       1.202   9.677  19.196  0.00  0.00    +0.000 A 
ATOM     19  C   UNL     1       1.417   8.755  20.214  0.00  0.00    +0.000 A 
ATOM     20  C   UNL     1       2.000   7.515  19.930  0.00  0.00    +0.000 A 
ENDBRANCH   1  15
TORSDOF 3
ENDMDL
MODEL 3
REMARK VINA RESULT:      -8.0      0.138      1.088
REMARK  Name = 
REMARK  4 active torsions:
REMARK  status: ('A' for Active; 'I' for Inactive)
REMARK    1  A    between atoms: C_1  and  N_2
REMARK    2  A    between atoms: N_5  and  C_6
REMARK    3  A    between atoms: C_6  and  C_7
REMARK    4  A    between atoms: C_6  and  C_13
REMARK                            x       y       z     vdW  Elec       q    Type
REMARK                         _______ _______ _______ _____ _____    ______ ____
ROOT
ATOM      1  C   UNL     1       2.971   5.889  18.365  0.00  0.00    +0.000 C 
ENDROOT
BRANCH   1   6
ATOM      2  C   UNL     1       5.596   4.432  14.533  0.00  0.00    +0.000 C 
ATOM      3  N   UNL     1       5.673   4.865  15.923  0.00  0.00    +0.000 NA
ATOM      4  C   UNL     1       4.958   3.943  16.822  0.00  0.00    +0.000 C 
ATOM      5  C   UNL     1       4.973   4.434  18.292  0.00  0.00    +0.000 C 
ATOM      6  N   UNL     1       4.458   5.817  18.505  0.00  0.00    +0.000 NA
ATOM      7  C   UNL     1       5.197   6.686  17.559  0.00  0.00    +0.000 C 
ATOM      8  C   UNL     1       5.159   6.235  16.083  0.00  0.00    +0.000 C 
ENDBRANCH   1   6
BRANCH   1   9
ATOM      9  C   UNL     1       2.289   4.829  19.246  0.00  0.00    +0.000 A 
ATOM     10  C   UNL     1       2.603   4.715  20.613  0.00  0.00    +0.000 A 
ATOM     11  C   UNL     1       2.073   3.680  21.383  0.00  0.00    +0.000 A 
ATOM     12  C   UNL     1       1.219   2.745  20.802  0.00  0.00    +0.000 A 
ATOM     13  C   UNL     1       0.879   2.855  19.454  0.00  0.00    +0.000 A 
ATOM     14  C   UNL     1       1.405   3.894  18.682  0.00  0.00    +0.000 A 
ENDBRANCH   1   9
BRANCH   1  15
ATOM     15  C   UNL     1       2.349   7.272  18.632  0.00  0.00    +0.000 A 
ATOM     16  C   UNL     1       1.936   7.603  19.937  0.00  0.00    +0.000 A 
ATOM     17  C   UNL     1       1.367   8.848  20.219  0.00  0.00    +0.000 A 
ATOM     18  C   UNL     1       1.201   9.785  19.201  0.00  0.00    +0.000 A 
ATOM     19  C   UNL     1       1.620   9.485  17.909  0.00  0.00    +0.000 A 
ATOM     20  C   UNL     1       2.206   8.245  17.629  0.00  0.00    +0.000 A 
ENDBRANCH   1  15
TORSDOF 3
ENDMDL
MODEL 4
REMARK VINA RESULT:      -8.0      0.182      1.535
REMARK  Name = 
REMARK  4 active torsions:
REMARK  status: ('A' for Active; 'I' for Inactive)
REMARK    1  A    between atoms: C_1  and  N_2
REMARK    2  A    between atoms: N_5  and  C_6
REMARK    3  A    between atoms: C_6  and  C_7
REMARK    4  A    between atoms: C_6  and  C_13
REMARK                            x       y       z     vdW  Elec       q    Type
REMARK                         _______ _______ _______ _____ _____    ______ ____
ROOT
ATOM      1  C   UNL     1       2.950   5.917  18.421  0.00  0.00    +0.000 C 
ENDROOT
BRANCH   1   6
ATOM      2  C   UNL     1       5.571   4.468  14.584  0.00  0.00    +0.000 C 
ATOM      3  N   UNL     1       5.650   4.903  15.973  0.00  0.00    +0.000 NA
ATOM      4  C   UNL     1       4.942   3.979  16.875  0.00  0.00    +0.000 C 
ATOM      5  C   UNL     1       4.959   4.473  18.345  0.00  0.00    +0.000 C 
ATOM      6  N   UNL     1       4.438   5.853  18.556  0.00  0.00    +0.000 NA
ATOM      7  C   UNL     1       5.169   6.725  17.606  0.00  0.00    +0.000 C 
ATOM      8  C   UNL     1       5.129   6.271  16.132  0.00  0.00    +0.000 C 
ENDBRANCH   1   6
BRANCH   1   9
ATOM      9  C   UNL     1       2.278   4.834  19.282  0.00  0.00    +0.000 A 
ATOM     10  C   UNL     1       2.586   4.702  20.648  0.00  0.00    +0.000 A 
ATOM     11  C   UNL     1       2.067   3.648  21.398  0.00  0.00    +0.000 A 
ATOM     12  C   UNL     1       1.228   2.712  20.798  0.00  0.00    +0.000 A 
ATOM     13  C   UNL     1       0.894   2.839  19.451  0.00  0.00    +0.000 A 
ATOM     14  C   UNL     1       1.409   3.896  18.698  0.00  0.00    +0.000 A 
ENDBRANCH   1   9
BRANCH   1  15
ATOM     15  C   UNL     1       2.318   7.289  18.718  0.00  0.00    +0.000 A 
ATOM     16  C   UNL     1       2.109   8.197  17.661  0.00  0.00    +0.000 A 
ATOM     17  C   UNL     1       1.538   9.452  17.892  0.00  0.00    +0.000 A 
ATOM     18  C   UNL     1       1.166   9.822  19.183  0.00  0.00    +0.000 A 
ATOM     19  C   UNL     1       1.347   8.933  20.236  0.00  0.00    +0.000 A 
ATOM     20  C   UNL     1       1.902   7.669  20.004  0.00  0.00    +0.000 A 
ENDBRANCH   1  15
TORSDOF 3
ENDMDL
MODEL 5
REMARK VINA RESULT:      -7.8      1.025      4.346
REMARK  Name = 
REMARK  4 active torsions:
REMARK  status: ('A' for Active; 'I' for Inactive)
REMARK    1  A    between atoms: C_1  and  N_2
REMARK    2  A    between atoms: N_5  and  C_6
REMARK    3  A    between atoms: C_6  and  C_7
REMARK    4  A    between atoms: C_6  and  C_13
REMARK                            x       y       z     vdW  Elec       q    Type
REMARK                         _______ _______ _______ _____ _____    ______ ____
ROOT
ATOM      1  C   UNL     1       3.203   6.095  18.904  0.00  0.00    +0.000 C 
ENDROOT
BRANCH   1   6
ATOM      2  C   UNL     1       7.733   4.645  17.875  0.00  0.00    +0.000 C 
ATOM      3  N   UNL     1       6.442   4.991  17.293  0.00  0.00    +0.000 NA
ATOM      4  C   UNL     1       6.075   6.390  17.572  0.00  0.00    +0.000 C 
ATOM      5  C   UNL     1       4.671   6.746  17.020  0.00  0.00    +0.000 C 
ATOM      6  N   UNL     1       3.566   5.853  17.474  0.00  0.00    +0.000 NA
ATOM      7  C   UNL     1       4.006   4.467  17.189  0.00  0.00    +0.000 C 
ATOM      8  C   UNL     1       5.385   4.082  17.766  0.00  0.00    +0.000 C 
ENDBRANCH   1   6
BRANCH   1   9
ATOM      9  C   UNL     1       2.402   7.400  19.049  0.00  0.00    +0.000 A 
ATOM     10  C   UNL     1       1.867   7.787  20.291  0.00  0.00    +0.000 A 
ATOM     11  C   UNL     1       1.043   8.908  20.396  0.00  0.00    +0.000 A 
ATOM     12  C   UNL     1       0.744   9.661  19.264  0.00  0.00    +0.000 A 
ATOM     13  C   UNL     1       1.282   9.306  18.028  0.00  0.00    +0.000 A 
ATOM     14  C   UNL     1       2.111   8.187  17.921  0.00  0.00    +0.000 A 
ENDBRANCH   1   9
BRANCH   1  15
ATOM     15  C   UNL     1       2.456   4.942  19.600  0.00  0.00    +0.000 A 
ATOM     16  C   UNL     1       2.847   4.547  20.894  0.00  0.00    +0.000 A 
ATOM     17  C   UNL     1       2.193   3.504  21.557  0.00  0.00    +0.000 A 
ATOM     18  C   UNL     1       1.136   2.839  20.939  0.00  0.00    +0.000 A 
ATOM     19  C   UNL     1       0.722   3.227  19.669  0.00  0.00    +0.000 A 
ATOM     20  C   UNL     1       1.364   4.283  19.011  0.00  0.00    +0.000 A 
ENDBRANCH   1  15
TORSDOF 3
ENDMDL
MODEL 6
REMARK VINA RESULT:      -7.8      1.022      4.299
REMARK  Name = 
REMARK  4 active torsions:
REMARK  status: ('A' for Active; 'I' for Inactive)
REMARK    1  A    between atoms: C_1  and  N_2
REMARK    2  A    between atoms: N_5  and  C_6
REMARK    3  A    between atoms: C_6  and  C_7
REMARK    4  A    between atoms: C_6  and  C_13
REMARK                            x       y       z     vdW  Elec       q    Type
REMARK                         _______ _______ _______ _____ _____    ______ ____
ROOT
ATOM      1  C   UNL     1       3.156   6.067  18.887  0.00  0.00    +0.000 C 
ENDROOT
BRANCH   1   6
ATOM      2  C   UNL     1       7.725   4.676  17.945  0.00  0.00    +0.000 C 
ATOM      3  N   UNL     1       6.439   5.001  17.339  0.00  0.00    +0.000 NA
ATOM      4  C   UNL     1       6.047   6.395  17.603  0.00  0.00    +0.000 C 
ATOM      5  C   UNL     1       4.648   6.727  17.025  0.00  0.00    +0.000 C 
ATOM      6  N   UNL     1       3.548   5.822  17.465  0.00  0.00    +0.000 NA
ATOM      7  C   UNL     1       4.013   4.441  17.196  0.00  0.00    +0.000 C 
ATOM      8  C   UNL     1       5.387   4.079  17.799  0.00  0.00    +0.000 C 
ENDBRANCH   1   6
BRANCH   1   9
ATOM      9  C   UNL     1       2.298   7.338  19.004  0.00  0.00    +0.000 A 
ATOM     10  C   UNL     1       2.068   8.160  17.886  0.00  0.00    +0.000 A 
ATOM     11  C   UNL     1       1.390   9.372  18.018  0.00  0.00    +0.000 A 
ATOM     12  C   UNL     1       0.928   9.779  19.267  0.00  0.00    +0.000 A 
ATOM     13  C   UNL     1       1.128   8.967  20.383  0.00  0.00    +0.000 A 
ATOM     14  C   UNL     1       1.802   7.751  20.253  0.00  0.00    +0.000 A 
ENDBRANCH   1   9
BRANCH   1  15
ATOM     15  C   UNL     1       2.451   4.892  19.589  0.00  0.00    +0.000 A 
ATOM     16  C   UNL     1       2.876   4.499  20.873  0.00  0.00    +0.000 A 
ATOM     17  C   UNL     1       2.259   3.437  21.542  0.00  0.00    +0.000 A 
ATOM     18  C   UNL     1       1.207   2.750  20.940  0.00  0.00    +0.000 A 
ATOM     19  C   UNL     1       0.761   3.135  19.680  0.00  0.00    +0.000 A 
ATOM     20  C   UNL     1       1.365   4.210  19.017  0.00  0.00    +0.000 A 
ENDBRANCH   1  15
TORSDOF 3
ENDMDL
MODEL 7
REMARK VINA RESULT:      -7.7      1.031      4.386
REMARK  Name = 
REMARK  4 active torsions:
REMARK  status: ('A' for Active; 'I' for Inactive)
REMARK    1  A    between atoms: C_1  and  N_2
REMARK    2  A    between atoms: N_5  and  C_6
REMARK    3  A    between atoms: C_6  and  C_7
REMARK    4  A    between atoms: C_6  and  C_13
REMARK                            x       y       z     vdW  Elec       q    Type
REMARK                         _______ _______ _______ _____ _____    ______ ____
ROOT
ATOM      1  C   UNL     1       3.171   6.053  18.910  0.00  0.00    +0.000 C 
ENDROOT
BRANCH   1   6
ATOM      2  C   UNL     1       7.727   4.663  17.909  0.00  0.00    +0.000 C 
ATOM      3  N   UNL     1       6.430   4.974  17.321  0.00  0.00    +0.000 NA
ATOM      4  C   UNL     1       6.038   6.371  17.571  0.00  0.00    +0.000 C 
ATOM      5  C   UNL     1       4.627   6.689  17.012  0.00  0.00    +0.000 C 
ATOM      6  N   UNL     1       3.539   5.787  17.486  0.00  0.00    +0.000 NA
ATOM      7  C   UNL     1       4.004   4.404  17.230  0.00  0.00    +0.000 C 
ATOM      8  C   UNL     1       5.389   4.055  17.813  0.00  0.00    +0.000 C 
ENDBRANCH   1   6
BRANCH   1   9
ATOM      9  C   UNL     1       2.307   7.321  19.022  0.00  0.00    +0.000 A 
ATOM     10  C   UNL     1       2.078   8.140  17.902  0.00  0.00    +0.000 A 
ATOM     11  C   UNL     1       1.394   9.349  18.030  0.00  0.00    +0.000 A 
ATOM     12  C   UNL     1       0.925   9.756  19.277  0.00  0.00    +0.000 A 
ATOM     13  C   UNL     1       1.124   8.946  20.394  0.00  0.00    +0.000 A 
ATOM     14  C   UNL     1       1.804   7.733  20.268  0.00  0.00    +0.000 A 
ENDBRANCH   1   9
BRANCH   1  15
ATOM     15  C   UNL     1       2.486   4.886  19.644  0.00  0.00    +0.000 A 
ATOM     16  C   UNL     1       1.396   4.232  19.036  0.00  0.00    +0.000 A 
ATOM     17  C   UNL     1       0.749   3.168  19.672  0.00  0.00    +0.000 A 
ATOM     18  C   UNL     1       1.179   2.738  20.925  0.00  0.00    +0.000 A 
ATOM     19  C   UNL     1       2.266   3.358  21.534  0.00  0.00    +0.000 A 
ATOM     20  C   UNL     1       2.926   4.412  20.891  0.00  0.00    +0.000 A 
ENDBRANCH   1  15
TORSDOF 3
ENDMDL
MODEL 8
REMARK VINA RESULT:      -7.7      1.035      4.436
REMARK  Name = 
REMARK  4 active torsions:
REMARK  status: ('A' for Active; 'I' for Inactive)
REMARK    1  A    between atoms: C_1  and  N_2
REMARK    2  A    between atoms: N_5  and  C_6
REMARK    3  A    between atoms: C_6  and  C_7
REMARK    4  A    between atoms: C_6  and  C_13
REMARK                            x       y       z     vdW  Elec       q    Type
REMARK                         _______ _______ _______ _____ _____    ______ ____
ROOT
ATOM      1  C   UNL     1       3.207   6.115  18.924  0.00  0.00    +0.000 C 
ENDROOT
BRANCH   1   6
ATOM      2  C   UNL     1       7.721   4.647  17.850  0.00  0.00    +0.000 C 
ATOM      3  N   UNL     1       6.423   4.988  17.282  0.00  0.00    +0.000 NA
ATOM      4  C   UNL     1       6.061   6.390  17.549  0.00  0.00    +0.000 C 
ATOM      5  C   UNL     1       4.650   6.741  17.012  0.00  0.00    +0.000 C 
ATOM      6  N   UNL     1       3.550   5.856  17.492  0.00  0.00    +0.000 NA
ATOM      7  C   UNL     1       3.985   4.466  17.218  0.00  0.00    +0.000 C 
ATOM      8  C   UNL     1       5.371   4.086  17.780  0.00  0.00    +0.000 C 
ENDBRANCH   1   6
BRANCH   1   9
ATOM      9  C   UNL     1       2.399   7.417  19.062  0.00  0.00    +0.000 A 
ATOM     10  C   UNL     1       1.853   7.801  20.300  0.00  0.00    +0.000 A 
ATOM     11  C   UNL     1       1.023   8.918  20.399  0.00  0.00    +0.000 A 
ATOM     12  C   UNL     1       0.730   9.671  19.265  0.00  0.00    +0.000 A 
ATOM     13  C   UNL     1       1.281   9.319  18.033  0.00  0.00    +0.000 A 
ATOM     14  C   UNL     1       2.115   8.204  17.932  0.00  0.00    +0.000 A 
ENDBRANCH   1   9
BRANCH   1  15
ATOM     15  C   UNL     1       2.478   4.968  19.647  0.00  0.00    +0.000 A 
ATOM     16  C   UNL     1       1.400   4.324  19.008  0.00  0.00    +0.000 A 
ATOM     17  C   UNL     1       0.714   3.277  19.633  0.00  0.00    +0.000 A 
ATOM     18  C   UNL     1       1.094   2.856  20.906  0.00  0.00    +0.000 A 
ATOM     19  C   UNL     1       2.168   3.467  21.544  0.00  0.00    +0.000 A 
ATOM     20  C   UNL     1       2.867   4.502  20.913  0.00  0.00    +0.000 A 
ENDBRANCH   1  15
TORSDOF 3
ENDMDL
MODEL 9
REMARK VINA RESULT:      -7.4      1.698      4.521
REMARK  Name = 
REMARK  4 active torsions:
REMARK  status: ('A' for Active; 'I' for Inactive)
REMARK    1  A    between atoms: C_1  and  N_2
REMARK    2  A    between atoms: N_5  and  C_6
REMARK    3  A    between atoms: C_6  and  C_7
REMARK    4  A    between atoms: C_6  and  C_13
REMARK                            x       y       z     vdW  Elec       q    Type
REMARK                         _______ _______ _______ _____ _____    ______ ____
ROOT
ATOM      1  C   UNL     1       3.531   5.487  18.752  0.00  0.00    +0.000 C 
ENDROOT
BRANCH   1   6
ATOM      2  C   UNL     1       1.513   2.364  21.893  0.00  0.00    +0.000 C 
ATOM      3  N   UNL     1       1.708   2.658  20.478  0.00  0.00    +0.000 NA
ATOM      4  C   UNL     1       3.133   2.638  20.107  0.00  0.00    +0.000 C 
ATOM      5  C   UNL     1       3.353   3.021  18.622  0.00  0.00    +0.000 C 
ATOM      6  N   UNL     1       2.762   4.326  18.208  0.00  0.00    +0.000 NA
ATOM      7  C   UNL     1       1.342   4.291  18.630  0.00  0.00    +0.000 C 
ATOM      8  C   UNL     1       1.104   3.951  20.116  0.00  0.00    +0.000 C 
ENDBRANCH   1   6
BRANCH   1   9
ATOM      9  C   UNL     1       4.849   5.675  17.982  0.00  0.00    +0.000 A 
ATOM     10  C   UNL     1       4.882   5.608  16.578  0.00  0.00    +0.000 A 
ATOM     11  C   UNL     1       6.094   5.661  15.888  0.00  0.00    +0.000 A 
ATOM     12  C   UNL     1       7.290   5.785  16.591  0.00  0.00    +0.000 A 
ATOM     13  C   UNL     1       7.275   5.875  17.982  0.00  0.00    +0.000 A 
ATOM     14  C   UNL     1       6.063   5.827  18.674  0.00  0.00    +0.000 A 
ENDBRANCH   1   9
BRANCH   1  15
ATOM     15  C   UNL     1       2.762   6.820  18.807  0.00  0.00    +0.000 A 
ATOM     16  C   UNL     1       2.209   7.248  20.030  0.00  0.00    +0.000 A 
ATOM     17  C   UNL     1       1.505   8.452  20.120  0.00  0.00    +0.000 A 
ATOM     18  C   UNL     1       1.341   9.250  18.989  0.00  0.00    +0.000 A 
ATOM     19  C   UNL     1       1.895   8.854  17.777  0.00  0.00    +0.000 A 
ATOM     20  C   UNL     1       2.617   7.658  17.690  0.00  0.00    +0.000 A 
ENDBRANCH   1  15
TORSDOF 3
ENDMDL
