MODEL 1
REMARK VINA RESULT:      -6.6      0.000      0.000
REMARK  Name = 
REMARK  15 active torsions:
REMARK  status: ('A' for Active; 'I' for Inactive)
REMARK    1  A    between atoms: C_1  and  N_2
REMARK    2  A    between atoms: C_3  and  C_5
REMARK    3  A    between atoms: C_5  and  C_6
REMARK    4  A    between atoms: C_5  and  N_15
REMARK    5  A    between atoms: C_6  and  C_7
REMARK    6  A    between atoms: C_10  and  O_11
REMARK    7  A    between atoms: O_11  and  C_12
REMARK    8  A    between atoms: C_16  and  C_18
REMARK    9  A    between atoms: C_18  and  C_19
REMARK   10  A    between atoms: C_18  and  C_23
REMARK   11  A    between atoms: C_19  and  C_20
REMARK   12  A    between atoms: C_20  and  C_21
REMARK   13  A    between atoms: C_20  and  C_22
REMARK   14  A    between atoms: C_23  and  C_24
REMARK   15  A    between atoms: C_23  and  S_25
REMARK                            x       y       z     vdW  Elec       q    Type
REMARK                         _______ _______ _______ _____ _____    ______ ____
ROOT
ATOM      1  C   UNL     1       7.086   5.829  18.428  0.00  0.00    +0.000 C 
ENDROOT
BRANCH   1   4
ATOM      2  C   UNL     1       8.904   9.184  18.517  0.00  0.00    +0.000 C 
ATOM      3  N   UNL     1       8.384   7.875  18.807  0.00  0.00    +0.000 N 
ATOM      4  C   UNL     1       7.531   7.225  17.933  0.00  0.00    +0.000 C 
ATOM      5  O   UNL     1       7.092   7.748  16.913  0.00  0.00    +0.000 OA
ATOM      6  H   UNL     1       8.406   7.533  19.768  0.00  0.00    +0.000 HD
ENDBRANCH   1   4
BRANCH   1   7
ATOM      7  N   UNL     1       5.608   5.769  18.428  0.00  0.00    +0.000 N 
ATOM      8  C   UNL     1       4.988   4.944  19.344  0.00  0.00    +0.000 C 
ATOM      9  O   UNL     1       5.669   4.203  20.058  0.00  0.00    +0.000 OA
ATOM     10  H   UNL     1       5.106   6.588  18.108  0.00  0.00    +0.000 HD
BRANCH   8  11
ATOM     11  C   UNL     1       3.458   5.008  19.432  0.00  0.00    +0.000 C 
BRANCH  11  12
ATOM     12  C   UNL     1       2.834   3.599  19.653  0.00  0.00    +0.000 C 
ATOM     13  C   UNL     1       1.530   3.548  20.458  0.00  0.00    +0.000 C 
BRANCH  12  14
ATOM     14  S   UNL     1       2.603   2.714  18.058  0.00  0.00    +0.000 S 
ATOM     15  H   UNL     1       3.259   1.595  18.405  0.00  0.00    +0.000 HD
ENDBRANCH  12  14
ENDBRANCH  11  12
BRANCH  11  16
ATOM     16  C   UNL     1       2.899   5.734  18.178  0.00  0.00    +0.000 C 
BRANCH  16  17
ATOM     17  C   UNL     1       2.173   7.081  18.425  0.00  0.00    +0.000 C 
ATOM     18  C   UNL     1       2.060   7.455  19.905  0.00  0.00    +0.000 C 
ATOM     19  C   UNL     1       2.885   8.221  17.684  0.00  0.00    +0.000 C 
ENDBRANCH  16  17
ENDBRANCH  11  16
ENDBRANCH   8  11
ENDBRANCH   1   7
BRANCH   1  20
ATOM     20  C   UNL     1       7.715   4.726  17.560  0.00  0.00    +0.000 C 
BRANCH  20  21
ATOM     21  C   UNL     1       6.987   4.508  16.246  0.00  0.00    +0.000 A 
ATOM     22  C   UNL     1       5.775   3.805  16.192  0.00  0.00    +0.000 A 
ATOM     23  C   UNL     1       5.149   3.562  14.967  0.00  0.00    +0.000 A 
ATOM     24  C   UNL     1       5.697   4.045  13.777  0.00  0.00    +0.000 A 
ATOM     25  C   UNL     1       6.891   4.760  13.820  0.00  0.00    +0.000 A 
ATOM     26  C   UNL     1       7.533   4.987  15.047  0.00  0.00    +0.000 A 
BRANCH  24  27
ATOM     27  O   UNL     1       5.004   3.715  12.645  0.00  0.00    +0.000 OA
ATOM     28  C   UNL     1       5.632   2.777  11.776  0.00  0.00    +0.000 C 
ENDBRANCH  24  27
ENDBRANCH  20  21
ENDBRANCH   1  20
TORSDOF 10
ENDMDL
MODEL 2
REMARK VINA RESULT:      -6.5      2.174      3.214
REMARK  Name = 
REMARK  15 active torsions:
REMARK  status: ('A' for Active; 'I' for Inactive)
REMARK    1  A    between atoms: C_1  and  N_2
REMARK    2  A    between atoms: C_3  and  C_5
REMARK    3  A    between atoms: C_5  and  C_6
REMARK    4  A    between atoms: C_5  and  N_15
REMARK    5  A    between atoms: C_6  and  C_7
REMARK    6  A    between atoms: C_10  and  O_11
REMARK    7  A    between atoms: O_11  and  C_12
REMARK    8  A    between atoms: C_16  and  C_18
REMARK    9  A    between atoms: C_18  and  C_19
REMARK   10  A    between atoms: C_18  and  C_23
REMARK   11  A    between atoms: C_19  and  C_20
REMARK   12  A    between atoms: C_20  and  C_21
REMARK   13  A    between atoms: C_20  and  C_22
REMARK   14  A    between atoms: C_23  and  C_24
REMARK   15  A    between atoms: C_23  and  S_25
REMARK                            x       y       z     vdW  Elec       q    Type
REMARK                         _______ _______ _______ _____ _____    ______ ____
ROOT
ATOM      1  C   UNL     1       5.665   5.100  17.254  0.00  0.00    +0.000 C 
ENDROOT
BRANCH   1   4
ATOM      2  C   UNL     1       8.177   5.558  20.091  0.00  0.00    +0.000 C 
ATOM      3  N   UNL     1       7.022   5.599  19.235  0.00  0.00    +0.000 N 
ATOM      4  C   UNL     1       6.995   4.931  18.024  0.00  0.00    +0.000 C 
ATOM      5  O   UNL     1       7.969   4.343  17.561  0.00  0.00    +0.000 OA
ATOM      6  H   UNL     1       6.330   6.337  19.369  0.00  0.00    +0.000 HD
ENDBRANCH   1   4
BRANCH   1   7
ATOM      7  N   UNL     1       4.668   5.727  18.149  0.00  0.00    +0.000 N 
ATOM      8  C   UNL     1       3.395   5.198  18.182  0.00  0.00    +0.000 C 
ATOM      9  O   UNL     1       3.087   4.298  17.395  0.00  0.00    +0.000 OA
ATOM     10  H   UNL     1       5.013   6.191  18.981  0.00  0.00    +0.000 HD
BRANCH   8  11
ATOM     11  C   UNL     1       2.420   5.762  19.223  0.00  0.00    +0.000 C 
BRANCH  11  12
ATOM     12  C   UNL     1       2.460   7.318  19.267  0.00  0.00    +0.000 C 
ATOM     13  C   UNL     1       2.087   8.048  17.971  0.00  0.00    +0.000 C 
BRANCH  12  14
ATOM     14  S   UNL     1       1.443   7.971  20.652  0.00  0.00    +0.000 S 
ATOM     15  H   UNL     1       0.992   9.061  20.012  0.00  0.00    +0.000 HD
ENDBRANCH  12  14
ENDBRANCH  11  12
BRANCH  11  16
ATOM     16  C   UNL     1       2.699   5.103  20.601  0.00  0.00    +0.000 C 
BRANCH  16  17
ATOM     17  C   UNL     1       1.797   3.905  20.991  0.00  0.00    +0.000 C 
ATOM     18  C   UNL     1       0.687   3.616  19.976  0.00  0.00    +0.000 C 
ATOM     19  C   UNL     1       2.638   2.634  21.173  0.00  0.00    +0.000 C 
ENDBRANCH  16  17
ENDBRANCH  11  16
ENDBRANCH   8  11
ENDBRANCH   1   7
BRANCH   1  20
ATOM     20  C   UNL     1       5.888   5.913  15.968  0.00  0.00    +0.000 C 
BRANCH  20  21
ATOM     21  C   UNL     1       5.960   5.053  14.719  0.00  0.00    +0.000 A 
ATOM     22  C   UNL     1       4.880   4.248  14.325  0.00  0.00    +0.000 A 
ATOM     23  C   UNL     1       4.986   3.419  13.205  0.00  0.00    +0.000 A 
ATOM     24  C   UNL     1       6.151   3.401  12.436  0.00  0.00    +0.000 A 
ATOM     25  C   UNL     1       7.222   4.209  12.808  0.00  0.00    +0.000 A 
ATOM     26  C   UNL     1       7.127   5.028  13.944  0.00  0.00    +0.000 A 
BRANCH  24  27
ATOM     27  O   UNL     1       6.137   2.526  11.386  0.00  0.00    +0.000 OA
ATOM     28  C   UNL     1       7.370   1.874  11.097  0.00  0.00    +0.000 C 
ENDBRANCH  24  27
ENDBRANCH  20  21
ENDBRANCH   1  20
TORSDOF 10
ENDMDL
MODEL 3
REMARK VINA RESULT:      -6.4      3.485      5.673
REMARK  Name = 
REMARK  15 active torsions:
REMARK  status: ('A' for Active; 'I' for Inactive)
REMARK    1  A    between atoms: C_1  and  N_2
REMARK    2  A    between atoms: C_3  and  C_5
REMARK    3  A    between atoms: C_5  and  C_6
REMARK    4  A    between atoms: C_5  and  N_15
REMARK    5  A    between atoms: C_6  and  C_7
REMARK    6  A    between atoms: C_10  and  O_11
REMARK    7  A    between atoms: O_11  and  C_12
REMARK    8  A    between atoms: C_16  and  C_18
REMARK    9  A    between atoms: C_18  and  C_19
REMARK   10  A    between atoms: C_18  and  C_23
REMARK   11  A    between atoms: C_19  and  C_20
REMARK   12  A    between atoms: C_20  and  C_21
REMARK   13  A    between atoms: C_20  and  C_22
REMARK   14  A    between atoms: C_23  and  C_24
REMARK   15  A    between atoms: C_23  and  S_25
REMARK                            x       y       z     vdW  Elec       q    Type
REMARK                         _______ _______ _______ _____ _____    ______ ____
ROOT
ATOM      1  C   UNL     1       2.561   6.004  19.122  0.00  0.00    +0.000 C 
ENDROOT
BRANCH   1   4
ATOM      2  C   UNL     1       1.233   2.468  18.571  0.00  0.00    +0.000 C 
ATOM      3  N   UNL     1       1.859   3.756  18.437  0.00  0.00    +0.000 N 
ATOM      4  C   UNL     1       1.833   4.683  19.463  0.00  0.00    +0.000 C 
ATOM      5  O   UNL     1       1.207   4.512  20.506  0.00  0.00    +0.000 OA
ATOM      6  H   UNL     1       2.077   4.107  17.504  0.00  0.00    +0.000 HD
ENDBRANCH   1   4
BRANCH   1   7
ATOM      7  N   UNL     1       1.842   7.127  19.761  0.00  0.00    +0.000 N 
ATOM      8  C   UNL     1       1.642   8.278  19.026  0.00  0.00    +0.000 C 
ATOM      9  O   UNL     1       2.154   8.385  17.908  0.00  0.00    +0.000 OA
ATOM     10  H   UNL     1       1.172   6.902  20.486  0.00  0.00    +0.000 HD
BRANCH   8  11
ATOM     11  C   UNL     1       0.767   9.372  19.648  0.00  0.00    +0.000 C 
BRANCH  11  12
ATOM     12  C   UNL     1       0.564  10.571  18.676  0.00  0.00    +0.000 C 
ATOM     13  C   UNL     1      -0.886  10.978  18.386  0.00  0.00    +0.000 C 
BRANCH  12  14
ATOM     14  S   UNL     1       1.514  12.045  19.229  0.00  0.00    +0.000 S 
ATOM     15  H   UNL     1       1.385  11.827  20.548  0.00  0.00    +0.000 HD
ENDBRANCH  12  14
ENDBRANCH  11  12
BRANCH  11  16
ATOM     16  C   UNL     1       1.363   9.791  21.021  0.00  0.00    +0.000 C 
BRANCH  16  17
ATOM     17  C   UNL     1       0.403   9.740  22.236  0.00  0.00    +0.000 C 
ATOM     18  C   UNL     1      -0.450  11.001  22.399  0.00  0.00    +0.000 C 
ATOM     19  C   UNL     1      -0.531   8.526  22.134  0.00  0.00    +0.000 C 
ENDBRANCH  16  17
ENDBRANCH  11  16
ENDBRANCH   8  11
ENDBRANCH   1   7
BRANCH   1  20
ATOM     20  C   UNL     1       4.035   5.931  19.554  0.00  0.00    +0.000 C 
BRANCH  20  21
ATOM     21  C   UNL     1       4.989   5.689  18.398  0.00  0.00    +0.000 A 
ATOM     22  C   UNL     1       4.629   6.001  17.079  0.00  0.00    +0.000 A 
ATOM     23  C   UNL     1       5.496   5.717  16.021  0.00  0.00    +0.000 A 
ATOM     24  C   UNL     1       6.751   5.151  16.258  0.00  0.00    +0.000 A 
ATOM     25  C   UNL     1       7.125   4.854  17.566  0.00  0.00    +0.000 A 
ATOM     26  C   UNL     1       6.248   5.119  18.628  0.00  0.00    +0.000 A 
BRANCH  24  27
ATOM     27  O   UNL     1       7.491   4.896  15.137  0.00  0.00    +0.000 OA
ATOM     28  C   UNL     1       6.764   4.472  13.988  0.00  0.00    +0.000 C 
ENDBRANCH  24  27
ENDBRANCH  20  21
ENDBRANCH   1  20
TORSDOF 10
ENDMDL
MODEL 4
REMARK VINA RESULT:      -6.4      1.847      2.562
REMARK  Name = 
REMARK  15 active torsions:
REMARK  status: ('A' for Active; 'I' for Inactive)
REMARK    1  A    between atoms: C_1  and  N_2
REMARK    2  A    between atoms: C_3  and  C_5
REMARK    3  A    between atoms: C_5  and  C_6
REMARK    4  A    between atoms: C_5  and  N_15
REMARK    5  A    between atoms: C_6  and  C_7
REMARK    6  A    between atoms: C_10  and  O_11
REMARK    7  A    between atoms: O_11  and  C_12
REMARK    8  A    between atoms: C_16  and  C_18
REMARK    9  A    between atoms: C_18  and  C_19
REMARK   10  A    between atoms: C_18  and  C_23
REMARK   11  A    between atoms: C_19  and  C_20
REMARK   12  A    between atoms: C_20  and  C_21
REMARK   13  A    between atoms: C_20  and  C_22
REMARK   14  A    between atoms: C_23  and  C_24
REMARK   15  A    between atoms: C_23  and  S_25
REMARK                            x       y       z     vdW  Elec       q    Type
REMARK                         _______ _______ _______ _____ _____    ______ ____
ROOT
ATOM      1  C   UNL     1       6.785   5.145  17.068  0.00  0.00    +0.000 C 
ENDROOT
BRANCH   1   4
ATOM      2  C   UNL     1       7.971   8.692  17.832  0.00  0.00    +0.000 C 
ATOM      3  N   UNL     1       7.405   7.512  17.236  0.00  0.00    +0.000 N 
ATOM      4  C   UNL     1       7.447   6.286  17.875  0.00  0.00    +0.000 C 
ATOM      5  O   UNL     1       8.040   6.103  18.934  0.00  0.00    +0.000 OA
ATOM      6  H   UNL     1       7.224   7.501  16.231  0.00  0.00    +0.000 HD
ENDBRANCH   1   4
BRANCH   1   7
ATOM      7  N   UNL     1       5.943   4.340  17.979  0.00  0.00    +0.000 N 
ATOM      8  C   UNL     1       4.803   4.918  18.498  0.00  0.00    +0.000 C 
ATOM      9  O   UNL     1       4.573   6.112  18.284  0.00  0.00    +0.000 OA
ATOM     10  H   UNL     1       5.955   3.333  17.861  0.00  0.00    +0.000 HD
BRANCH   8  11
ATOM     11  C   UNL     1       3.865   4.024  19.317  0.00  0.00    +0.000 C 
BRANCH  11  12
ATOM     12  C   UNL     1       3.049   3.059  18.409  0.00  0.00    +0.000 C 
ATOM     13  C   UNL     1       2.828   3.508  16.959  0.00  0.00    +0.000 C 
BRANCH  12  14
ATOM     14  S   UNL     1       3.766   1.366  18.422  0.00  0.00    +0.000 S 
ATOM     15  H   UNL     1       4.511   1.504  17.314  0.00  0.00    +0.000 HD
ENDBRANCH  12  14
ENDBRANCH  11  12
BRANCH  11  16
ATOM     16  C   UNL     1       2.970   4.911  20.227  0.00  0.00    +0.000 C 
BRANCH  16  17
ATOM     17  C   UNL     1       1.881   4.180  21.050  0.00  0.00    +0.000 C 
ATOM     18  C   UNL     1       0.650   3.786  20.228  0.00  0.00    +0.000 C 
ATOM     19  C   UNL     1       2.457   2.917  21.705  0.00  0.00    +0.000 C 
ENDBRANCH  16  17
ENDBRANCH  11  16
ENDBRANCH   8  11
ENDBRANCH   1   7
BRANCH   1  20
ATOM     20  C   UNL     1       5.987   5.716  15.885  0.00  0.00    +0.000 C 
BRANCH  20  21
ATOM     21  C   UNL     1       6.227   4.973  14.584  0.00  0.00    +0.000 A 
ATOM     22  C   UNL     1       5.313   4.020  14.109  0.00  0.00    +0.000 A 
ATOM     23  C   UNL     1       5.578   3.303  12.940  0.00  0.00    +0.000 A 
ATOM     24  C   UNL     1       6.738   3.546  12.201  0.00  0.00    +0.000 A 
ATOM     25  C   UNL     1       7.643   4.502  12.653  0.00  0.00    +0.000 A 
ATOM     26  C   UNL     1       7.390   5.209  13.838  0.00  0.00    +0.000 A 
BRANCH  24  27
ATOM     27  O   UNL     1       6.894   2.758  11.094  0.00  0.00    +0.000 OA
ATOM     28  C   UNL     1       6.399   1.427  11.197  0.00  0.00    +0.000 C 
ENDBRANCH  24  27
ENDBRANCH  20  21
ENDBRANCH   1  20
TORSDOF 10
ENDMDL
MODEL 5
REMARK VINA RESULT:      -6.3      1.698      2.846
REMARK  Name = 
REMARK  15 active torsions:
REMARK  status: ('A' for Active; 'I' for Inactive)
REMARK    1  A    between atoms: C_1  and  N_2
REMARK    2  A    between atoms: C_3  and  C_5
REMARK    3  A    between atoms: C_5  and  C_6
REMARK    4  A    between atoms: C_5  and  N_15
REMARK    5  A    between atoms: C_6  and  C_7
REMARK    6  A    between atoms: C_10  and  O_11
REMARK    7  A    between atoms: O_11  and  C_12
REMARK    8  A    between atoms: C_16  and  C_18
REMARK    9  A    between atoms: C_18  and  C_19
REMARK   10  A    between atoms: C_18  and  C_23
REMARK   11  A    between atoms: C_19  and  C_20
REMARK   12  A    between atoms: C_20  and  C_21
REMARK   13  A    between atoms: C_20  and  C_22
REMARK   14  A    between atoms: C_23  and  C_24
REMARK   15  A    between atoms: C_23  and  S_25
REMARK                            x       y       z     vdW  Elec       q    Type
REMARK                         _______ _______ _______ _____ _____    ______ ____
ROOT
ATOM      1  C   UNL     1       6.898   5.758  16.843  0.00  0.00    +0.000 C 
ENDROOT
BRANCH   1   4
ATOM      2  C   UNL     1       8.336   9.026  18.194  0.00  0.00    +0.000 C 
ATOM      3  N   UNL     1       7.731   7.999  17.388  0.00  0.00    +0.000 N 
ATOM      4  C   UNL     1       7.568   6.710  17.861  0.00  0.00    +0.000 C 
ATOM      5  O   UNL     1       8.003   6.334  18.946  0.00  0.00    +0.000 OA
ATOM      6  H   UNL     1       7.676   8.129  16.377  0.00  0.00    +0.000 HD
ENDBRANCH   1   4
BRANCH   1   7
ATOM      7  N   UNL     1       5.432   5.942  16.907  0.00  0.00    +0.000 N 
ATOM      8  C   UNL     1       4.726   5.242  17.864  0.00  0.00    +0.000 C 
ATOM      9  O   UNL     1       5.308   4.406  18.562  0.00  0.00    +0.000 OA
ATOM     10  H   UNL     1       5.057   6.829  16.593  0.00  0.00    +0.000 HD
BRANCH   8  11
ATOM     11  C   UNL     1       3.233   5.557  18.014  0.00  0.00    +0.000 C 
BRANCH  11  12
ATOM     12  C   UNL     1       3.000   6.981  18.598  0.00  0.00    +0.000 C 
ATOM     13  C   UNL     1       2.394   8.019  17.646  0.00  0.00    +0.000 C 
BRANCH  12  14
ATOM     14  S   UNL     1       2.005   6.913  20.143  0.00  0.00    +0.000 S 
ATOM     15  H   UNL     1       2.589   7.959  20.750  0.00  0.00    +0.000 HD
ENDBRANCH  12  14
ENDBRANCH  11  12
BRANCH  11  16
ATOM     16  C   UNL     1       2.550   4.435  18.845  0.00  0.00    +0.000 C 
BRANCH  16  17
ATOM     17  C   UNL     1       1.832   3.321  18.044  0.00  0.00    +0.000 C 
ATOM     18  C   UNL     1       2.756   2.174  17.623  0.00  0.00    +0.000 C 
ATOM     19  C   UNL     1       0.668   2.738  18.857  0.00  0.00    +0.000 C 
ENDBRANCH  16  17
ENDBRANCH  11  16
ENDBRANCH   8  11
ENDBRANCH   1   7
BRANCH   1  20
ATOM     20  C   UNL     1       7.457   6.001  15.432  0.00  0.00    +0.000 C 
BRANCH  20  21
ATOM     21  C   UNL     1       6.831   5.108  14.376  0.00  0.00    +0.000 A 
ATOM     22  C   UNL     1       5.605   4.463  14.600  0.00  0.00    +0.000 A 
ATOM     23  C   UNL     1       5.073   3.598  13.640  0.00  0.00    +0.000 A 
ATOM     24  C   UNL     1       5.730   3.386  12.427  0.00  0.00    +0.000 A 
ATOM     25  C   UNL     1       6.938   4.035  12.186  0.00  0.00    +0.000 A 
ATOM     26  C   UNL     1       7.486   4.888  13.156  0.00  0.00    +0.000 A 
BRANCH  24  27
ATOM     27  O   UNL     1       5.121   2.496  11.587  0.00  0.00    +0.000 OA
ATOM     28  C   UNL     1       3.893   2.922  11.005  0.00  0.00    +0.000 C 
ENDBRANCH  24  27
ENDBRANCH  20  21
ENDBRANCH   1  20
TORSDOF 10
ENDMDL
MODEL 6
REMARK VINA RESULT:      -6.3      1.638      2.133
REMARK  Name = 
REMARK  15 active torsions:
REMARK  status: ('A' for Active; 'I' for Inactive)
REMARK    1  A    between atoms: C_1  and  N_2
REMARK    2  A    between atoms: C_3  and  C_5
REMARK    3  A    between atoms: C_5  and  C_6
REMARK    4  A    between atoms: C_5  and  N_15
REMARK    5  A    between atoms: C_6  and  C_7
REMARK    6  A    between atoms: C_10  and  O_11
REMARK    7  A    between atoms: O_11  and  C_12
REMARK    8  A    between atoms: C_16  and  C_18
REMARK    9  A    between atoms: C_18  and  C_19
REMARK   10  A    between atoms: C_18  and  C_23
REMARK   11  A    between atoms: C_19  and  C_20
REMARK   12  A    between atoms: C_20  and  C_21
REMARK   13  A    between atoms: C_20  and  C_22
REMARK   14  A    between atoms: C_23  and  C_24
REMARK   15  A    between atoms: C_23  and  S_25
REMARK                            x       y       z     vdW  Elec       q    Type
REMARK                         _______ _______ _______ _____ _____    ______ ____
ROOT
ATOM      1  C   UNL     1       5.611   5.071  16.862  0.00  0.00    +0.000 C 
ENDROOT
BRANCH   1   4
ATOM      2  C   UNL     1       8.154   5.610  19.657  0.00  0.00    +0.000 C 
ATOM      3  N   UNL     1       7.028   5.205  18.859  0.00  0.00    +0.000 N 
ATOM      4  C   UNL     1       6.887   5.615  17.546  0.00  0.00    +0.000 C 
ATOM      5  O   UNL     1       7.649   6.413  17.007  0.00  0.00    +0.000 OA
ATOM      6  H   UNL     1       6.191   4.853  19.324  0.00  0.00    +0.000 HD
ENDBRANCH   1   4
BRANCH   1   7
ATOM      7  N   UNL     1       4.466   5.235  17.783  0.00  0.00    +0.000 N 
ATOM      8  C   UNL     1       4.150   4.190  18.627  0.00  0.00    +0.000 C 
ATOM      9  O   UNL     1       4.750   3.116  18.520  0.00  0.00    +0.000 OA
ATOM     10  H   UNL     1       4.237   6.175  18.084  0.00  0.00    +0.000 HD
BRANCH   8  11
ATOM     11  C   UNL     1       3.059   4.431  19.677  0.00  0.00    +0.000 C 
BRANCH  11  12
ATOM     12  C   UNL     1       2.343   3.109  20.079  0.00  0.00    +0.000 C 
ATOM     13  C   UNL     1       1.801   3.035  21.512  0.00  0.00    +0.000 C 
BRANCH  12  14
ATOM     14  S   UNL     1       1.000   2.691  18.895  0.00  0.00    +0.000 S 
ATOM     15  H   UNL     1      -0.005   3.231  19.603  0.00  0.00    +0.000 HD
ENDBRANCH  12  14
ENDBRANCH  11  12
BRANCH  11  16
ATOM     16  C   UNL     1       2.082   5.525  19.163  0.00  0.00    +0.000 C 
BRANCH  16  17
ATOM     17  C   UNL     1       2.359   6.976  19.630  0.00  0.00    +0.000 C 
ATOM     18  C   UNL     1       2.215   8.017  18.517  0.00  0.00    +0.000 C 
ATOM     19  C   UNL     1       1.422   7.359  20.784  0.00  0.00    +0.000 C 
ENDBRANCH  16  17
ENDBRANCH  11  16
ENDBRANCH   8  11
ENDBRANCH   1   7
BRANCH   1  20
ATOM     20  C   UNL     1       5.382   5.774  15.514  0.00  0.00    +0.000 C 
BRANCH  20  21
ATOM     21  C   UNL     1       5.865   4.965  14.324  0.00  0.00    +0.000 A 
ATOM     22  C   UNL     1       5.053   3.988  13.729  0.00  0.00    +0.000 A 
ATOM     23  C   UNL     1       5.536   3.212  12.672  0.00  0.00    +0.000 A 
ATOM     24  C   UNL     1       6.820   3.416  12.164  0.00  0.00    +0.000 A 
ATOM     25  C   UNL     1       7.628   4.395  12.736  0.00  0.00    +0.000 A 
ATOM     26  C   UNL     1       7.154   5.163  13.811  0.00  0.00    +0.000 A 
BRANCH  24  27
ATOM     27  O   UNL     1       7.182   2.573  11.151  0.00  0.00    +0.000 OA
ATOM     28  C   UNL     1       6.565   1.289  11.152  0.00  0.00    +0.000 C 
ENDBRANCH  24  27
ENDBRANCH  20  21
ENDBRANCH   1  20
TORSDOF 10
ENDMDL
MODEL 7
REMARK VINA RESULT:      -6.3      3.299      7.924
REMARK  Name = 
REMARK  15 active torsions:
REMARK  status: ('A' for Active; 'I' for Inactive)
REMARK    1  A    between atoms: C_1  and  N_2
REMARK    2  A    between atoms: C_3  and  C_5
REMARK    3  A    between atoms: C_5  and  C_6
REMARK    4  A    between atoms: C_5  and  N_15
REMARK    5  A    between atoms: C_6  and  C_7
REMARK    6  A    between atoms: C_10  and  O_11
REMARK    7  A    between atoms: O_11  and  C_12
REMARK    8  A    between atoms: C_16  and  C_18
REMARK    9  A    between atoms: C_18  and  C_19
REMARK   10  A    between atoms: C_18  and  C_23
REMARK   11  A    between atoms: C_19  and  C_20
REMARK   12  A    between atoms: C_20  and  C_21
REMARK   13  A    between atoms: C_20  and  C_22
REMARK   14  A    between atoms: C_23  and  C_24
REMARK   15  A    between atoms: C_23  and  S_25
REMARK                            x       y       z     vdW  Elec       q    Type
REMARK                         _______ _______ _______ _____ _____    ______ ____
ROOT
ATOM      1  C   UNL     1       2.861   6.874  18.691  0.00  0.00    +0.000 C 
ENDROOT
BRANCH   1   4
ATOM      2  C   UNL     1       1.096   3.810  20.129  0.00  0.00    +0.000 C 
ATOM      3  N   UNL     1       1.848   5.021  19.938  0.00  0.00    +0.000 N 
ATOM      4  C   UNL     1       2.023   5.574  18.683  0.00  0.00    +0.000 C 
ATOM      5  O   UNL     1       1.634   5.032  17.652  0.00  0.00    +0.000 OA
ATOM      6  H   UNL     1       2.491   5.327  20.670  0.00  0.00    +0.000 HD
ENDBRANCH   1   4
BRANCH   1   7
ATOM      7  N   UNL     1       4.037   6.692  17.814  0.00  0.00    +0.000 N 
ATOM      8  C   UNL     1       5.041   5.844  18.234  0.00  0.00    +0.000 C 
ATOM      9  O   UNL     1       4.990   5.349  19.363  0.00  0.00    +0.000 OA
ATOM     10  H   UNL     1       3.901   6.812  16.817  0.00  0.00    +0.000 HD
BRANCH   8  11
ATOM     11  C   UNL     1       6.179   5.551  17.248  0.00  0.00    +0.000 C 
BRANCH  11  12
ATOM     12  C   UNL     1       7.503   6.254  17.670  0.00  0.00    +0.000 C 
ATOM     13  C   UNL     1       7.524   7.784  17.572  0.00  0.00    +0.000 C 
BRANCH  12  14
ATOM     14  S   UNL     1       8.022   5.741  19.357  0.00  0.00    +0.000 S 
ATOM     15  H   UNL     1       9.136   6.488  19.410  0.00  0.00    +0.000 HD
ENDBRANCH  12  14
ENDBRANCH  11  12
BRANCH  11  16
ATOM     16  C   UNL     1       5.723   5.917  15.809  0.00  0.00    +0.000 C 
BRANCH  16  17
ATOM     17  C   UNL     1       5.828   4.796  14.744  0.00  0.00    +0.000 C 
ATOM     18  C   UNL     1       7.087   4.890  13.877  0.00  0.00    +0.000 C 
ATOM     19  C   UNL     1       5.794   3.414  15.411  0.00  0.00    +0.000 C 
ENDBRANCH  16  17
ENDBRANCH  11  16
ENDBRANCH   8  11
ENDBRANCH   1   7
BRANCH   1  20
ATOM     20  C   UNL     1       1.996   8.073  18.268  0.00  0.00    +0.000 C 
BRANCH  20  21
ATOM     21  C   UNL     1       1.290   8.744  19.432  0.00  0.00    +0.000 A 
ATOM     22  C   UNL     1       1.476   8.302  20.750  0.00  0.00    +0.000 A 
ATOM     23  C   UNL     1       0.773   8.894  21.802  0.00  0.00    +0.000 A 
ATOM     24  C   UNL     1      -0.100   9.959  21.570  0.00  0.00    +0.000 A 
ATOM     25  C   UNL     1      -0.278  10.418  20.267  0.00  0.00    +0.000 A 
ATOM     26  C   UNL     1       0.411   9.812  19.205  0.00  0.00    +0.000 A 
BRANCH  24  27
ATOM     27  O   UNL     1      -0.748  10.429  22.678  0.00  0.00    +0.000 OA
ATOM     28  C   UNL     1      -0.925  11.841  22.748  0.00  0.00    +0.000 C 
ENDBRANCH  24  27
ENDBRANCH  20  21
ENDBRANCH   1  20
TORSDOF 10
ENDMDL
MODEL 8
REMARK VINA RESULT:      -6.2      1.748      2.435
REMARK  Name = 
REMARK  15 active torsions:
REMARK  status: ('A' for Active; 'I' for Inactive)
REMARK    1  A    between atoms: C_1  and  N_2
REMARK    2  A    between atoms: C_3  and  C_5
REMARK    3  A    between atoms: C_5  and  C_6
REMARK    4  A    between atoms: C_5  and  N_15
REMARK    5  A    between atoms: C_6  and  C_7
REMARK    6  A    between atoms: C_10  and  O_11
REMARK    7  A    between atoms: O_11  and  C_12
REMARK    8  A    between atoms: C_16  and  C_18
REMARK    9  A    between atoms: C_18  and  C_19
REMARK   10  A    between atoms: C_18  and  C_23
REMARK   11  A    between atoms: C_19  and  C_20
REMARK   12  A    between atoms: C_20  and  C_21
REMARK   13  A    between atoms: C_20  and  C_22
REMARK   14  A    between atoms: C_23  and  C_24
REMARK   15  A    between atoms: C_23  and  S_25
REMARK                            x       y       z     vdW  Elec       q    Type
REMARK                         _______ _______ _______ _____ _____    ______ ____
ROOT
ATOM      1  C   UNL     1       7.012   5.507  17.078  0.00  0.00    +0.000 C 
ENDROOT
BRANCH   1   4
ATOM      2  C   UNL     1       8.065   9.090  17.870  0.00  0.00    +0.000 C 
ATOM      3  N   UNL     1       7.543   7.894  17.264  0.00  0.00    +0.000 N 
ATOM      4  C   UNL     1       7.632   6.666  17.893  0.00  0.00    +0.000 C 
ATOM      5  O   UNL     1       8.234   6.497  18.950  0.00  0.00    +0.000 OA
ATOM      6  H   UNL     1       7.361   7.886  16.260  0.00  0.00    +0.000 HD
ENDBRANCH   1   4
BRANCH   1   7
ATOM      7  N   UNL     1       6.146   4.705  17.968  0.00  0.00    +0.000 N 
ATOM      8  C   UNL     1       4.933   5.237  18.354  0.00  0.00    +0.000 C 
ATOM      9  O   UNL     1       4.650   6.398  18.044  0.00  0.00    +0.000 OA
ATOM     10  H   UNL     1       6.229   3.696  17.918  0.00  0.00    +0.000 HD
BRANCH   8  11
ATOM     11  C   UNL     1       3.984   4.334  19.151  0.00  0.00    +0.000 C 
BRANCH  11  12
ATOM     12  C   UNL     1       4.455   2.850  19.140  0.00  0.00    +0.000 C 
ATOM     13  C   UNL     1       4.465   2.127  20.492  0.00  0.00    +0.000 C 
BRANCH  12  14
ATOM     14  S   UNL     1       3.502   1.857  17.922  0.00  0.00    +0.000 S 
ATOM     15  H   UNL     1       2.525   2.756  17.719  0.00  0.00    +0.000 HD
ENDBRANCH  12  14
ENDBRANCH  11  12
BRANCH  11  16
ATOM     16  C   UNL     1       2.534   4.519  18.627  0.00  0.00    +0.000 C 
BRANCH  16  17
ATOM     17  C   UNL     1       1.407   4.514  19.690  0.00  0.00    +0.000 C 
ATOM     18  C   UNL     1       0.694   3.165  19.822  0.00  0.00    +0.000 C 
ATOM     19  C   UNL     1       1.963   4.910  21.065  0.00  0.00    +0.000 C 
ENDBRANCH  16  17
ENDBRANCH  11  16
ENDBRANCH   8  11
ENDBRANCH   1   7
BRANCH   1  20
ATOM     20  C   UNL     1       6.251   6.055  15.860  0.00  0.00    +0.000 C 
BRANCH  20  21
ATOM     21  C   UNL     1       6.186   5.074  14.702  0.00  0.00    +0.000 A 
ATOM     22  C   UNL     1       7.268   4.908  13.825  0.00  0.00    +0.000 A 
ATOM     23  C   UNL     1       7.168   4.045  12.732  0.00  0.00    +0.000 A 
ATOM     24  C   UNL     1       6.006   3.304  12.510  0.00  0.00    +0.000 A 
ATOM     25  C   UNL     1       4.932   3.447  13.385  0.00  0.00    +0.000 A 
ATOM     26  C   UNL     1       5.021   4.329  14.472  0.00  0.00    +0.000 A 
BRANCH  24  27
ATOM     27  O   UNL     1       6.025   2.519  11.390  0.00  0.00    +0.000 OA
ATOM     28  C   UNL     1       7.264   1.886  11.089  0.00  0.00    +0.000 C 
ENDBRANCH  24  27
ENDBRANCH  20  21
ENDBRANCH   1  20
TORSDOF 10
ENDMDL
MODEL 9
REMARK VINA RESULT:      -6.2      3.107      5.151
REMARK  Name = 
REMARK  15 active torsions:
REMARK  status: ('A' for Active; 'I' for Inactive)
REMARK    1  A    between atoms: C_1  and  N_2
REMARK    2  A    between atoms: C_3  and  C_5
REMARK    3  A    between atoms: C_5  and  C_6
REMARK    4  A    between atoms: C_5  and  N_15
REMARK    5  A    between atoms: C_6  and  C_7
REMARK    6  A    between atoms: C_10  and  O_11
REMARK    7  A    between atoms: O_11  and  C_12
REMARK    8  A    between atoms: C_16  and  C_18
REMARK    9  A    between atoms: C_18  and  C_19
REMARK   10  A    between atoms: C_18  and  C_23
REMARK   11  A    between atoms: C_19  and  C_20
REMARK   12  A    between atoms: C_20  and  C_21
REMARK   13  A    between atoms: C_20  and  C_22
REMARK   14  A    between atoms: C_23  and  C_24
REMARK   15  A    between atoms: C_23  and  S_25
REMARK                            x       y       z     vdW  Elec       q    Type
REMARK                         _______ _______ _______ _____ _____    ______ ____
ROOT
ATOM      1  C   UNL     1       2.961   5.353  19.300  0.00  0.00    +0.000 C 
ENDROOT
BRANCH   1   4
ATOM      2  C   UNL     1       1.494   2.709  21.630  0.00  0.00    +0.000 C 
ATOM      3  N   UNL     1       2.272   3.763  21.035  0.00  0.00    +0.000 N 
ATOM      4  C   UNL     1       2.015   4.218  19.754  0.00  0.00    +0.000 C 
ATOM      5  O   UNL     1       1.182   3.701  19.015  0.00  0.00    +0.000 OA
ATOM      6  H   UNL     1       3.186   3.988  21.429  0.00  0.00    +0.000 HD
ENDBRANCH   1   4
BRANCH   1   7
ATOM      7  N   UNL     1       2.601   6.594  20.019  0.00  0.00    +0.000 N 
ATOM      8  C   UNL     1       2.188   7.683  19.280  0.00  0.00    +0.000 C 
ATOM      9  O   UNL     1       2.232   7.635  18.047  0.00  0.00    +0.000 OA
ATOM     10  H   UNL     1       2.253   6.502  20.967  0.00  0.00    +0.000 HD
BRANCH   8  11
ATOM     11  C   UNL     1       1.676   8.908  20.047  0.00  0.00    +0.000 C 
BRANCH  11  12
ATOM     12  C   UNL     1       1.166   8.527  21.467  0.00  0.00    +0.000 C 
ATOM     13  C   UNL     1       1.661   9.400  22.627  0.00  0.00    +0.000 C 
BRANCH  12  14
ATOM     14  S   UNL     1      -0.669   8.432  21.513  0.00  0.00    +0.000 S 
ATOM     15  H   UNL     1      -0.748   7.344  22.296  0.00  0.00    +0.000 HD
ENDBRANCH  12  14
ENDBRANCH  11  12
BRANCH  11  16
ATOM     16  C   UNL     1       0.609   9.644  19.191  0.00  0.00    +0.000 C 
BRANCH  16  17
ATOM     17  C   UNL     1       0.575  11.189  19.307  0.00  0.00    +0.000 C 
ATOM     18  C   UNL     1       1.752  11.883  18.615  0.00  0.00    +0.000 C 
ATOM     19  C   UNL     1      -0.732  11.744  18.723  0.00  0.00    +0.000 C 
ENDBRANCH  16  17
ENDBRANCH  11  16
ENDBRANCH   8  11
ENDBRANCH   1   7
BRANCH   1  20
ATOM     20  C   UNL     1       4.428   4.952  19.524  0.00  0.00    +0.000 C 
BRANCH  20  21
ATOM     21  C   UNL     1       5.271   5.027  18.264  0.00  0.00    +0.000 A 
ATOM     22  C   UNL     1       6.444   5.795  18.216  0.00  0.00    +0.000 A 
ATOM     23  C   UNL     1       7.175   5.900  17.030  0.00  0.00    +0.000 A 
ATOM     24  C   UNL     1       6.776   5.215  15.881  0.00  0.00    +0.000 A 
ATOM     25  C   UNL     1       5.623   4.435  15.923  0.00  0.00    +0.000 A 
ATOM     26  C   UNL     1       4.874   4.344  17.106  0.00  0.00    +0.000 A 
BRANCH  24  27
ATOM     27  O   UNL     1       7.559   5.424  14.780  0.00  0.00    +0.000 OA
ATOM     28  C   UNL     1       7.145   4.773  13.583  0.00  0.00    +0.000 C 
ENDBRANCH  24  27
ENDBRANCH  20  21
ENDBRANCH   1  20
TORSDOF 10
ENDMDL
