MODEL 1
REMARK VINA RESULT:      -8.9      0.000      0.000
REMARK  Name = 
REMARK  5 active torsions:
REMARK  status: ('A' for Active; 'I' for Inactive)
REMARK    1  A    between atoms: C_1  and  O_2
REMARK    2  A    between atoms: O_2  and  C_3
REMARK    3  A    between atoms: C_5  and  N_6
REMARK    4  A    between atoms: C_15  and  N_16
REMARK    5  A    between atoms: C_22  and  C_23
REMARK                            x       y       z     vdW  Elec       q    Type
REMARK                         _______ _______ _______ _____ _____    ______ ____
ROOT
ATOM      1  N   UNL     1       1.224   8.273  20.069  0.00  0.00    +0.000 N 
ATOM      2  C   UNL     1       0.844   9.596  19.800  0.00  0.00    +0.000 A 
ATOM      3  N   UNL     1       1.315  10.203  18.697  0.00  0.00    +0.000 NA
ATOM      4  C   UNL     1       1.006  11.491  18.480  0.00  0.00    +0.000 A 
ATOM      5  C   UNL     1       0.214  12.224  19.319  0.00  0.00    +0.000 A 
ATOM      6 CL   UNL     1      -0.102  13.867  18.930  0.00  0.00    +0.000 Cl
ATOM      7  C   UNL     1      -0.269  11.531  20.420  0.00  0.00    +0.000 A 
ATOM      8  N   UNL     1       0.049  10.231  20.677  0.00  0.00    +0.000 NA
ATOM      9  H   UNL     1       1.190   8.070  21.059  0.00  0.00    +0.000 HD
ENDROOT
BRANCH   7  10
ATOM     10  C   UNL     1      -1.141  12.143  21.424  0.00  0.00    +0.000 A 
ATOM     11  C   UNL     1      -0.868  12.505  22.734  0.00  0.00    +0.000 A 
ATOM     12  N   UNL     1      -1.939  13.092  23.349  0.00  0.00    +0.000 NA
ATOM     13  C   UNL     1      -2.889  13.093  22.442  0.00  0.00    +0.000 A 
ATOM     14  C   UNL     1      -4.225  13.577  22.513  0.00  0.00    +0.000 A 
ATOM     15  C   UNL     1      -5.033  13.479  21.441  0.00  0.00    +0.000 A 
ATOM     16  C   UNL     1      -4.566  12.890  20.198  0.00  0.00    +0.000 A 
ATOM     17  C   UNL     1      -3.304  12.433  20.122  0.00  0.00    +0.000 A 
ATOM     18  N   UNL     1      -2.465  12.523  21.240  0.00  0.00    +0.000 N 
ENDBRANCH   7  10
BRANCH   1  24
ATOM     19  C   UNL     1       2.504   6.188  19.722  0.00  0.00    +0.000 A 
ATOM     20  C   UNL     1       3.551   5.523  19.054  0.00  0.00    +0.000 A 
ATOM     21  C   UNL     1       4.224   6.103  17.973  0.00  0.00    +0.000 A 
ATOM     22  C   UNL     1       3.764   7.341  17.520  0.00  0.00    +0.000 A 
ATOM     23  C   UNL     1       2.738   8.010  18.173  0.00  0.00    +0.000 A 
ATOM     24  C   UNL     1       2.136   7.490  19.325  0.00  0.00    +0.000 A 
BRANCH  21  25
ATOM     25  N   UNL     1       5.270   5.499  17.302  0.00  0.00    +0.000 N 
ATOM     26  C   UNL     1       5.146   5.051  15.918  0.00  0.00    +0.000 C 
ATOM     27  C   UNL     1       6.526   5.255  15.277  0.00  0.00    +0.000 C 
ATOM     28  N   UNL     1       7.576   4.573  16.012  0.00  0.00    +0.000 N 
ATOM     29  C   UNL     1       7.557   4.459  17.383  0.00  0.00    +0.000 C 
ATOM     30  O   UNL     1       8.577   4.098  17.969  0.00  0.00    +0.000 OA
ATOM     31  C   UNL     1       6.224   4.704  18.116  0.00  0.00    +0.000 C 
ATOM     32  H   UNL     1       8.502   4.499  15.609  0.00  0.00    +0.000 HD
ENDBRANCH  21  25
BRANCH  19  34
ATOM     33  C   UNL     1       2.183   4.296  21.111  0.00  0.00    +0.000 C 
ATOM     34  O   UNL     1       1.831   5.644  20.794  0.00  0.00    +0.000 OA
ENDBRANCH  19  34
ENDBRANCH   1  24
TORSDOF 4
ENDMDL
MODEL 2
REMARK VINA RESULT:      -8.8      0.875      1.216
REMARK  Name = 
REMARK  5 active torsions:
REMARK  status: ('A' for Active; 'I' for Inactive)
REMARK    1  A    between atoms: C_1  and  O_2
REMARK    2  A    between atoms: O_2  and  C_3
REMARK    3  A    between atoms: C_5  and  N_6
REMARK    4  A    between atoms: C_15  and  N_16
REMARK    5  A    between atoms: C_22  and  C_23
REMARK                            x       y       z     vdW  Elec       q    Type
REMARK                         _______ _______ _______ _____ _____    ______ ____
ROOT
ATOM      1  N   UNL     1       1.114   8.207  19.979  0.00  0.00    +0.000 N 
ATOM      2  C   UNL     1       0.818   9.572  19.842  0.00  0.00    +0.000 A 
ATOM      3  N   UNL     1       1.478  10.296  18.921  0.00  0.00    +0.000 NA
ATOM      4  C   UNL     1       1.244  11.615  18.841  0.00  0.00    +0.000 A 
ATOM      5  C   UNL     1       0.348  12.268  19.640  0.00  0.00    +0.000 A 
ATOM      6 CL   UNL     1       0.144  13.962  19.439  0.00  0.00    +0.000 Cl
ATOM      7  C   UNL     1      -0.326  11.460  20.544  0.00  0.00    +0.000 A 
ATOM      8  N   UNL     1      -0.090  10.122  20.664  0.00  0.00    +0.000 NA
ATOM      9  H   UNL     1       0.915   7.876  20.914  0.00  0.00    +0.000 HD
ENDROOT
BRANCH   7  10
ATOM     10  C   UNL     1      -1.331  11.975  21.476  0.00  0.00    +0.000 A 
ATOM     11  C   UNL     1      -1.236  12.223  22.836  0.00  0.00    +0.000 A 
ATOM     12  N   UNL     1      -2.388  12.745  23.354  0.00  0.00    +0.000 NA
ATOM     13  C   UNL     1      -3.213  12.819  22.335  0.00  0.00    +0.000 A 
ATOM     14  C   UNL     1      -4.556  13.285  22.273  0.00  0.00    +0.000 A 
ATOM     15  C   UNL     1      -5.217  13.275  21.101  0.00  0.00    +0.000 A 
ATOM     16  C   UNL     1      -4.583  12.801  19.883  0.00  0.00    +0.000 A 
ATOM     17  C   UNL     1      -3.314  12.362  19.933  0.00  0.00    +0.000 A 
ATOM     18  N   UNL     1      -2.627  12.359  21.154  0.00  0.00    +0.000 N 
ENDBRANCH   7  10
BRANCH   1  24
ATOM     19  C   UNL     1       2.583   6.236  19.734  0.00  0.00    +0.000 A 
ATOM     20  C   UNL     1       3.702   5.647  19.116  0.00  0.00    +0.000 A 
ATOM     21  C   UNL     1       4.350   6.250  18.032  0.00  0.00    +0.000 A 
ATOM     22  C   UNL     1       3.796   7.427  17.526  0.00  0.00    +0.000 A 
ATOM     23  C   UNL     1       2.696   8.021  18.131  0.00  0.00    +0.000 A 
ATOM     24  C   UNL     1       2.112   7.486  19.285  0.00  0.00    +0.000 A 
BRANCH  21  25
ATOM     25  N   UNL     1       5.464   5.721  17.408  0.00  0.00    +0.000 N 
ATOM     26  C   UNL     1       6.817   5.962  17.904  0.00  0.00    +0.000 C 
ATOM     27  C   UNL     1       7.614   4.684  17.607  0.00  0.00    +0.000 C 
ATOM     28  N   UNL     1       7.571   4.328  16.200  0.00  0.00    +0.000 N 
ATOM     29  C   UNL     1       6.454   4.537  15.424  0.00  0.00    +0.000 C 
ATOM     30  O   UNL     1       6.380   3.998  14.320  0.00  0.00    +0.000 OA
ATOM     31  C   UNL     1       5.381   5.516  15.940  0.00  0.00    +0.000 C 
ATOM     32  H   UNL     1       8.181   3.599  15.849  0.00  0.00    +0.000 HD
ENDBRANCH  21  25
BRANCH  19  34
ATOM     33  C   UNL     1       1.407   4.358  20.576  0.00  0.00    +0.000 C 
ATOM     34  O   UNL     1       1.931   5.668  20.808  0.00  0.00    +0.000 OA
ENDBRANCH  19  34
ENDBRANCH   1  24
TORSDOF 4
ENDMDL
MODEL 3
REMARK VINA RESULT:      -8.7      3.701     10.399
REMARK  Name = 
REMARK  5 active torsions:
REMARK  status: ('A' for Active; 'I' for Inactive)
REMARK    1  A    between atoms: C_1  and  O_2
REMARK    2  A    between atoms: O_2  and  C_3
REMARK    3  A    between atoms: C_5  and  N_6
REMARK    4  A    between atoms: C_15  and  N_16
REMARK    5  A    between atoms: C_22  and  C_23
REMARK                            x       y       z     vdW  Elec       q    Type
REMARK                         _______ _______ _______ _____ _____    ______ ____
ROOT
ATOM      1  N   UNL     1       1.568   9.891  17.786  0.00  0.00    +0.000 N 
ATOM      2  C   UNL     1       1.761   8.710  18.518  0.00  0.00    +0.000 A 
ATOM      3  N   UNL     1       1.357   8.660  19.799  0.00  0.00    +0.000 NA
ATOM      4  C   UNL     1       1.607   7.554  20.517  0.00  0.00    +0.000 A 
ATOM      5  C   UNL     1       2.241   6.455  20.007  0.00  0.00    +0.000 A 
ATOM      6 CL   UNL     1       2.504   5.104  21.033  0.00  0.00    +0.000 Cl
ATOM      7  C   UNL     1       2.600   6.556  18.671  0.00  0.00    +0.000 A 
ATOM      8  N   UNL     1       2.381   7.677  17.925  0.00  0.00    +0.000 NA
ATOM      9  H   UNL     1       2.248   9.983  17.042  0.00  0.00    +0.000 HD
ENDROOT
BRANCH   7  10
ATOM     10  C   UNL     1       3.277   5.480  17.946  0.00  0.00    +0.000 A 
ATOM     11  C   UNL     1       2.809   4.230  17.570  0.00  0.00    +0.000 A 
ATOM     12  N   UNL     1       3.735   3.516  16.864  0.00  0.00    +0.000 NA
ATOM     13  C   UNL     1       4.788   4.298  16.799  0.00  0.00    +0.000 A 
ATOM     14  C   UNL     1       6.054   4.085  16.185  0.00  0.00    +0.000 A 
ATOM     15  C   UNL     1       6.996   5.045  16.238  0.00  0.00    +0.000 A 
ATOM     16  C   UNL     1       6.746   6.309  16.909  0.00  0.00    +0.000 A 
ATOM     17  C   UNL     1       5.551   6.519  17.488  0.00  0.00    +0.000 A 
ATOM     18  N   UNL     1       4.573   5.517  17.445  0.00  0.00    +0.000 N 
ENDBRANCH   7  10
BRANCH   1  24
ATOM     19  C   UNL     1      -0.342  11.305  18.462  0.00  0.00    +0.000 A 
ATOM     20  C   UNL     1      -0.831  12.590  18.769  0.00  0.00    +0.000 A 
ATOM     21  C   UNL     1       0.023  13.686  18.930  0.00  0.00    +0.000 A 
ATOM     22  C   UNL     1       1.396  13.447  18.857  0.00  0.00    +0.000 A 
ATOM     23  C   UNL     1       1.890  12.187  18.549  0.00  0.00    +0.000 A 
ATOM     24  C   UNL     1       1.040  11.109  18.272  0.00  0.00    +0.000 A 
BRANCH  21  25
ATOM     25  N   UNL     1      -0.412  14.968  19.210  0.00  0.00    +0.000 N 
ATOM     26  C   UNL     1       0.359  16.148  18.828  0.00  0.00    +0.000 C 
ATOM     27  C   UNL     1      -0.667  17.238  18.491  0.00  0.00    +0.000 C 
ATOM     28  N   UNL     1      -1.587  17.481  19.587  0.00  0.00    +0.000 N 
ATOM     29  C   UNL     1      -2.027  16.473  20.413  0.00  0.00    +0.000 C 
ATOM     30  O   UNL     1      -2.984  16.681  21.157  0.00  0.00    +0.000 OA
ATOM     31  C   UNL     1      -1.238  15.148  20.430  0.00  0.00    +0.000 C 
ATOM     32  H   UNL     1      -2.210  18.279  19.551  0.00  0.00    +0.000 HD
ENDBRANCH  21  25
BRANCH  19  34
ATOM     33  C   UNL     1      -1.980  10.243  17.119  0.00  0.00    +0.000 C 
ATOM     34  O   UNL     1      -1.161  10.210  18.290  0.00  0.00    +0.000 OA
ENDBRANCH  19  34
ENDBRANCH   1  24
TORSDOF 4
ENDMDL
MODEL 4
REMARK VINA RESULT:      -8.7      3.207     10.554
REMARK  Name = 
REMARK  5 active torsions:
REMARK  status: ('A' for Active; 'I' for Inactive)
REMARK    1  A    between atoms: C_1  and  O_2
REMARK    2  A    between atoms: O_2  and  C_3
REMARK    3  A    between atoms: C_5  and  N_6
REMARK    4  A    between atoms: C_15  and  N_16
REMARK    5  A    between atoms: C_22  and  C_23
REMARK                            x       y       z     vdW  Elec       q    Type
REMARK                         _______ _______ _______ _____ _____    ______ ____
ROOT
ATOM      1  N   UNL     1       2.008   8.867  19.519  0.00  0.00    +0.000 N 
ATOM      2  C   UNL     1       2.314   7.506  19.676  0.00  0.00    +0.000 A 
ATOM      3  N   UNL     1       1.463   6.717  20.355  0.00  0.00    +0.000 NA
ATOM      4  C   UNL     1       1.793   5.434  20.564  0.00  0.00    +0.000 A 
ATOM      5  C   UNL     1       2.950   4.871  20.103  0.00  0.00    +0.000 A 
ATOM      6 CL   UNL     1       3.256   3.216  20.442  0.00  0.00    +0.000 Cl
ATOM      7  C   UNL     1       3.767   5.727  19.379  0.00  0.00    +0.000 A 
ATOM      8  N   UNL     1       3.469   7.042  19.174  0.00  0.00    +0.000 NA
ATOM      9  H   UNL     1       2.844   9.424  19.400  0.00  0.00    +0.000 HD
ENDROOT
BRANCH   7  10
ATOM     10  C   UNL     1       5.042   5.306  18.797  0.00  0.00    +0.000 A 
ATOM     11  C   UNL     1       6.277   5.124  19.400  0.00  0.00    +0.000 A 
ATOM     12  N   UNL     1       7.227   4.681  18.523  0.00  0.00    +0.000 NA
ATOM     13  C   UNL     1       6.607   4.591  17.369  0.00  0.00    +0.000 A 
ATOM     14  C   UNL     1       7.091   4.183  16.095  0.00  0.00    +0.000 A 
ATOM     15  C   UNL     1       6.260   4.162  15.036  0.00  0.00    +0.000 A 
ATOM     16  C   UNL     1       4.864   4.544  15.166  0.00  0.00    +0.000 A 
ATOM     17  C   UNL     1       4.399   4.929  16.367  0.00  0.00    +0.000 A 
ATOM     18  N   UNL     1       5.264   4.963  17.468  0.00  0.00    +0.000 N 
ENDBRANCH   7  10
BRANCH   1  24
ATOM     19  C   UNL     1      -0.145  10.052  19.271  0.00  0.00    +0.000 A 
ATOM     20  C   UNL     1      -1.126  10.886  19.843  0.00  0.00    +0.000 A 
ATOM     21  C   UNL     1      -1.117  11.210  21.205  0.00  0.00    +0.000 A 
ATOM     22  C   UNL     1      -0.142  10.608  22.001  0.00  0.00    +0.000 A 
ATOM     23  C   UNL     1       0.834   9.790  21.449  0.00  0.00    +0.000 A 
ATOM     24  C   UNL     1       0.902   9.552  20.071  0.00  0.00    +0.000 A 
BRANCH  21  25
ATOM     25  N   UNL     1      -2.044  12.040  21.805  0.00  0.00    +0.000 N 
ATOM     26  C   UNL     1      -2.193  13.441  21.421  0.00  0.00    +0.000 C 
ATOM     27  C   UNL     1      -3.684  13.770  21.576  0.00  0.00    +0.000 C 
ATOM     28  N   UNL     1      -4.170  13.486  22.914  0.00  0.00    +0.000 N 
ATOM     29  C   UNL     1      -3.707  12.421  23.652  0.00  0.00    +0.000 C 
ATOM     30  O   UNL     1      -4.320  12.079  24.662  0.00  0.00    +0.000 OA
ATOM     31  C   UNL     1      -2.383  11.759  23.223  0.00  0.00    +0.000 C 
ATOM     32  H   UNL     1      -5.092  13.804  23.190  0.00  0.00    +0.000 HD
ENDBRANCH  21  25
BRANCH  19  34
ATOM     33  C   UNL     1      -1.362   9.914  17.242  0.00  0.00    +0.000 C 
ATOM     34  O   UNL     1      -0.125   9.724  17.933  0.00  0.00    +0.000 OA
ENDBRANCH  19  34
ENDBRANCH   1  24
TORSDOF 4
ENDMDL
MODEL 5
REMARK VINA RESULT:      -8.6      3.920     10.289
REMARK  Name = 
REMARK  5 active torsions:
REMARK  status: ('A' for Active; 'I' for Inactive)
REMARK    1  A    between atoms: C_1  and  O_2
REMARK    2  A    between atoms: O_2  and  C_3
REMARK    3  A    between atoms: C_5  and  N_6
REMARK    4  A    between atoms: C_15  and  N_16
REMARK    5  A    between atoms: C_22  and  C_23
REMARK                            x       y       z     vdW  Elec       q    Type
REMARK                         _______ _______ _______ _____ _____    ______ ____
ROOT
ATOM      1  N   UNL     1       1.693  10.053  17.846  0.00  0.00    +0.000 N 
ATOM      2  C   UNL     1       1.809   8.854  18.566  0.00  0.00    +0.000 A 
ATOM      3  N   UNL     1       1.445   8.829  19.860  0.00  0.00    +0.000 NA
ATOM      4  C   UNL     1       1.624   7.700  20.564  0.00  0.00    +0.000 A 
ATOM      5  C   UNL     1       2.143   6.555  20.027  0.00  0.00    +0.000 A 
ATOM      6 CL   UNL     1       2.324   5.178  21.037  0.00  0.00    +0.000 Cl
ATOM      7  C   UNL     1       2.464   6.635  18.679  0.00  0.00    +0.000 A 
ATOM      8  N   UNL     1       2.317   7.776  17.947  0.00  0.00    +0.000 NA
ATOM      9  H   UNL     1       2.352  10.092  17.080  0.00  0.00    +0.000 HD
ENDROOT
BRANCH   7  10
ATOM     10  C   UNL     1       3.021   5.511  17.927  0.00  0.00    +0.000 A 
ATOM     11  C   UNL     1       2.446   4.295  17.590  0.00  0.00    +0.000 A 
ATOM     12  N   UNL     1       3.278   3.514  16.838  0.00  0.00    +0.000 NA
ATOM     13  C   UNL     1       4.377   4.220  16.705  0.00  0.00    +0.000 A 
ATOM     14  C   UNL     1       5.588   3.915  16.022  0.00  0.00    +0.000 A 
ATOM     15  C   UNL     1       6.596   4.807  16.013  0.00  0.00    +0.000 A 
ATOM     16  C   UNL     1       6.474   6.089  16.685  0.00  0.00    +0.000 A 
ATOM     17  C   UNL     1       5.333   6.385  17.330  0.00  0.00    +0.000 A 
ATOM     18  N   UNL     1       4.286   5.454  17.352  0.00  0.00    +0.000 N 
ENDBRANCH   7  10
BRANCH   1  24
ATOM     19  C   UNL     1      -0.067  11.626  18.579  0.00  0.00    +0.000 A 
ATOM     20  C   UNL     1      -0.430  12.946  18.910  0.00  0.00    +0.000 A 
ATOM     21  C   UNL     1       0.523  13.958  19.062  0.00  0.00    +0.000 A 
ATOM     22  C   UNL     1       1.867  13.597  18.956  0.00  0.00    +0.000 A 
ATOM     23  C   UNL     1       2.238  12.301  18.624  0.00  0.00    +0.000 A 
ATOM     24  C   UNL     1       1.288  11.308  18.356  0.00  0.00    +0.000 A 
BRANCH  21  25
ATOM     25  N   UNL     1       0.212  15.270  19.364  0.00  0.00    +0.000 N 
ATOM     26  C   UNL     1      -1.105  15.659  19.862  0.00  0.00    +0.000 C 
ATOM     27  C   UNL     1      -0.868  16.825  20.831  0.00  0.00    +0.000 C 
ATOM     28  N   UNL     1      -0.143  17.918  20.205  0.00  0.00    +0.000 N 
ATOM     29  C   UNL     1       0.839  17.703  19.267  0.00  0.00    +0.000 C 
ATOM     30  O   UNL     1       1.585  18.631  18.956  0.00  0.00    +0.000 OA
ATOM     31  C   UNL     1       0.902  16.325  18.579  0.00  0.00    +0.000 C 
ATOM     32  H   UNL     1      -0.061  18.804  20.687  0.00  0.00    +0.000 HD
ENDBRANCH  21  25
BRANCH  19  34
ATOM     33  C   UNL     1      -1.918  10.804  17.349  0.00  0.00    +0.000 C 
ATOM     34  O   UNL     1      -0.985  10.611  18.415  0.00  0.00    +0.000 OA
ENDBRANCH  19  34
ENDBRANCH   1  24
TORSDOF 4
ENDMDL
MODEL 6
REMARK VINA RESULT:      -8.6      3.397     10.663
REMARK  Name = 
REMARK  5 active torsions:
REMARK  status: ('A' for Active; 'I' for Inactive)
REMARK    1  A    between atoms: C_1  and  O_2
REMARK    2  A    between atoms: O_2  and  C_3
REMARK    3  A    between atoms: C_5  and  N_6
REMARK    4  A    between atoms: C_15  and  N_16
REMARK    5  A    between atoms: C_22  and  C_23
REMARK                            x       y       z     vdW  Elec       q    Type
REMARK                         _______ _______ _______ _____ _____    ______ ____
ROOT
ATOM      1  N   UNL     1       1.511   8.769  19.323  0.00  0.00    +0.000 N 
ATOM      2  C   UNL     1       1.849   7.426  19.544  0.00  0.00    +0.000 A 
ATOM      3  N   UNL     1       1.245   6.753  20.539  0.00  0.00    +0.000 NA
ATOM      4  C   UNL     1       1.622   5.491  20.794  0.00  0.00    +0.000 A 
ATOM      5  C   UNL     1       2.584   4.835  20.077  0.00  0.00    +0.000 A 
ATOM      6 CL   UNL     1       2.978   3.220  20.506  0.00  0.00    +0.000 Cl
ATOM      7  C   UNL     1       3.143   5.571  19.041  0.00  0.00    +0.000 A 
ATOM      8  N   UNL     1       2.797   6.863  18.777  0.00  0.00    +0.000 NA
ATOM      9  H   UNL     1       2.271   9.277  18.889  0.00  0.00    +0.000 HD
ENDROOT
BRANCH   7  10
ATOM     10  C   UNL     1       4.180   5.038  18.157  0.00  0.00    +0.000 A 
ATOM     11  C   UNL     1       4.062   4.410  16.927  0.00  0.00    +0.000 A 
ATOM     12  N   UNL     1       5.275   4.088  16.385  0.00  0.00    +0.000 NA
ATOM     13  C   UNL     1       6.158   4.498  17.266  0.00  0.00    +0.000 A 
ATOM     14  C   UNL     1       7.579   4.431  17.242  0.00  0.00    +0.000 A 
ATOM     15  C   UNL     1       8.293   4.929  18.268  0.00  0.00    +0.000 A 
ATOM     16  C   UNL     1       7.640   5.547  19.410  0.00  0.00    +0.000 A 
ATOM     17  C   UNL     1       6.298   5.616  19.439  0.00  0.00    +0.000 A 
ATOM     18  N   UNL     1       5.552   5.088  18.378  0.00  0.00    +0.000 N 
ENDBRANCH   7  10
BRANCH   1  24
ATOM     19  C   UNL     1      -0.351  10.383  19.505  0.00  0.00    +0.000 A 
ATOM     20  C   UNL     1      -1.081  11.283  20.306  0.00  0.00    +0.000 A 
ATOM     21  C   UNL     1      -0.894  11.358  21.691  0.00  0.00    +0.000 A 
ATOM     22  C   UNL     1      -0.011  10.447  22.270  0.00  0.00    +0.000 A 
ATOM     23  C   UNL     1       0.720   9.559  21.492  0.00  0.00    +0.000 A 
ATOM     24  C   UNL     1       0.625   9.555  20.095  0.00  0.00    +0.000 A 
BRANCH  21  25
ATOM     25  N   UNL     1      -1.571  12.239  22.513  0.00  0.00    +0.000 N 
ATOM     26  C   UNL     1      -0.975  13.496  22.958  0.00  0.00    +0.000 C 
ATOM     27  C   UNL     1      -2.128  14.505  23.056  0.00  0.00    +0.000 C 
ATOM     28  N   UNL     1      -3.194  14.034  23.922  0.00  0.00    +0.000 N 
ATOM     29  C   UNL     1      -3.545  12.706  23.998  0.00  0.00    +0.000 C 
ATOM     30  O   UNL     1      -4.601  12.395  24.547  0.00  0.00    +0.000 OA
ATOM     31  C   UNL     1      -2.548  11.657  23.467  0.00  0.00    +0.000 C 
ATOM     32  H   UNL     1      -3.935  14.668  24.194  0.00  0.00    +0.000 HD
ENDBRANCH  21  25
BRANCH  19  34
ATOM     33  C   UNL     1      -1.852  10.093  17.695  0.00  0.00    +0.000 C 
ATOM     34  O   UNL     1      -0.509  10.294  18.139  0.00  0.00    +0.000 OA
ENDBRANCH  19  34
ENDBRANCH   1  24
TORSDOF 4
ENDMDL
MODEL 7
REMARK VINA RESULT:      -8.5      3.189     10.587
REMARK  Name = 
REMARK  5 active torsions:
REMARK  status: ('A' for Active; 'I' for Inactive)
REMARK    1  A    between atoms: C_1  and  O_2
REMARK    2  A    between atoms: O_2  and  C_3
REMARK    3  A    between atoms: C_5  and  N_6
REMARK    4  A    between atoms: C_15  and  N_16
REMARK    5  A    between atoms: C_22  and  C_23
REMARK                            x       y       z     vdW  Elec       q    Type
REMARK                         _______ _______ _______ _____ _____    ______ ____
ROOT
ATOM      1  N   UNL     1       1.817   9.585  18.381  0.00  0.00    +0.000 N 
ATOM      2  C   UNL     1       2.406   8.326  18.573  0.00  0.00    +0.000 A 
ATOM      3  N   UNL     1       1.874   7.484  19.476  0.00  0.00    +0.000 NA
ATOM      4  C   UNL     1       2.481   6.310  19.707  0.00  0.00    +0.000 A 
ATOM      5  C   UNL     1       3.613   5.909  19.054  0.00  0.00    +0.000 A 
ATOM      6 CL   UNL     1       4.295   4.382  19.445  0.00  0.00    +0.000 Cl
ATOM      7  C   UNL     1       4.091   6.806  18.109  0.00  0.00    +0.000 A 
ATOM      8  N   UNL     1       3.509   8.015  17.873  0.00  0.00    +0.000 NA
ATOM      9  H   UNL     1       2.489  10.262  18.044  0.00  0.00    +0.000 HD
ENDROOT
BRANCH   7  10
ATOM     10  C   UNL     1       5.285   6.549  17.302  0.00  0.00    +0.000 A 
ATOM     11  C   UNL     1       6.521   7.177  17.320  0.00  0.00    +0.000 A 
ATOM     12  N   UNL     1       7.402   6.622  16.435  0.00  0.00    +0.000 NA
ATOM     13  C   UNL     1       6.731   5.656  15.850  0.00  0.00    +0.000 A 
ATOM     14  C   UNL     1       7.135   4.736  14.843  0.00  0.00    +0.000 A 
ATOM     15  C   UNL     1       6.268   3.812  14.391  0.00  0.00    +0.000 A 
ATOM     16  C   UNL     1       4.916   3.725  14.917  0.00  0.00    +0.000 A 
ATOM     17  C   UNL     1       4.528   4.589  15.871  0.00  0.00    +0.000 A 
ATOM     18  N   UNL     1       5.424   5.560  16.335  0.00  0.00    +0.000 N 
ENDBRANCH   7  10
BRANCH   1  24
ATOM     19  C   UNL     1      -0.555  10.260  18.535  0.00  0.00    +0.000 A 
ATOM     20  C   UNL     1      -1.555  10.971  19.225  0.00  0.00    +0.000 A 
ATOM     21  C   UNL     1      -1.327  11.527  20.490  0.00  0.00    +0.000 A 
ATOM     22  C   UNL     1      -0.090  11.280  21.085  0.00  0.00    +0.000 A 
ATOM     23  C   UNL     1       0.907  10.586  20.413  0.00  0.00    +0.000 A 
ATOM     24  C   UNL     1       0.728  10.126  19.103  0.00  0.00    +0.000 A 
BRANCH  21  25
ATOM     25  N   UNL     1      -2.269  12.251  21.195  0.00  0.00    +0.000 N 
ATOM     26  C   UNL     1      -2.679  13.592  20.787  0.00  0.00    +0.000 C 
ATOM     27  C   UNL     1      -4.163  13.716  21.156  0.00  0.00    +0.000 C 
ATOM     28  N   UNL     1      -4.402  13.443  22.563  0.00  0.00    +0.000 N 
ATOM     29  C   UNL     1      -3.683  12.500  23.259  0.00  0.00    +0.000 C 
ATOM     30  O   UNL     1      -4.083  12.134  24.363  0.00  0.00    +0.000 OA
ATOM     31  C   UNL     1      -2.352  12.007  22.657  0.00  0.00    +0.000 C 
ATOM     32  H   UNL     1      -5.309  13.643  22.965  0.00  0.00    +0.000 HD
ENDBRANCH  21  25
BRANCH  19  34
ATOM     33  C   UNL     1      -2.063   9.878  16.747  0.00  0.00    +0.000 C 
ATOM     34  O   UNL     1      -0.750   9.710  17.286  0.00  0.00    +0.000 OA
ENDBRANCH  19  34
ENDBRANCH   1  24
TORSDOF 4
ENDMDL
MODEL 8
REMARK VINA RESULT:      -8.5      3.321     10.591
REMARK  Name = 
REMARK  5 active torsions:
REMARK  status: ('A' for Active; 'I' for Inactive)
REMARK    1  A    between atoms: C_1  and  O_2
REMARK    2  A    between atoms: O_2  and  C_3
REMARK    3  A    between atoms: C_5  and  N_6
REMARK    4  A    between atoms: C_15  and  N_16
REMARK    5  A    between atoms: C_22  and  C_23
REMARK                            x       y       z     vdW  Elec       q    Type
REMARK                         _______ _______ _______ _____ _____    ______ ____
ROOT
ATOM      1  N   UNL     1       1.438   8.872  19.239  0.00  0.00    +0.000 N 
ATOM      2  C   UNL     1       1.794   7.541  19.505  0.00  0.00    +0.000 A 
ATOM      3  N   UNL     1       1.237   6.911  20.554  0.00  0.00    +0.000 NA
ATOM      4  C   UNL     1       1.632   5.663  20.847  0.00  0.00    +0.000 A 
ATOM      5  C   UNL     1       2.567   4.980  20.119  0.00  0.00    +0.000 A 
ATOM      6 CL   UNL     1       2.989   3.388  20.602  0.00  0.00    +0.000 Cl
ATOM      7  C   UNL     1       3.076   5.672  19.029  0.00  0.00    +0.000 A 
ATOM      8  N   UNL     1       2.711   6.949  18.723  0.00  0.00    +0.000 NA
ATOM      9  H   UNL     1       2.175   9.364  18.751  0.00  0.00    +0.000 HD
ENDROOT
BRANCH   7  10
ATOM     10  C   UNL     1       4.077   5.104  18.125  0.00  0.00    +0.000 A 
ATOM     11  C   UNL     1       3.912   4.460  16.909  0.00  0.00    +0.000 A 
ATOM     12  N   UNL     1       5.103   4.105  16.339  0.00  0.00    +0.000 NA
ATOM     13  C   UNL     1       6.018   4.510  17.189  0.00  0.00    +0.000 A 
ATOM     14  C   UNL     1       7.437   4.413  17.127  0.00  0.00    +0.000 A 
ATOM     15  C   UNL     1       8.188   4.913  18.125  0.00  0.00    +0.000 A 
ATOM     16  C   UNL     1       7.580   5.561  19.274  0.00  0.00    +0.000 A 
ATOM     17  C   UNL     1       6.241   5.658  19.339  0.00  0.00    +0.000 A 
ATOM     18  N   UNL     1       5.455   5.129  18.307  0.00  0.00    +0.000 N 
ENDBRANCH   7  10
BRANCH   1  24
ATOM     19  C   UNL     1      -0.435  10.473  19.432  0.00  0.00    +0.000 A 
ATOM     20  C   UNL     1      -1.136  11.405  20.221  0.00  0.00    +0.000 A 
ATOM     21  C   UNL     1      -0.880  11.556  21.588  0.00  0.00    +0.000 A 
ATOM     22  C   UNL     1       0.044  10.686  22.169  0.00  0.00    +0.000 A 
ATOM     23  C   UNL     1       0.747   9.768  21.401  0.00  0.00    +0.000 A 
ATOM     24  C   UNL     1       0.581   9.688  20.013  0.00  0.00    +0.000 A 
BRANCH  21  25
ATOM     25  N   UNL     1      -1.526  12.472  22.396  0.00  0.00    +0.000 N 
ATOM     26  C   UNL     1      -2.970  12.684  22.326  0.00  0.00    +0.000 C 
ATOM     27  C   UNL     1      -3.424  13.013  23.755  0.00  0.00    +0.000 C 
ATOM     28  N   UNL     1      -2.702  14.143  24.311  0.00  0.00    +0.000 N 
ATOM     29  C   UNL     1      -1.376  14.377  24.030  0.00  0.00    +0.000 C 
ATOM     30  O   UNL     1      -0.752  15.190  24.711  0.00  0.00    +0.000 OA
ATOM     31  C   UNL     1      -0.754  13.671  22.808  0.00  0.00    +0.000 C 
ATOM     32  H   UNL     1      -3.014  14.557  25.181  0.00  0.00    +0.000 HD
ENDBRANCH  21  25
BRANCH  19  34
ATOM     33  C   UNL     1      -2.025  10.095  17.716  0.00  0.00    +0.000 C 
ATOM     34  O   UNL     1      -0.660  10.309  18.082  0.00  0.00    +0.000 OA
ENDBRANCH  19  34
ENDBRANCH   1  24
TORSDOF 4
ENDMDL
MODEL 9
REMARK VINA RESULT:      -8.3      3.180      3.917
REMARK  Name = 
REMARK  5 active torsions:
REMARK  status: ('A' for Active; 'I' for Inactive)
REMARK    1  A    between atoms: C_1  and  O_2
REMARK    2  A    between atoms: O_2  and  C_3
REMARK    3  A    between atoms: C_5  and  N_6
REMARK    4  A    between atoms: C_15  and  N_16
REMARK    5  A    between atoms: C_22  and  C_23
REMARK                            x       y       z     vdW  Elec       q    Type
REMARK                         _______ _______ _______ _____ _____    ______ ____
ROOT
ATOM      1  N   UNL     1       0.094  10.790  19.113  0.00  0.00    +0.000 N 
ATOM      2  C   UNL     1       0.554  12.026  19.592  0.00  0.00    +0.000 A 
ATOM      3  N   UNL     1       1.834  12.142  19.985  0.00  0.00    +0.000 NA
ATOM      4  C   UNL     1       2.251  13.304  20.509  0.00  0.00    +0.000 A 
ATOM      5  C   UNL     1       1.443  14.397  20.650  0.00  0.00    +0.000 A 
ATOM      6 CL   UNL     1       2.099  15.827  21.340  0.00  0.00    +0.000 Cl
ATOM      7  C   UNL     1       0.144  14.225  20.193  0.00  0.00    +0.000 A 
ATOM      8  N   UNL     1      -0.313  13.048  19.680  0.00  0.00    +0.000 NA
ATOM      9  H   UNL     1      -0.902  10.683  19.255  0.00  0.00    +0.000 HD
ENDROOT
BRANCH   7  10
ATOM     10  C   UNL     1      -0.865  15.284  20.249  0.00  0.00    +0.000 A 
ATOM     11  C   UNL     1      -1.884  15.492  21.166  0.00  0.00    +0.000 A 
ATOM     12  N   UNL     1      -2.602  16.624  20.902  0.00  0.00    +0.000 NA
ATOM     13  C   UNL     1      -2.054  17.128  19.819  0.00  0.00    +0.000 A 
ATOM     14  C   UNL     1      -2.382  18.301  19.084  0.00  0.00    +0.000 A 
ATOM     15  C   UNL     1      -1.667  18.631  17.993  0.00  0.00    +0.000 A 
ATOM     16  C   UNL     1      -0.553  17.813  17.546  0.00  0.00    +0.000 A 
ATOM     17  C   UNL     1      -0.235  16.704  18.237  0.00  0.00    +0.000 A 
ATOM     18  N   UNL     1      -0.985  16.351  19.366  0.00  0.00    +0.000 N 
ENDBRANCH   7  10
BRANCH   1  24
ATOM     19  C   UNL     1       0.987   8.748  20.180  0.00  0.00    +0.000 A 
ATOM     20  C   UNL     1       1.875   7.657  20.121  0.00  0.00    +0.000 A 
ATOM     21  C   UNL     1       2.586   7.346  18.956  0.00  0.00    +0.000 A 
ATOM     22  C   UNL     1       2.323   8.111  17.819  0.00  0.00    +0.000 A 
ATOM     23  C   UNL     1       1.455   9.193  17.867  0.00  0.00    +0.000 A 
ATOM     24  C   UNL     1       0.826   9.582  19.056  0.00  0.00    +0.000 A 
BRANCH  21  25
ATOM     25  N   UNL     1       3.484   6.300  18.858  0.00  0.00    +0.000 N 
ATOM     26  C   UNL     1       4.585   6.313  17.898  0.00  0.00    +0.000 C 
ATOM     27  C   UNL     1       5.749   5.576  18.574  0.00  0.00    +0.000 C 
ATOM     28  N   UNL     1       5.376   4.240  19.004  0.00  0.00    +0.000 N 
ATOM     29  C   UNL     1       4.118   3.948  19.480  0.00  0.00    +0.000 C 
ATOM     30  O   UNL     1       3.928   2.879  20.057  0.00  0.00    +0.000 OA
ATOM     31  C   UNL     1       2.979   4.944  19.186  0.00  0.00    +0.000 C 
ATOM     32  H   UNL     1       6.091   3.597  19.321  0.00  0.00    +0.000 HD
ENDBRANCH  21  25
BRANCH  19  34
ATOM     33  C   UNL     1       1.068   9.232  22.499  0.00  0.00    +0.000 C 
ATOM     34  O   UNL     1       0.280   9.081  21.316  0.00  0.00    +0.000 OA
ENDBRANCH  19  34
ENDBRANCH   1  24
TORSDOF 4
ENDMDL
