MODEL 1
REMARK VINA RESULT:      -8.8      0.000      0.000
REMARK  Name = 
REMARK  6 active torsions:
REMARK  status: ('A' for Active; 'I' for Inactive)
REMARK    1  A    between atoms: C_1  and  C_2
REMARK    2  A    between atoms: C_3  and  C_4
REMARK    3  A    between atoms: C_4  and  C_5
REMARK    4  A    between atoms: C_10  and  C_11
REMARK    5  A    between atoms: C_17  and  C_19
REMARK    6  A    between atoms: C_31  and  C_32
REMARK                            x       y       z     vdW  Elec       q    Type
REMARK                         _______ _______ _______ _____ _____    ______ ____
ROOT
ATOM      1  C   UNL     1       2.255   7.746  18.733  0.00  0.00    +0.000 A 
ATOM      2  C   UNL     1       2.208   7.460  20.102  0.00  0.00    +0.000 A 
ATOM      3  C   UNL     1       1.386   8.214  20.948  0.00  0.00    +0.000 A 
ATOM      4  C   UNL     1       0.606   9.252  20.433  0.00  0.00    +0.000 A 
ATOM      5  F   UNL     1      -0.133   9.967  21.295  0.00  0.00    +0.000 F 
ATOM      6  C   UNL     1       0.617   9.546  19.070  0.00  0.00    +0.000 A 
ATOM      7  C   UNL     1       1.447   8.784  18.231  0.00  0.00    +0.000 A 
ENDROOT
BRANCH   6   8
ATOM      8  C   UNL     1      -0.046  10.786  18.579  0.00  0.00    +0.000 C 
ATOM      9  O   UNL     1      -1.248  10.722  18.326  0.00  0.00    +0.000 OA
ATOM     10  N   UNL     1       0.650  11.994  18.517  0.00  0.00    +0.000 N 
ATOM     11  C   UNL     1      -0.093  13.254  18.325  0.00  0.00    +0.000 C 
ATOM     12  C   UNL     1       0.325  14.326  19.362  0.00  0.00    +0.000 C 
ATOM     13  N   UNL     1       1.790  14.403  19.532  0.00  0.00    +0.000 N 
ATOM     14  C   UNL     1       2.446  15.619  19.393  0.00  0.00    +0.000 C 
ATOM     15  O   UNL     1       1.822  16.654  19.151  0.00  0.00    +0.000 OA
ATOM     16  C   UNL     1       2.425  13.100  19.763  0.00  0.00    +0.000 C 
ATOM     17  C   UNL     1       2.102  12.171  18.585  0.00  0.00    +0.000 C 
BRANCH  14  18
ATOM     18  C   UNL     1       3.966  15.649  19.616  0.00  0.00    +0.000 C 
ATOM     19  C   UNL     1       4.367  16.144  21.002  0.00  0.00    +0.000 C 
ATOM     20  C   UNL     1       4.635  17.622  20.800  0.00  0.00    +0.000 C 
ATOM     21  N   UNL     1       5.227  17.730  19.466  0.00  0.00    +0.000 NA
ATOM     22  C   UNL     1       4.699  16.610  18.680  0.00  0.00    +0.000 C 
ATOM     23  H   UNL     1       6.242  17.651  19.536  0.00  0.00    +0.000 HD
ENDBRANCH  14  18
ENDBRANCH   6   8
BRANCH   1  24
ATOM     24  C   UNL     1       3.260   7.073  17.817  0.00  0.00    +0.000 C 
BRANCH  24  27
ATOM     25  C   UNL     1       1.471   4.639  17.561  0.00  0.00    +0.000 C 
ATOM     26  C   UNL     1       2.798   4.528  18.244  0.00  0.00    +0.000 A 
ATOM     27  C   UNL     1       3.757   5.698  18.245  0.00  0.00    +0.000 A 
ATOM     28  N   UNL     1       4.961   5.630  18.732  0.00  0.00    +0.000 NA
ATOM     29  N   UNL     1       5.349   4.451  19.284  0.00  0.00    +0.000 N 
ATOM     30  C   UNL     1       4.553   3.355  19.487  0.00  0.00    +0.000 A 
ATOM     31  O   UNL     1       4.955   2.376  20.108  0.00  0.00    +0.000 OA
ATOM     32  C   UNL     1       3.196   3.418  18.895  0.00  0.00    +0.000 A 
ATOM     33  C   UNL     1       2.323   2.202  19.076  0.00  0.00    +0.000 C 
ATOM     34  H   UNL     1       6.277   4.416  19.696  0.00  0.00    +0.000 HD
ENDBRANCH  24  27
ENDBRANCH   1  24
TORSDOF 4
ENDMDL
MODEL 2
REMARK VINA RESULT:      -8.0      1.654      1.915
REMARK  Name = 
REMARK  6 active torsions:
REMARK  status: ('A' for Active; 'I' for Inactive)
REMARK    1  A    between atoms: C_1  and  C_2
REMARK    2  A    between atoms: C_3  and  C_4
REMARK    3  A    between atoms: C_4  and  C_5
REMARK    4  A    between atoms: C_10  and  C_11
REMARK    5  A    between atoms: C_17  and  C_19
REMARK    6  A    between atoms: C_31  and  C_32
REMARK                            x       y       z     vdW  Elec       q    Type
REMARK                         _______ _______ _______ _____ _____    ______ ____
ROOT
ATOM      1  C   UNL     1       1.477   8.167  20.297  0.00  0.00    +0.000 A 
ATOM      2  C   UNL     1       1.183   8.216  21.664  0.00  0.00    +0.000 A 
ATOM      3  C   UNL     1       0.333   9.210  22.163  0.00  0.00    +0.000 A 
ATOM      4  C   UNL     1      -0.230  10.154  21.303  0.00  0.00    +0.000 A 
ATOM      5  F   UNL     1      -1.006  11.108  21.840  0.00  0.00    +0.000 F 
ATOM      6  C   UNL     1       0.028  10.117  19.933  0.00  0.00    +0.000 A 
ATOM      7  C   UNL     1       0.884   9.117  19.444  0.00  0.00    +0.000 A 
ENDROOT
BRANCH   6   8
ATOM      8  C   UNL     1      -0.401  11.254  19.071  0.00  0.00    +0.000 C 
ATOM      9  O   UNL     1      -1.544  11.220  18.618  0.00  0.00    +0.000 OA
ATOM     10  N   UNL     1       0.428  12.361  18.881  0.00  0.00    +0.000 N 
ATOM     11  C   UNL     1      -0.127  13.592  18.287  0.00  0.00    +0.000 C 
ATOM     12  C   UNL     1       0.231  14.842  19.128  0.00  0.00    +0.000 C 
ATOM     13  N   UNL     1       1.648  14.851  19.549  0.00  0.00    +0.000 N 
ATOM     14  C   UNL     1       2.450  15.951  19.275  0.00  0.00    +0.000 C 
ATOM     15  O   UNL     1       1.996  16.943  18.704  0.00  0.00    +0.000 OA
ATOM     16  C   UNL     1       2.085  13.595  20.169  0.00  0.00    +0.000 C 
ATOM     17  C   UNL     1       1.859  12.443  19.180  0.00  0.00    +0.000 C 
BRANCH  14  18
ATOM     18  C   UNL     1       3.906  15.922  19.766  0.00  0.00    +0.000 C 
ATOM     19  C   UNL     1       4.096  16.551  21.142  0.00  0.00    +0.000 C 
ATOM     20  C   UNL     1       4.505  17.979  20.840  0.00  0.00    +0.000 C 
ATOM     21  N   UNL     1       5.328  17.897  19.632  0.00  0.00    +0.000 NA
ATOM     22  C   UNL     1       4.861  16.724  18.884  0.00  0.00    +0.000 C 
ATOM     23  H   UNL     1       6.306  17.770  19.892  0.00  0.00    +0.000 HD
ENDBRANCH  14  18
ENDBRANCH   6   8
BRANCH   1  24
ATOM     24  C   UNL     1       2.527   7.220  19.746  0.00  0.00    +0.000 C 
BRANCH  24  27
ATOM     25  C   UNL     1       3.791   5.428  17.654  0.00  0.00    +0.000 C 
ATOM     26  C   UNL     1       2.670   4.917  18.504  0.00  0.00    +0.000 A 
ATOM     27  C   UNL     1       2.136   5.752  19.647  0.00  0.00    +0.000 A 
ATOM     28  N   UNL     1       1.235   5.322  20.481  0.00  0.00    +0.000 NA
ATOM     29  N   UNL     1       0.746   4.070  20.285  0.00  0.00    +0.000 N 
ATOM     30  C   UNL     1       1.021   3.254  19.221  0.00  0.00    +0.000 A 
ATOM     31  O   UNL     1       0.435   2.187  19.061  0.00  0.00    +0.000 OA
ATOM     32  C   UNL     1       2.077   3.725  18.294  0.00  0.00    +0.000 A 
ATOM     33  C   UNL     1       2.419   2.817  17.140  0.00  0.00    +0.000 C 
ATOM     34  H   UNL     1       0.016   3.755  20.918  0.00  0.00    +0.000 HD
ENDBRANCH  24  27
ENDBRANCH   1  24
TORSDOF 4
ENDMDL
MODEL 3
REMARK VINA RESULT:      -7.8      1.391      1.727
REMARK  Name = 
REMARK  6 active torsions:
REMARK  status: ('A' for Active; 'I' for Inactive)
REMARK    1  A    between atoms: C_1  and  C_2
REMARK    2  A    between atoms: C_3  and  C_4
REMARK    3  A    between atoms: C_4  and  C_5
REMARK    4  A    between atoms: C_10  and  C_11
REMARK    5  A    between atoms: C_17  and  C_19
REMARK    6  A    between atoms: C_31  and  C_32
REMARK                            x       y       z     vdW  Elec       q    Type
REMARK                         _______ _______ _______ _____ _____    ______ ____
ROOT
ATOM      1  C   UNL     1       1.962   8.405  18.707  0.00  0.00    +0.000 A 
ATOM      2  C   UNL     1       1.855   7.953  20.027  0.00  0.00    +0.000 A 
ATOM      3  C   UNL     1       1.030   8.629  20.935  0.00  0.00    +0.000 A 
ATOM      4  C   UNL     1       0.307   9.753  20.530  0.00  0.00    +0.000 A 
ATOM      5  F   UNL     1      -0.436  10.385  21.450  0.00  0.00    +0.000 F 
ATOM      6  C   UNL     1       0.378  10.213  19.215  0.00  0.00    +0.000 A 
ATOM      7  C   UNL     1       1.210   9.529  18.314  0.00  0.00    +0.000 A 
ENDROOT
BRANCH   6   8
ATOM      8  C   UNL     1      -0.222  11.530  18.863  0.00  0.00    +0.000 C 
ATOM      9  O   UNL     1      -1.438  11.567  18.681  0.00  0.00    +0.000 OA
ATOM     10  N   UNL     1       0.554  12.690  18.850  0.00  0.00    +0.000 N 
ATOM     11  C   UNL     1      -0.107  14.008  18.801  0.00  0.00    +0.000 C 
ATOM     12  C   UNL     1       0.444  14.963  19.889  0.00  0.00    +0.000 C 
ATOM     13  N   UNL     1       1.919  14.928  19.973  0.00  0.00    +0.000 N 
ATOM     14  C   UNL     1       2.651  16.105  19.886  0.00  0.00    +0.000 C 
ATOM     15  O   UNL     1       2.089  17.195  19.764  0.00  0.00    +0.000 OA
ATOM     16  C   UNL     1       2.471  13.572  20.064  0.00  0.00    +0.000 C 
ATOM     17  C   UNL     1       2.016  12.764  18.840  0.00  0.00    +0.000 C 
BRANCH  14  18
ATOM     18  C   UNL     1       4.179  16.016  20.016  0.00  0.00    +0.000 C 
ATOM     19  C   UNL     1       4.711  16.571  21.333  0.00  0.00    +0.000 C 
ATOM     20  C   UNL     1       5.088  18.001  21.004  0.00  0.00    +0.000 C 
ATOM     21  N   UNL     1       5.598  17.960  19.633  0.00  0.00    +0.000 NA
ATOM     22  C   UNL     1       4.927  16.839  18.967  0.00  0.00    +0.000 C 
ATOM     23  H   UNL     1       6.605  17.797  19.647  0.00  0.00    +0.000 HD
ENDBRANCH  14  18
ENDBRANCH   6   8
BRANCH   1  24
ATOM     24  C   UNL     1       2.974   7.810  17.746  0.00  0.00    +0.000 C 
BRANCH  24  27
ATOM     25  C   UNL     1       5.505   6.568  16.634  0.00  0.00    +0.000 C 
ATOM     26  C   UNL     1       4.405   5.696  17.153  0.00  0.00    +0.000 A 
ATOM     27  C   UNL     1       3.207   6.309  17.844  0.00  0.00    +0.000 A 
ATOM     28  N   UNL     1       2.270   5.601  18.404  0.00  0.00    +0.000 NA
ATOM     29  N   UNL     1       2.380   4.248  18.334  0.00  0.00    +0.000 N 
ATOM     30  C   UNL     1       3.321   3.551  17.625  0.00  0.00    +0.000 A 
ATOM     31  O   UNL     1       3.268   2.330  17.516  0.00  0.00    +0.000 OA
ATOM     32  C   UNL     1       4.410   4.355  17.022  0.00  0.00    +0.000 A 
ATOM     33  C   UNL     1       5.476   3.596  16.273  0.00  0.00    +0.000 C 
ATOM     34  H   UNL     1       1.626   3.702  18.741  0.00  0.00    +0.000 HD
ENDBRANCH  24  27
ENDBRANCH   1  24
TORSDOF 4
ENDMDL
MODEL 4
REMARK VINA RESULT:      -7.7      1.390      1.641
REMARK  Name = 
REMARK  6 active torsions:
REMARK  status: ('A' for Active; 'I' for Inactive)
REMARK    1  A    between atoms: C_1  and  C_2
REMARK    2  A    between atoms: C_3  and  C_4
REMARK    3  A    between atoms: C_4  and  C_5
REMARK    4  A    between atoms: C_10  and  C_11
REMARK    5  A    between atoms: C_17  and  C_19
REMARK    6  A    between atoms: C_31  and  C_32
REMARK                            x       y       z     vdW  Elec       q    Type
REMARK                         _______ _______ _______ _____ _____    ______ ____
ROOT
ATOM      1  C   UNL     1       1.840   8.147  19.035  0.00  0.00    +0.000 A 
ATOM      2  C   UNL     1       1.811   7.956  20.422  0.00  0.00    +0.000 A 
ATOM      3  C   UNL     1       1.116   8.855  21.239  0.00  0.00    +0.000 A 
ATOM      4  C   UNL     1       0.445   9.944  20.680  0.00  0.00    +0.000 A 
ATOM      5  F   UNL     1      -0.172  10.796  21.513  0.00  0.00    +0.000 F 
ATOM      6  C   UNL     1       0.439  10.148  19.300  0.00  0.00    +0.000 A 
ATOM      7  C   UNL     1       1.141   9.241  18.490  0.00  0.00    +0.000 A 
ENDROOT
BRANCH   6   8
ATOM      8  C   UNL     1      -0.092  11.425  18.747  0.00  0.00    +0.000 C 
ATOM      9  O   UNL     1      -1.286  11.460  18.452  0.00  0.00    +0.000 OA
ATOM     10  N   UNL     1       0.712  12.563  18.673  0.00  0.00    +0.000 N 
ATOM     11  C   UNL     1       0.093  13.877  18.415  0.00  0.00    +0.000 C 
ATOM     12  C   UNL     1       0.571  14.942  19.434  0.00  0.00    +0.000 C 
ATOM     13  N   UNL     1       2.031  14.893  19.656  0.00  0.00    +0.000 N 
ATOM     14  C   UNL     1       2.798  16.041  19.503  0.00  0.00    +0.000 C 
ATOM     15  O   UNL     1       2.280  17.118  19.207  0.00  0.00    +0.000 OA
ATOM     16  C   UNL     1       2.537  13.548  19.950  0.00  0.00    +0.000 C 
ATOM     17  C   UNL     1       2.171  12.611  18.790  0.00  0.00    +0.000 C 
BRANCH  14  18
ATOM     18  C   UNL     1       4.307  15.942  19.782  0.00  0.00    +0.000 C 
ATOM     19  C   UNL     1       4.707  16.475  21.154  0.00  0.00    +0.000 C 
ATOM     20  C   UNL     1       5.120  17.908  20.885  0.00  0.00    +0.000 C 
ATOM     21  N   UNL     1       5.763  17.885  19.570  0.00  0.00    +0.000 NA
ATOM     22  C   UNL     1       5.156  16.776  18.825  0.00  0.00    +0.000 C 
ATOM     23  H   UNL     1       6.763  17.716  19.682  0.00  0.00    +0.000 HD
ENDBRANCH  14  18
ENDBRANCH   6   8
BRANCH   1  24
ATOM     24  C   UNL     1       2.723   7.301  18.137  0.00  0.00    +0.000 C 
BRANCH  24  27
ATOM     25  C   UNL     1       4.861   5.602  19.451  0.00  0.00    +0.000 C 
ATOM     26  C   UNL     1       3.698   4.952  18.769  0.00  0.00    +0.000 A 
ATOM     27  C   UNL     1       2.554   5.792  18.242  0.00  0.00    +0.000 A 
ATOM     28  N   UNL     1       1.473   5.281  17.732  0.00  0.00    +0.000 NA
ATOM     29  N   UNL     1       1.395   3.926  17.656  0.00  0.00    +0.000 N 
ATOM     30  C   UNL     1       2.398   3.043  17.954  0.00  0.00    +0.000 A 
ATOM     31  O   UNL     1       2.281   1.841  17.734  0.00  0.00    +0.000 OA
ATOM     32  C   UNL     1       3.614   3.622  18.573  0.00  0.00    +0.000 A 
ATOM     33  C   UNL     1       4.709   2.655  18.944  0.00  0.00    +0.000 C 
ATOM     34  H   UNL     1       0.564   3.534  17.222  0.00  0.00    +0.000 HD
ENDBRANCH  24  27
ENDBRANCH   1  24
TORSDOF 4
ENDMDL
MODEL 5
REMARK VINA RESULT:      -7.5      4.180      5.994
REMARK  Name = 
REMARK  6 active torsions:
REMARK  status: ('A' for Active; 'I' for Inactive)
REMARK    1  A    between atoms: C_1  and  C_2
REMARK    2  A    between atoms: C_3  and  C_4
REMARK    3  A    between atoms: C_4  and  C_5
REMARK    4  A    between atoms: C_10  and  C_11
REMARK    5  A    between atoms: C_17  and  C_19
REMARK    6  A    between atoms: C_31  and  C_32
REMARK                            x       y       z     vdW  Elec       q    Type
REMARK                         _______ _______ _______ _____ _____    ______ ____
ROOT
ATOM      1  C   UNL     1       2.453   7.063  19.059  0.00  0.00    +0.000 A 
ATOM      2  C   UNL     1       2.667   7.618  17.793  0.00  0.00    +0.000 A 
ATOM      3  C   UNL     1       2.312   8.949  17.542  0.00  0.00    +0.000 A 
ATOM      4  C   UNL     1       1.749   9.732  18.552  0.00  0.00    +0.000 A 
ATOM      5  F   UNL     1       1.392  10.988  18.245  0.00  0.00    +0.000 F 
ATOM      6  C   UNL     1       1.543   9.211  19.829  0.00  0.00    +0.000 A 
ATOM      7  C   UNL     1       1.901   7.874  20.069  0.00  0.00    +0.000 A 
ENDROOT
BRANCH   6   8
ATOM      8  C   UNL     1       0.745   9.985  20.820  0.00  0.00    +0.000 C 
ATOM      9  O   UNL     1       1.324  10.371  21.835  0.00  0.00    +0.000 OA
ATOM     10  N   UNL     1      -0.575  10.349  20.550  0.00  0.00    +0.000 N 
ATOM     11  C   UNL     1      -1.239  11.362  21.393  0.00  0.00    +0.000 C 
ATOM     12  C   UNL     1      -1.912  12.463  20.538  0.00  0.00    +0.000 C 
ATOM     13  N   UNL     1      -2.667  11.907  19.396  0.00  0.00    +0.000 N 
ATOM     14  C   UNL     1      -4.001  12.247  19.209  0.00  0.00    +0.000 C 
ATOM     15  O   UNL     1      -4.569  13.032  19.970  0.00  0.00    +0.000 OA
ATOM     16  C   UNL     1      -1.900  10.946  18.596  0.00  0.00    +0.000 C 
ATOM     17  C   UNL     1      -1.437   9.797  19.503  0.00  0.00    +0.000 C 
BRANCH  14  18
ATOM     18  C   UNL     1      -4.728  11.668  17.986  0.00  0.00    +0.000 C 
ATOM     19  C   UNL     1      -5.723  12.638  17.356  0.00  0.00    +0.000 C 
ATOM     20  C   UNL     1      -7.049  12.265  17.988  0.00  0.00    +0.000 C 
ATOM     21  N   UNL     1      -7.004  10.812  18.153  0.00  0.00    +0.000 NA
ATOM     22  C   UNL     1      -5.591  10.450  18.312  0.00  0.00    +0.000 C 
ATOM     23  H   UNL     1      -7.381  10.361  17.320  0.00  0.00    +0.000 HD
ENDBRANCH  14  18
ENDBRANCH   6   8
BRANCH   1  24
ATOM     24  C   UNL     1       2.658   5.582  19.320  0.00  0.00    +0.000 C 
BRANCH  24  27
ATOM     25  C   UNL     1       5.672   5.606  19.637  0.00  0.00    +0.000 C 
ATOM     26  C   UNL     1       5.048   4.981  18.429  0.00  0.00    +0.000 A 
ATOM     27  C   UNL     1       3.545   4.833  18.335  0.00  0.00    +0.000 A 
ATOM     28  N   UNL     1       2.952   4.210  17.360  0.00  0.00    +0.000 NA
ATOM     29  N   UNL     1       3.735   3.694  16.376  0.00  0.00    +0.000 N 
ATOM     30  C   UNL     1       5.086   3.870  16.246  0.00  0.00    +0.000 A 
ATOM     31  O   UNL     1       5.692   3.473  15.256  0.00  0.00    +0.000 OA
ATOM     32  C   UNL     1       5.768   4.544  17.376  0.00  0.00    +0.000 A 
ATOM     33  C   UNL     1       7.262   4.707  17.265  0.00  0.00    +0.000 C 
ATOM     34  H   UNL     1       3.262   3.242  15.599  0.00  0.00    +0.000 HD
ENDBRANCH  24  27
ENDBRANCH   1  24
TORSDOF 4
ENDMDL
MODEL 6
REMARK VINA RESULT:      -7.5      5.034      7.964
REMARK  Name = 
REMARK  6 active torsions:
REMARK  status: ('A' for Active; 'I' for Inactive)
REMARK    1  A    between atoms: C_1  and  C_2
REMARK    2  A    between atoms: C_3  and  C_4
REMARK    3  A    between atoms: C_4  and  C_5
REMARK    4  A    between atoms: C_10  and  C_11
REMARK    5  A    between atoms: C_17  and  C_19
REMARK    6  A    between atoms: C_31  and  C_32
REMARK                            x       y       z     vdW  Elec       q    Type
REMARK                         _______ _______ _______ _____ _____    ______ ____
ROOT
ATOM      1  C   UNL     1      -1.462  12.398  22.807  0.00  0.00    +0.000 A 
ATOM      2  C   UNL     1      -1.337  11.052  23.170  0.00  0.00    +0.000 A 
ATOM      3  C   UNL     1      -0.514  10.198  22.427  0.00  0.00    +0.000 A 
ATOM      4  C   UNL     1       0.192  10.682  21.324  0.00  0.00    +0.000 A 
ATOM      5  F   UNL     1       0.935   9.811  20.624  0.00  0.00    +0.000 F 
ATOM      6  C   UNL     1       0.104  12.022  20.951  0.00  0.00    +0.000 A 
ATOM      7  C   UNL     1      -0.727  12.870  21.702  0.00  0.00    +0.000 A 
ENDROOT
BRANCH   6   8
ATOM      8  C   UNL     1       0.684  12.465  19.652  0.00  0.00    +0.000 C 
ATOM      9  O   UNL     1       0.094  12.130  18.626  0.00  0.00    +0.000 OA
ATOM     10  N   UNL     1       1.789  13.316  19.615  0.00  0.00    +0.000 N 
ATOM     11  C   UNL     1       2.154  13.981  18.348  0.00  0.00    +0.000 C 
ATOM     12  C   UNL     1       2.364  15.502  18.543  0.00  0.00    +0.000 C 
ATOM     13  N   UNL     1       3.166  15.811  19.746  0.00  0.00    +0.000 N 
ATOM     14  C   UNL     1       4.298  16.609  19.644  0.00  0.00    +0.000 C 
ATOM     15  O   UNL     1       4.640  17.093  18.564  0.00  0.00    +0.000 OA
ATOM     16  C   UNL     1       2.690  15.136  20.959  0.00  0.00    +0.000 C 
ATOM     17  C   UNL     1       2.698  13.619  20.722  0.00  0.00    +0.000 C 
BRANCH  14  18
ATOM     18  C   UNL     1       5.074  16.928  20.932  0.00  0.00    +0.000 C 
ATOM     19  C   UNL     1       5.609  18.355  20.981  0.00  0.00    +0.000 C 
ATOM     20  C   UNL     1       7.031  18.232  20.470  0.00  0.00    +0.000 C 
ATOM     21  N   UNL     1       7.511  16.943  20.970  0.00  0.00    +0.000 NA
ATOM     22  C   UNL     1       6.333  16.080  21.107  0.00  0.00    +0.000 C 
ATOM     23  H   UNL     1       7.949  17.072  21.882  0.00  0.00    +0.000 HD
ENDBRANCH  14  18
ENDBRANCH   6   8
BRANCH   1  24
ATOM     24  C   UNL     1      -2.475  13.308  23.474  0.00  0.00    +0.000 C 
BRANCH  24  27
ATOM     25  C   UNL     1      -4.254  13.604  21.039  0.00  0.00    +0.000 C 
ATOM     26  C   UNL     1      -4.824  13.109  22.331  0.00  0.00    +0.000 A 
ATOM     27  C   UNL     1      -3.916  12.818  23.505  0.00  0.00    +0.000 A 
ATOM     28  N   UNL     1      -4.338  12.292  24.617  0.00  0.00    +0.000 NA
ATOM     29  N   UNL     1      -5.665  12.019  24.718  0.00  0.00    +0.000 N 
ATOM     30  C   UNL     1      -6.629  12.355  23.805  0.00  0.00    +0.000 A 
ATOM     31  O   UNL     1      -7.821  12.181  24.038  0.00  0.00    +0.000 OA
ATOM     32  C   UNL     1      -6.144  12.916  22.523  0.00  0.00    +0.000 A 
ATOM     33  C   UNL     1      -7.192  13.253  21.493  0.00  0.00    +0.000 C 
ATOM     34  H   UNL     1      -5.994  11.643  25.603  0.00  0.00    +0.000 HD
ENDBRANCH  24  27
ENDBRANCH   1  24
TORSDOF 4
ENDMDL
MODEL 7
REMARK VINA RESULT:      -7.5      4.654      6.364
REMARK  Name = 
REMARK  6 active torsions:
REMARK  status: ('A' for Active; 'I' for Inactive)
REMARK    1  A    between atoms: C_1  and  C_2
REMARK    2  A    between atoms: C_3  and  C_4
REMARK    3  A    between atoms: C_4  and  C_5
REMARK    4  A    between atoms: C_10  and  C_11
REMARK    5  A    between atoms: C_17  and  C_19
REMARK    6  A    between atoms: C_31  and  C_32
REMARK                            x       y       z     vdW  Elec       q    Type
REMARK                         _______ _______ _______ _____ _____    ______ ____
ROOT
ATOM      1  C   UNL     1       1.064   9.326  19.741  0.00  0.00    +0.000 A 
ATOM      2  C   UNL     1       0.373   9.493  18.536  0.00  0.00    +0.000 A 
ATOM      3  C   UNL     1      -0.253  10.712  18.250  0.00  0.00    +0.000 A 
ATOM      4  C   UNL     1      -0.188  11.769  19.160  0.00  0.00    +0.000 A 
ATOM      5  F   UNL     1      -0.839  12.901  18.853  0.00  0.00    +0.000 F 
ATOM      6  C   UNL     1       0.511  11.638  20.359  0.00  0.00    +0.000 A 
ATOM      7  C   UNL     1       1.133  10.410  20.637  0.00  0.00    +0.000 A 
ENDROOT
BRANCH   6   8
ATOM      8  C   UNL     1       0.383  12.691  21.405  0.00  0.00    +0.000 C 
ATOM      9  O   UNL     1       1.345  13.440  21.573  0.00  0.00    +0.000 OA
ATOM     10  N   UNL     1      -0.820  12.883  22.085  0.00  0.00    +0.000 N 
ATOM     11  C   UNL     1      -1.018  14.109  22.883  0.00  0.00    +0.000 C 
ATOM     12  C   UNL     1      -2.363  14.798  22.544  0.00  0.00    +0.000 C 
ATOM     13  N   UNL     1      -3.482  13.837  22.458  0.00  0.00    +0.000 N 
ATOM     14  C   UNL     1      -4.633  14.037  23.208  0.00  0.00    +0.000 C 
ATOM     15  O   UNL     1      -4.755  15.024  23.935  0.00  0.00    +0.000 OA
ATOM     16  C   UNL     1      -3.198  12.678  21.603  0.00  0.00    +0.000 C 
ATOM     17  C   UNL     1      -1.952  11.957  22.137  0.00  0.00    +0.000 C 
BRANCH  14  18
ATOM     18  C   UNL     1      -5.780  13.026  23.053  0.00  0.00    +0.000 C 
ATOM     19  C   UNL     1      -6.935  13.543  22.201  0.00  0.00    +0.000 C 
ATOM     20  C   UNL     1      -7.917  14.100  23.212  0.00  0.00    +0.000 C 
ATOM     21  N   UNL     1      -7.821  13.214  24.373  0.00  0.00    +0.000 NA
ATOM     22  C   UNL     1      -6.459  12.670  24.375  0.00  0.00    +0.000 C 
ATOM     23  H   UNL     1      -8.494  12.453  24.278  0.00  0.00    +0.000 HD
ENDBRANCH  14  18
ENDBRANCH   6   8
BRANCH   1  24
ATOM     24  C   UNL     1       1.602   7.971  20.164  0.00  0.00    +0.000 C 
BRANCH  24  27
ATOM     25  C   UNL     1       1.706   4.945  20.280  0.00  0.00    +0.000 C 
ATOM     26  C   UNL     1       2.527   5.687  19.273  0.00  0.00    +0.000 A 
ATOM     27  C   UNL     1       2.368   7.183  19.111  0.00  0.00    +0.000 A 
ATOM     28  N   UNL     1       2.977   7.867  18.187  0.00  0.00    +0.000 NA
ATOM     29  N   UNL     1       3.810   7.191  17.353  0.00  0.00    +0.000 N 
ATOM     30  C   UNL     1       4.167   5.874  17.463  0.00  0.00    +0.000 A 
ATOM     31  O   UNL     1       5.025   5.379  16.739  0.00  0.00    +0.000 OA
ATOM     32  C   UNL     1       3.443   5.086  18.488  0.00  0.00    +0.000 A 
ATOM     33  C   UNL     1       3.797   3.624  18.593  0.00  0.00    +0.000 C 
ATOM     34  H   UNL     1       4.311   7.737  16.658  0.00  0.00    +0.000 HD
ENDBRANCH  24  27
ENDBRANCH   1  24
TORSDOF 4
ENDMDL
MODEL 8
REMARK VINA RESULT:      -7.4      2.411      8.691
REMARK  Name = 
REMARK  6 active torsions:
REMARK  status: ('A' for Active; 'I' for Inactive)
REMARK    1  A    between atoms: C_1  and  C_2
REMARK    2  A    between atoms: C_3  and  C_4
REMARK    3  A    between atoms: C_4  and  C_5
REMARK    4  A    between atoms: C_10  and  C_11
REMARK    5  A    between atoms: C_17  and  C_19
REMARK    6  A    between atoms: C_31  and  C_32
REMARK                            x       y       z     vdW  Elec       q    Type
REMARK                         _______ _______ _______ _____ _____    ______ ____
ROOT
ATOM      1  C   UNL     1       0.175  12.923  19.426  0.00  0.00    +0.000 A 
ATOM      2  C   UNL     1      -0.711  12.828  18.346  0.00  0.00    +0.000 A 
ATOM      3  C   UNL     1      -1.278  11.593  18.011  0.00  0.00    +0.000 A 
ATOM      4  C   UNL     1      -0.970  10.450  18.753  0.00  0.00    +0.000 A 
ATOM      5  F   UNL     1      -1.511   9.286  18.364  0.00  0.00    +0.000 F 
ATOM      6  C   UNL     1      -0.107  10.519  19.846  0.00  0.00    +0.000 A 
ATOM      7  C   UNL     1       0.458  11.763  20.172  0.00  0.00    +0.000 A 
ENDROOT
BRANCH   6   8
ATOM      8  C   UNL     1       0.378   9.263  20.482  0.00  0.00    +0.000 C 
ATOM      9  O   UNL     1      -0.292   8.801  21.405  0.00  0.00    +0.000 OA
ATOM     10  N   UNL     1       1.485   8.584  19.973  0.00  0.00    +0.000 N 
ATOM     11  C   UNL     1       1.760   7.203  20.417  0.00  0.00    +0.000 C 
ATOM     12  C   UNL     1       2.001   6.256  19.215  0.00  0.00    +0.000 C 
ATOM     13  N   UNL     1       2.894   6.850  18.200  0.00  0.00    +0.000 N 
ATOM     14  C   UNL     1       4.024   6.163  17.775  0.00  0.00    +0.000 C 
ATOM     15  O   UNL     1       4.288   5.042  18.214  0.00  0.00    +0.000 OA
ATOM     16  C   UNL     1       2.505   8.206  17.795  0.00  0.00    +0.000 C 
ATOM     17  C   UNL     1       2.479   9.110  19.035  0.00  0.00    +0.000 C 
BRANCH  14  18
ATOM     18  C   UNL     1       4.898   6.811  16.691  0.00  0.00    +0.000 C 
ATOM     19  C   UNL     1       5.225   5.873  15.533  0.00  0.00    +0.000 C 
ATOM     20  C   UNL     1       6.576   5.293  15.901  0.00  0.00    +0.000 C 
ATOM     21  N   UNL     1       7.294   6.378  16.570  0.00  0.00    +0.000 NA
ATOM     22  C   UNL     1       6.278   7.232  17.195  0.00  0.00    +0.000 C 
ATOM     23  H   UNL     1       7.818   6.918  15.881  0.00  0.00    +0.000 HD
ENDBRANCH  14  18
ENDBRANCH   6   8
BRANCH   1  24
ATOM     24  C   UNL     1       0.943  14.200  19.710  0.00  0.00    +0.000 C 
BRANCH  24  27
ATOM     25  C   UNL     1       3.131  14.792  21.722  0.00  0.00    +0.000 C 
ATOM     26  C   UNL     1       3.461  14.668  20.268  0.00  0.00    +0.000 A 
ATOM     27  C   UNL     1       2.403  14.227  19.279  0.00  0.00    +0.000 A 
ATOM     28  N   UNL     1       2.653  14.004  18.023  0.00  0.00    +0.000 NA
ATOM     29  N   UNL     1       3.926  14.205  17.591  0.00  0.00    +0.000 N 
ATOM     30  C   UNL     1       4.952  14.736  18.326  0.00  0.00    +0.000 A 
ATOM     31  O   UNL     1       6.037  14.999  17.816  0.00  0.00    +0.000 OA
ATOM     32  C   UNL     1       4.679  14.951  19.766  0.00  0.00    +0.000 A 
ATOM     33  C   UNL     1       5.813  15.498  20.595  0.00  0.00    +0.000 C 
ATOM     34  H   UNL     1       4.106  14.065  16.601  0.00  0.00    +0.000 HD
ENDBRANCH  24  27
ENDBRANCH   1  24
TORSDOF 4
ENDMDL
MODEL 9
REMARK VINA RESULT:      -7.4      2.567      9.447
REMARK  Name = 
REMARK  6 active torsions:
REMARK  status: ('A' for Active; 'I' for Inactive)
REMARK    1  A    between atoms: C_1  and  C_2
REMARK    2  A    between atoms: C_3  and  C_4
REMARK    3  A    between atoms: C_4  and  C_5
REMARK    4  A    between atoms: C_10  and  C_11
REMARK    5  A    between atoms: C_17  and  C_19
REMARK    6  A    between atoms: C_31  and  C_32
REMARK                            x       y       z     vdW  Elec       q    Type
REMARK                         _______ _______ _______ _____ _____    ______ ____
ROOT
ATOM      1  C   UNL     1      -0.221  12.870  19.722  0.00  0.00    +0.000 A 
ATOM      2  C   UNL     1      -0.789  12.778  18.446  0.00  0.00    +0.000 A 
ATOM      3  C   UNL     1      -1.050  11.522  17.883  0.00  0.00    +0.000 A 
ATOM      4  C   UNL     1      -0.751  10.356  18.590  0.00  0.00    +0.000 A 
ATOM      5  F   UNL     1      -0.985   9.181  17.988  0.00  0.00    +0.000 F 
ATOM      6  C   UNL     1      -0.204  10.418  19.871  0.00  0.00    +0.000 A 
ATOM      7  C   UNL     1       0.055  11.682  20.425  0.00  0.00    +0.000 A 
ENDROOT
BRANCH   6   8
ATOM      8  C   UNL     1       0.308   9.175  20.514  0.00  0.00    +0.000 C 
ATOM      9  O   UNL     1      -0.362   8.692  21.425  0.00  0.00    +0.000 OA
ATOM     10  N   UNL     1       1.444   8.531  20.022  0.00  0.00    +0.000 N 
ATOM     11  C   UNL     1       1.754   7.158  20.468  0.00  0.00    +0.000 C 
ATOM     12  C   UNL     1       2.043   6.221  19.270  0.00  0.00    +0.000 C 
ATOM     13  N   UNL     1       2.934   6.844  18.270  0.00  0.00    +0.000 N 
ATOM     14  C   UNL     1       4.091   6.192  17.864  0.00  0.00    +0.000 C 
ATOM     15  O   UNL     1       4.382   5.079  18.305  0.00  0.00    +0.000 OA
ATOM     16  C   UNL     1       2.511   8.188  17.860  0.00  0.00    +0.000 C 
ATOM     17  C   UNL     1       2.437   9.089  19.101  0.00  0.00    +0.000 C 
BRANCH  14  18
ATOM     18  C   UNL     1       4.963   6.868  16.794  0.00  0.00    +0.000 C 
ATOM     19  C   UNL     1       5.178   6.009  15.553  0.00  0.00    +0.000 C 
ATOM     20  C   UNL     1       6.500   5.314  15.812  0.00  0.00    +0.000 C 
ATOM     21  N   UNL     1       7.317   6.292  16.531  0.00  0.00    +0.000 NA
ATOM     22  C   UNL     1       6.387   7.157  17.266  0.00  0.00    +0.000 C 
ATOM     23  H   UNL     1       7.848   6.851  15.863  0.00  0.00    +0.000 HD
ENDBRANCH  14  18
ENDBRANCH   6   8
BRANCH   1  24
ATOM     24  C   UNL     1       0.237  14.199  20.290  0.00  0.00    +0.000 C 
BRANCH  24  27
ATOM     25  C   UNL     1       2.877  14.169  18.801  0.00  0.00    +0.000 C 
ATOM     26  C   UNL     1       1.950  15.336  18.665  0.00  0.00    +0.000 A 
ATOM     27  C   UNL     1       0.570  15.292  19.284  0.00  0.00    +0.000 A 
ATOM     28  N   UNL     1      -0.315  16.230  19.115  0.00  0.00    +0.000 NA
ATOM     29  N   UNL     1       0.044  17.303  18.362  0.00  0.00    +0.000 N 
ATOM     30  C   UNL     1       1.292  17.554  17.859  0.00  0.00    +0.000 A 
ATOM     31  O   UNL     1       1.557  18.612  17.297  0.00  0.00    +0.000 OA
ATOM     32  C   UNL     1       2.288  16.468  18.016  0.00  0.00    +0.000 A 
ATOM     33  C   UNL     1       3.656  16.715  17.431  0.00  0.00    +0.000 C 
ATOM     34  H   UNL     1      -0.639  18.049  18.266  0.00  0.00    +0.000 HD
ENDBRANCH  24  27
ENDBRANCH   1  24
TORSDOF 4
ENDMDL
