MODEL 1
REMARK VINA RESULT:      -7.0      0.000      0.000
REMARK  Name = 
REMARK  8 active torsions:
REMARK  status: ('A' for Active; 'I' for Inactive)
REMARK    1  A    between atoms: C_1  and  C_2
REMARK    2  A    between atoms: C_2  and  C_3
REMARK    3  A    between atoms: C_3  and  C_4
REMARK    4  A    between atoms: N_6  and  C_7
REMARK    5  A    between atoms: C_9  and  N_10
REMARK    6  A    between atoms: C_13  and  N_14
REMARK    7  A    between atoms: C_18  and  O_19
REMARK    8  A    between atoms: O_19  and  C_20
REMARK                            x       y       z     vdW  Elec       q    Type
REMARK                         _______ _______ _______ _____ _____    ______ ____
ROOT
ATOM      1  C   UNL     1       5.252   3.976  16.890  0.00  0.00    +0.000 A 
ATOM      2  C   UNL     1       3.885   3.660  16.847  0.00  0.00    +0.000 A 
ATOM      3  C   UNL     1       3.130   3.670  18.022  0.00  0.00    +0.000 A 
ATOM      4  C   UNL     1       3.728   4.000  19.234  0.00  0.00    +0.000 A 
ATOM      5  C   UNL     1       5.090   4.322  19.288  0.00  0.00    +0.000 A 
ATOM      6  C   UNL     1       5.856   4.308  18.115  0.00  0.00    +0.000 A 
ENDROOT
BRANCH   1   9
ATOM      7  C   UNL     1       6.099   4.943  14.815  0.00  0.00    +0.000 C 
ATOM      8  O   UNL     1       5.624   6.059  15.004  0.00  0.00    +0.000 OA
ATOM      9  N   UNL     1       6.006   3.886  15.704  0.00  0.00    +0.000 N 
ATOM     10  H   UNL     1       6.717   3.167  15.653  0.00  0.00    +0.000 HD
BRANCH   7  11
ATOM     11  C   UNL     1       6.858   4.617  13.549  0.00  0.00    +0.000 C 
BRANCH  11  13
ATOM     12  C   UNL     1       4.953   3.653  12.182  0.00  0.00    +0.000 C 
ATOM     13  C   UNL     1       6.290   3.381  12.860  0.00  0.00    +0.000 C 
ENDBRANCH  11  13
ENDBRANCH   7  11
ENDBRANCH   1   9
BRANCH   3  14
ATOM     14  N   UNL     1       1.726   3.353  17.938  0.00  0.00    +0.000 N 
ATOM     15  O   UNL     1       1.375   2.237  18.342  0.00  0.00    +0.000 OA
ATOM     16  O   UNL     1       0.991   4.208  17.431  0.00  0.00    +0.000 OA
ENDBRANCH   3  14
BRANCH   4  17
ATOM     17  N   UNL     1       2.978   3.941  20.468  0.00  0.00    +0.000 N 
ATOM     18  O   UNL     1       2.339   4.951  20.780  0.00  0.00    +0.000 OA
ATOM     19  O   UNL     1       2.979   2.861  21.076  0.00  0.00    +0.000 OA
ENDBRANCH   4  17
BRANCH   6  20
ATOM     20  O   UNL     1       7.183   4.599  18.287  0.00  0.00    +0.000 OA
ATOM     21  C   UNL     1       7.470   5.745  19.091  0.00  0.00    +0.000 C 
ENDBRANCH   6  20
TORSDOF 6
ENDMDL
MODEL 2
REMARK VINA RESULT:      -6.9      0.409      1.124
REMARK  Name = 
REMARK  8 active torsions:
REMARK  status: ('A' for Active; 'I' for Inactive)
REMARK    1  A    between atoms: C_1  and  C_2
REMARK    2  A    between atoms: C_2  and  C_3
REMARK    3  A    between atoms: C_3  and  C_4
REMARK    4  A    between atoms: N_6  and  C_7
REMARK    5  A    between atoms: C_9  and  N_10
REMARK    6  A    between atoms: C_13  and  N_14
REMARK    7  A    between atoms: C_18  and  O_19
REMARK    8  A    between atoms: O_19  and  C_20
REMARK                            x       y       z     vdW  Elec       q    Type
REMARK                         _______ _______ _______ _____ _____    ______ ____
ROOT
ATOM      1  C   UNL     1       5.127   3.926  17.083  0.00  0.00    +0.000 A 
ATOM      2  C   UNL     1       3.763   3.607  17.006  0.00  0.00    +0.000 A 
ATOM      3  C   UNL     1       2.974   3.640  18.158  0.00  0.00    +0.000 A 
ATOM      4  C   UNL     1       3.535   3.995  19.380  0.00  0.00    +0.000 A 
ATOM      5  C   UNL     1       4.894   4.322  19.468  0.00  0.00    +0.000 A 
ATOM      6  C   UNL     1       5.695   4.285  18.319  0.00  0.00    +0.000 A 
ENDROOT
BRANCH   1   9
ATOM      7  C   UNL     1       6.114   4.884  15.066  0.00  0.00    +0.000 C 
ATOM      8  O   UNL     1       5.710   6.025  15.269  0.00  0.00    +0.000 OA
ATOM      9  N   UNL     1       5.916   3.814  15.922  0.00  0.00    +0.000 N 
ATOM     10  H   UNL     1       6.577   3.048  15.876  0.00  0.00    +0.000 HD
BRANCH   7  11
ATOM     11  C   UNL     1       6.895   4.537  13.818  0.00  0.00    +0.000 C 
BRANCH  11  13
ATOM     12  C   UNL     1       6.912   3.146  11.698  0.00  0.00    +0.000 C 
ATOM     13  C   UNL     1       6.104   3.605  12.906  0.00  0.00    +0.000 C 
ENDBRANCH  11  13
ENDBRANCH   7  11
ENDBRANCH   1   9
BRANCH   3  14
ATOM     14  N   UNL     1       1.573   3.318  18.039  0.00  0.00    +0.000 N 
ATOM     15  O   UNL     1       0.846   4.160  17.496  0.00  0.00    +0.000 OA
ATOM     16  O   UNL     1       1.204   2.244  18.526  0.00  0.00    +0.000 OA
ENDBRANCH   3  14
BRANCH   4  17
ATOM     17  N   UNL     1       2.749   3.960  20.593  0.00  0.00    +0.000 N 
ATOM     18  O   UNL     1       2.799   2.920  21.259  0.00  0.00    +0.000 OA
ATOM     19  O   UNL     1       2.146   4.997  20.902  0.00  0.00    +0.000 OA
ENDBRANCH   4  17
BRANCH   6  20
ATOM     20  O   UNL     1       7.016   4.582  18.524  0.00  0.00    +0.000 OA
ATOM     21  C   UNL     1       7.347   5.972  18.531  0.00  0.00    +0.000 C 
ENDBRANCH   6  20
TORSDOF 6
ENDMDL
MODEL 3
REMARK VINA RESULT:      -6.9      3.003      6.151
REMARK  Name = 
REMARK  8 active torsions:
REMARK  status: ('A' for Active; 'I' for Inactive)
REMARK    1  A    between atoms: C_1  and  C_2
REMARK    2  A    between atoms: C_2  and  C_3
REMARK    3  A    between atoms: C_3  and  C_4
REMARK    4  A    between atoms: N_6  and  C_7
REMARK    5  A    between atoms: C_9  and  N_10
REMARK    6  A    between atoms: C_13  and  N_14
REMARK    7  A    between atoms: C_18  and  O_19
REMARK    8  A    between atoms: O_19  and  C_20
REMARK                            x       y       z     vdW  Elec       q    Type
REMARK                         _______ _______ _______ _____ _____    ______ ____
ROOT
ATOM      1  C   UNL     1       4.087   5.065  18.787  0.00  0.00    +0.000 A 
ATOM      2  C   UNL     1       5.400   4.598  18.950  0.00  0.00    +0.000 A 
ATOM      3  C   UNL     1       6.468   5.316  18.406  0.00  0.00    +0.000 A 
ATOM      4  C   UNL     1       6.233   6.496  17.708  0.00  0.00    +0.000 A 
ATOM      5  C   UNL     1       4.927   6.975  17.544  0.00  0.00    +0.000 A 
ATOM      6  C   UNL     1       3.850   6.258  18.081  0.00  0.00    +0.000 A 
ENDROOT
BRANCH   1   9
ATOM      7  C   UNL     1       2.368   3.358  18.491  0.00  0.00    +0.000 C 
ATOM      8  O   UNL     1       2.691   3.064  17.344  0.00  0.00    +0.000 OA
ATOM      9  N   UNL     1       3.023   4.286  19.282  0.00  0.00    +0.000 N 
ATOM     10  H   UNL     1       2.942   4.188  20.286  0.00  0.00    +0.000 HD
BRANCH   7  11
ATOM     11  C   UNL     1       1.183   2.704  19.165  0.00  0.00    +0.000 C 
BRANCH  11  13
ATOM     12  C   UNL     1       1.490   2.558  21.678  0.00  0.00    +0.000 C 
ATOM     13  C   UNL     1       0.888   3.342  20.519  0.00  0.00    +0.000 C 
ENDBRANCH  11  13
ENDBRANCH   7  11
ENDBRANCH   1   9
BRANCH   3  14
ATOM     14  N   UNL     1       7.804   4.813  18.605  0.00  0.00    +0.000 N 
ATOM     15  O   UNL     1       8.268   4.079  17.723  0.00  0.00    +0.000 OA
ATOM     16  O   UNL     1       8.365   5.124  19.662  0.00  0.00    +0.000 OA
ENDBRANCH   3  14
BRANCH   4  17
ATOM     17  N   UNL     1       7.320   7.209  17.075  0.00  0.00    +0.000 N 
ATOM     18  O   UNL     1       7.734   8.220  17.652  0.00  0.00    +0.000 OA
ATOM     19  O   UNL     1       7.794   6.711  16.045  0.00  0.00    +0.000 OA
ENDBRANCH   4  17
BRANCH   6  20
ATOM     20  O   UNL     1       2.615   6.793  17.828  0.00  0.00    +0.000 OA
ATOM     21  C   UNL     1       2.542   8.220  17.830  0.00  0.00    +0.000 C 
ENDBRANCH   6  20
TORSDOF 6
ENDMDL
MODEL 4
REMARK VINA RESULT:      -6.8      1.721      4.213
REMARK  Name = 
REMARK  8 active torsions:
REMARK  status: ('A' for Active; 'I' for Inactive)
REMARK    1  A    between atoms: C_1  and  C_2
REMARK    2  A    between atoms: C_2  and  C_3
REMARK    3  A    between atoms: C_3  and  C_4
REMARK    4  A    between atoms: N_6  and  C_7
REMARK    5  A    between atoms: C_9  and  N_10
REMARK    6  A    between atoms: C_13  and  N_14
REMARK    7  A    between atoms: C_18  and  O_19
REMARK    8  A    between atoms: O_19  and  C_20
REMARK                            x       y       z     vdW  Elec       q    Type
REMARK                         _______ _______ _______ _____ _____    ______ ____
ROOT
ATOM      1  C   UNL     1       5.166   5.082  18.277  0.00  0.00    +0.000 A 
ATOM      2  C   UNL     1       4.292   5.300  19.353  0.00  0.00    +0.000 A 
ATOM      3  C   UNL     1       3.150   4.508  19.495  0.00  0.00    +0.000 A 
ATOM      4  C   UNL     1       2.881   3.499  18.577  0.00  0.00    +0.000 A 
ATOM      5  C   UNL     1       3.748   3.267  17.502  0.00  0.00    +0.000 A 
ATOM      6  C   UNL     1       4.892   4.062  17.348  0.00  0.00    +0.000 A 
ENDROOT
BRANCH   1   9
ATOM      7  C   UNL     1       7.315   5.967  19.021  0.00  0.00    +0.000 C 
ATOM      8  O   UNL     1       7.429   5.208  19.978  0.00  0.00    +0.000 OA
ATOM      9  N   UNL     1       6.270   5.941  18.114  0.00  0.00    +0.000 N 
ATOM     10  H   UNL     1       6.441   6.313  17.188  0.00  0.00    +0.000 HD
BRANCH   7  11
ATOM     11  C   UNL     1       8.349   7.033  18.736  0.00  0.00    +0.000 C 
BRANCH  11  13
ATOM     12  C   UNL     1       8.329   9.473  18.045  0.00  0.00    +0.000 C 
ATOM     13  C   UNL     1       7.827   8.066  17.742  0.00  0.00    +0.000 C 
ENDBRANCH  11  13
ENDBRANCH   7  11
ENDBRANCH   1   9
BRANCH   3  14
ATOM     14  N   UNL     1       2.282   4.753  20.620  0.00  0.00    +0.000 N 
ATOM     15  O   UNL     1       1.515   5.721  20.541  0.00  0.00    +0.000 OA
ATOM     16  O   UNL     1       2.403   3.998  21.592  0.00  0.00    +0.000 OA
ENDBRANCH   3  14
BRANCH   4  17
ATOM     17  N   UNL     1       1.665   2.722  18.668  0.00  0.00    +0.000 N 
ATOM     18  O   UNL     1       1.712   1.692  19.350  0.00  0.00    +0.000 OA
ATOM     19  O   UNL     1       0.658   3.187  18.116  0.00  0.00    +0.000 OA
ENDBRANCH   4  17
BRANCH   6  20
ATOM     20  O   UNL     1       5.649   3.777  16.243  0.00  0.00    +0.000 OA
ATOM     21  C   UNL     1       5.351   4.538  15.071  0.00  0.00    +0.000 C 
ENDBRANCH   6  20
TORSDOF 6
ENDMDL
MODEL 5
REMARK VINA RESULT:      -6.7      2.901      6.342
REMARK  Name = 
REMARK  8 active torsions:
REMARK  status: ('A' for Active; 'I' for Inactive)
REMARK    1  A    between atoms: C_1  and  C_2
REMARK    2  A    between atoms: C_2  and  C_3
REMARK    3  A    between atoms: C_3  and  C_4
REMARK    4  A    between atoms: N_6  and  C_7
REMARK    5  A    between atoms: C_9  and  N_10
REMARK    6  A    between atoms: C_13  and  N_14
REMARK    7  A    between atoms: C_18  and  O_19
REMARK    8  A    between atoms: O_19  and  C_20
REMARK                            x       y       z     vdW  Elec       q    Type
REMARK                         _______ _______ _______ _____ _____    ______ ____
ROOT
ATOM      1  C   UNL     1       3.952   5.671  19.050  0.00  0.00    +0.000 A 
ATOM      2  C   UNL     1       5.230   5.149  19.301  0.00  0.00    +0.000 A 
ATOM      3  C   UNL     1       6.310   5.536  18.505  0.00  0.00    +0.000 A 
ATOM      4  C   UNL     1       6.124   6.444  17.468  0.00  0.00    +0.000 A 
ATOM      5  C   UNL     1       4.854   6.977  17.211  0.00  0.00    +0.000 A 
ATOM      6  C   UNL     1       3.764   6.588  18.000  0.00  0.00    +0.000 A 
ENDROOT
BRANCH   1   9
ATOM      7  C   UNL     1       2.050   4.179  19.386  0.00  0.00    +0.000 C 
ATOM      8  O   UNL     1       2.232   3.525  18.364  0.00  0.00    +0.000 OA
ATOM      9  N   UNL     1       2.867   5.209  19.819  0.00  0.00    +0.000 N 
ATOM     10  H   UNL     1       2.871   5.420  20.810  0.00  0.00    +0.000 HD
BRANCH   7  11
ATOM     11  C   UNL     1       0.874   3.903  20.296  0.00  0.00    +0.000 C 
BRANCH  11  13
ATOM     12  C   UNL     1       2.600   2.641  21.659  0.00  0.00    +0.000 C 
ATOM     13  C   UNL     1       1.145   2.715  21.213  0.00  0.00    +0.000 C 
ENDBRANCH  11  13
ENDBRANCH   7  11
ENDBRANCH   1   9
BRANCH   3  14
ATOM     14  N   UNL     1       7.611   4.989  18.801  0.00  0.00    +0.000 N 
ATOM     15  O   UNL     1       8.207   5.450  19.783  0.00  0.00    +0.000 OA
ATOM     16  O   UNL     1       8.045   4.130  18.024  0.00  0.00    +0.000 OA
ENDBRANCH   3  14
BRANCH   4  17
ATOM     17  N   UNL     1       7.216   6.796  16.588  0.00  0.00    +0.000 N 
ATOM     18  O   UNL     1       7.886   7.786  16.901  0.00  0.00    +0.000 OA
ATOM     19  O   UNL     1       7.436   6.037  15.634  0.00  0.00    +0.000 OA
ENDBRANCH   4  17
BRANCH   6  20
ATOM     20  O   UNL     1       2.563   7.138  17.639  0.00  0.00    +0.000 OA
ATOM     21  C   UNL     1       2.286   8.435  18.169  0.00  0.00    +0.000 C 
ENDBRANCH   6  20
TORSDOF 6
ENDMDL
MODEL 6
REMARK VINA RESULT:      -6.7      2.399      4.608
REMARK  Name = 
REMARK  8 active torsions:
REMARK  status: ('A' for Active; 'I' for Inactive)
REMARK    1  A    between atoms: C_1  and  C_2
REMARK    2  A    between atoms: C_2  and  C_3
REMARK    3  A    between atoms: C_3  and  C_4
REMARK    4  A    between atoms: N_6  and  C_7
REMARK    5  A    between atoms: C_9  and  N_10
REMARK    6  A    between atoms: C_13  and  N_14
REMARK    7  A    between atoms: C_18  and  O_19
REMARK    8  A    between atoms: O_19  and  C_20
REMARK                            x       y       z     vdW  Elec       q    Type
REMARK                         _______ _______ _______ _____ _____    ______ ____
ROOT
ATOM      1  C   UNL     1       5.713   6.080  17.212  0.00  0.00    +0.000 A 
ATOM      2  C   UNL     1       4.734   6.030  18.216  0.00  0.00    +0.000 A 
ATOM      3  C   UNL     1       3.930   4.896  18.348  0.00  0.00    +0.000 A 
ATOM      4  C   UNL     1       4.101   3.813  17.492  0.00  0.00    +0.000 A 
ATOM      5  C   UNL     1       5.078   3.849  16.490  0.00  0.00    +0.000 A 
ATOM      6  C   UNL     1       5.885   4.985  16.345  0.00  0.00    +0.000 A 
ENDROOT
BRANCH   1   9
ATOM      7  C   UNL     1       7.575   7.533  17.828  0.00  0.00    +0.000 C 
ATOM      8  O   UNL     1       8.063   6.758  18.645  0.00  0.00    +0.000 OA
ATOM      9  N   UNL     1       6.462   7.262  17.052  0.00  0.00    +0.000 N 
ATOM     10  H   UNL     1       6.366   7.763  16.177  0.00  0.00    +0.000 HD
BRANCH   7  11
ATOM     11  C   UNL     1       8.175   8.900  17.586  0.00  0.00    +0.000 C 
BRANCH  11  13
ATOM     12  C   UNL     1       9.371  10.862  18.660  0.00  0.00    +0.000 C 
ATOM     13  C   UNL     1       8.871   9.433  18.835  0.00  0.00    +0.000 C 
ENDBRANCH  11  13
ENDBRANCH   7  11
ENDBRANCH   1   9
BRANCH   3  14
ATOM     14  N   UNL     1       2.943   4.875  19.400  0.00  0.00    +0.000 N 
ATOM     15  O   UNL     1       1.903   5.520  19.211  0.00  0.00    +0.000 OA
ATOM     16  O   UNL     1       3.233   4.246  20.423  0.00  0.00    +0.000 OA
ENDBRANCH   3  14
BRANCH   4  17
ATOM     17  N   UNL     1       3.225   2.666  17.569  0.00  0.00    +0.000 N 
ATOM     18  O   UNL     1       3.652   1.679  18.178  0.00  0.00    +0.000 OA
ATOM     19  O   UNL     1       2.094   2.788  17.080  0.00  0.00    +0.000 OA
ENDBRANCH   4  17
BRANCH   6  20
ATOM     20  O   UNL     1       6.780   4.932  15.310  0.00  0.00    +0.000 OA
ATOM     21  C   UNL     1       6.400   4.116  14.200  0.00  0.00    +0.000 C 
ENDBRANCH   6  20
TORSDOF 6
ENDMDL
MODEL 7
REMARK VINA RESULT:      -6.7      2.940      6.232
REMARK  Name = 
REMARK  8 active torsions:
REMARK  status: ('A' for Active; 'I' for Inactive)
REMARK    1  A    between atoms: C_1  and  C_2
REMARK    2  A    between atoms: C_2  and  C_3
REMARK    3  A    between atoms: C_3  and  C_4
REMARK    4  A    between atoms: N_6  and  C_7
REMARK    5  A    between atoms: C_9  and  N_10
REMARK    6  A    between atoms: C_13  and  N_14
REMARK    7  A    between atoms: C_18  and  O_19
REMARK    8  A    between atoms: O_19  and  C_20
REMARK                            x       y       z     vdW  Elec       q    Type
REMARK                         _______ _______ _______ _____ _____    ______ ____
ROOT
ATOM      1  C   UNL     1       4.207   5.191  19.226  0.00  0.00    +0.000 A 
ATOM      2  C   UNL     1       5.539   4.779  19.387  0.00  0.00    +0.000 A 
ATOM      3  C   UNL     1       6.532   5.291  18.549  0.00  0.00    +0.000 A 
ATOM      4  C   UNL     1       6.207   6.214  17.561  0.00  0.00    +0.000 A 
ATOM      5  C   UNL     1       4.882   6.638  17.395  0.00  0.00    +0.000 A 
ATOM      6  C   UNL     1       3.878   6.124  18.226  0.00  0.00    +0.000 A 
ENDROOT
BRANCH   1   9
ATOM      7  C   UNL     1       3.127   3.235  20.207  0.00  0.00    +0.000 C 
ATOM      8  O   UNL     1       3.932   2.422  19.764  0.00  0.00    +0.000 OA
ATOM      9  N   UNL     1       3.214   4.605  20.034  0.00  0.00    +0.000 N 
ATOM     10  H   UNL     1       2.760   5.195  20.721  0.00  0.00    +0.000 HD
BRANCH   7  11
ATOM     11  C   UNL     1       1.928   2.792  21.016  0.00  0.00    +0.000 C 
BRANCH  11  13
ATOM     12  C   UNL     1       0.627   2.467  18.864  0.00  0.00    +0.000 C 
ATOM     13  C   UNL     1       0.624   3.054  20.270  0.00  0.00    +0.000 C 
ENDBRANCH  11  13
ENDBRANCH   7  11
ENDBRANCH   1   9
BRANCH   3  14
ATOM     14  N   UNL     1       7.892   4.855  18.752  0.00  0.00    +0.000 N 
ATOM     15  O   UNL     1       8.479   5.287  19.752  0.00  0.00    +0.000 OA
ATOM     16  O   UNL     1       8.375   4.115  17.887  0.00  0.00    +0.000 OA
ENDBRANCH   3  14
BRANCH   4  17
ATOM     17  N   UNL     1       7.210   6.695  16.639  0.00  0.00    +0.000 N 
ATOM     18  O   UNL     1       7.397   6.022  15.619  0.00  0.00    +0.000 OA
ATOM     19  O   UNL     1       7.752   7.776  16.909  0.00  0.00    +0.000 OA
ENDBRANCH   4  17
BRANCH   6  20
ATOM     20  O   UNL     1       2.614   6.574  17.953  0.00  0.00    +0.000 OA
ATOM     21  C   UNL     1       2.438   7.992  17.978  0.00  0.00    +0.000 C 
ENDBRANCH   6  20
TORSDOF 6
ENDMDL
MODEL 8
REMARK VINA RESULT:      -6.6      2.869      4.250
REMARK  Name = 
REMARK  8 active torsions:
REMARK  status: ('A' for Active; 'I' for Inactive)
REMARK    1  A    between atoms: C_1  and  C_2
REMARK    2  A    between atoms: C_2  and  C_3
REMARK    3  A    between atoms: C_3  and  C_4
REMARK    4  A    between atoms: N_6  and  C_7
REMARK    5  A    between atoms: C_9  and  N_10
REMARK    6  A    between atoms: C_13  and  N_14
REMARK    7  A    between atoms: C_18  and  O_19
REMARK    8  A    between atoms: O_19  and  C_20
REMARK                            x       y       z     vdW  Elec       q    Type
REMARK                         _______ _______ _______ _____ _____    ______ ____
ROOT
ATOM      1  C   UNL     1       4.810   5.450  18.116  0.00  0.00    +0.000 A 
ATOM      2  C   UNL     1       4.857   4.143  18.623  0.00  0.00    +0.000 A 
ATOM      3  C   UNL     1       3.671   3.467  18.918  0.00  0.00    +0.000 A 
ATOM      4  C   UNL     1       2.443   4.085  18.705  0.00  0.00    +0.000 A 
ATOM      5  C   UNL     1       2.383   5.388  18.195  0.00  0.00    +0.000 A 
ATOM      6  C   UNL     1       3.568   6.075  17.902  0.00  0.00    +0.000 A 
ENDROOT
BRANCH   1   9
ATOM      7  C   UNL     1       7.051   6.116  18.819  0.00  0.00    +0.000 C 
ATOM      8  O   UNL     1       7.053   5.449  19.850  0.00  0.00    +0.000 OA
ATOM      9  N   UNL     1       6.020   6.136  17.895  0.00  0.00    +0.000 N 
ATOM     10  H   UNL     1       6.250   6.387  16.942  0.00  0.00    +0.000 HD
BRANCH   7  11
ATOM     11  C   UNL     1       8.221   7.003  18.455  0.00  0.00    +0.000 C 
BRANCH  11  13
ATOM     12  C   UNL     1       8.454   9.509  18.150  0.00  0.00    +0.000 C 
ATOM     13  C   UNL     1       7.767   8.234  17.677  0.00  0.00    +0.000 C 
ENDBRANCH  11  13
ENDBRANCH   7  11
ENDBRANCH   1   9
BRANCH   3  14
ATOM     14  N   UNL     1       3.757   2.120  19.425  0.00  0.00    +0.000 N 
ATOM     15  O   UNL     1       3.979   1.986  20.636  0.00  0.00    +0.000 OA
ATOM     16  O   UNL     1       3.642   1.206  18.601  0.00  0.00    +0.000 OA
ENDBRANCH   3  14
BRANCH   4  17
ATOM     17  N   UNL     1       1.211   3.427  19.078  0.00  0.00    +0.000 N 
ATOM     18  O   UNL     1       0.752   3.694  20.194  0.00  0.00    +0.000 OA
ATOM     19  O   UNL     1       0.678   2.706  18.224  0.00  0.00    +0.000 OA
ENDBRANCH   4  17
BRANCH   6  20
ATOM     20  O   UNL     1       3.397   7.355  17.446  0.00  0.00    +0.000 OA
ATOM     21  C   UNL     1       2.441   8.146  18.154  0.00  0.00    +0.000 C 
ENDBRANCH   6  20
TORSDOF 6
ENDMDL
MODEL 9
REMARK VINA RESULT:      -6.6      1.947      4.047
REMARK  Name = 
REMARK  8 active torsions:
REMARK  status: ('A' for Active; 'I' for Inactive)
REMARK    1  A    between atoms: C_1  and  C_2
REMARK    2  A    between atoms: C_2  and  C_3
REMARK    3  A    between atoms: C_3  and  C_4
REMARK    4  A    between atoms: N_6  and  C_7
REMARK    5  A    between atoms: C_9  and  N_10
REMARK    6  A    between atoms: C_13  and  N_14
REMARK    7  A    between atoms: C_18  and  O_19
REMARK    8  A    between atoms: O_19  and  C_20
REMARK                            x       y       z     vdW  Elec       q    Type
REMARK                         _______ _______ _______ _____ _____    ______ ____
ROOT
ATOM      1  C   UNL     1       5.434   5.110  18.506  0.00  0.00    +0.000 A 
ATOM      2  C   UNL     1       4.493   5.299  19.529  0.00  0.00    +0.000 A 
ATOM      3  C   UNL     1       3.306   4.563  19.530  0.00  0.00    +0.000 A 
ATOM      4  C   UNL     1       3.057   3.638  18.522  0.00  0.00    +0.000 A 
ATOM      5  C   UNL     1       3.991   3.436  17.498  0.00  0.00    +0.000 A 
ATOM      6  C   UNL     1       5.182   4.175  17.486  0.00  0.00    +0.000 A 
ENDROOT
BRANCH   1   9
ATOM      7  C   UNL     1       6.727   6.975  17.608  0.00  0.00    +0.000 C 
ATOM      8  O   UNL     1       5.852   7.365  16.840  0.00  0.00    +0.000 OA
ATOM      9  N   UNL     1       6.589   5.916  18.488  0.00  0.00    +0.000 N 
ATOM     10  H   UNL     1       7.177   5.910  19.312  0.00  0.00    +0.000 HD
BRANCH   7  11
ATOM     11  C   UNL     1       8.080   7.648  17.663  0.00  0.00    +0.000 C 
BRANCH  11  13
ATOM     12  C   UNL     1       8.964   9.762  18.749  0.00  0.00    +0.000 C 
ATOM     13  C   UNL     1       7.946   9.163  17.787  0.00  0.00    +0.000 C 
ENDBRANCH  11  13
ENDBRANCH   7  11
ENDBRANCH   1   9
BRANCH   3  14
ATOM     14  N   UNL     1       2.369   4.775  20.605  0.00  0.00    +0.000 N 
ATOM     15  O   UNL     1       2.384   3.958  21.535  0.00  0.00    +0.000 OA
ATOM     16  O   UNL     1       1.598   5.734  20.492  0.00  0.00    +0.000 OA
ENDBRANCH   3  14
BRANCH   4  17
ATOM     17  N   UNL     1       1.801   2.925  18.467  0.00  0.00    +0.000 N 
ATOM     18  O   UNL     1       0.899   3.437  17.796  0.00  0.00    +0.000 OA
ATOM     19  O   UNL     1       1.752   1.827  19.038  0.00  0.00    +0.000 OA
ENDBRANCH   4  17
BRANCH   6  20
ATOM     20  O   UNL     1       6.005   3.928  16.420  0.00  0.00    +0.000 OA
ATOM     21  C   UNL     1       5.516   4.348  15.145  0.00  0.00    +0.000 C 
ENDBRANCH   6  20
TORSDOF 6
ENDMDL
