MODEL 1
REMARK VINA RESULT:      -6.2      0.000      0.000
REMARK  Name = 
REMARK  3 active torsions:
REMARK  status: ('A' for Active; 'I' for Inactive)
REMARK    1  A    between atoms: C_1  and  C_2
REMARK    2  A    between atoms: C_2  and  C_3
REMARK    3  A    between atoms: C_3  and  C_4
REMARK                            x       y       z     vdW  Elec       q    Type
REMARK                         _______ _______ _______ _____ _____    ______ ____
ROOT
ATOM      1  C   UNL     1       7.114   5.178  17.510  0.00  0.00    +0.000 C 
ATOM      2  N   UNL     1       7.740   4.583  16.313  0.00  0.00    +0.000 NA
ATOM      3  C   UNL     1       6.800   4.212  15.237  0.00  0.00    +0.000 C 
ATOM      4  C   UNL     1       5.347   4.698  15.364  0.00  0.00    +0.000 C 
ATOM      5  C   UNL     1       4.849   4.401  16.750  0.00  0.00    +0.000 A 
ATOM      6  C   UNL     1       3.544   3.977  17.004  0.00  0.00    +0.000 A 
ATOM      7  C   UNL     1       3.150   3.692  18.313  0.00  0.00    +0.000 A 
ATOM      8  C   UNL     1       4.057   3.831  19.365  0.00  0.00    +0.000 A 
ATOM      9  C   UNL     1       5.355   4.275  19.119  0.00  0.00    +0.000 A 
ATOM     10  C   UNL     1       5.754   4.580  17.811  0.00  0.00    +0.000 A 
ATOM     11  H   UNL     1       8.222   3.734  16.602  0.00  0.00    +0.000 HD
ENDROOT
BRANCH   1  12
ATOM     12  C   UNL     1       7.077   6.719  17.357  0.00  0.00    +0.000 C 
BRANCH  12  14
ATOM     13  C   UNL     1       8.152   8.932  17.925  0.00  0.00    +0.000 C 
ATOM     14  C   UNL     1       8.075   7.452  18.262  0.00  0.00    +0.000 C 
ENDBRANCH  12  14
ENDBRANCH   1  12
TORSDOF 2
ENDMDL
MODEL 2
REMARK VINA RESULT:      -6.2      2.629      5.215
REMARK  Name = 
REMARK  3 active torsions:
REMARK  status: ('A' for Active; 'I' for Inactive)
REMARK    1  A    between atoms: C_1  and  C_2
REMARK    2  A    between atoms: C_2  and  C_3
REMARK    3  A    between atoms: C_3  and  C_4
REMARK                            x       y       z     vdW  Elec       q    Type
REMARK                         _______ _______ _______ _____ _____    ______ ____
ROOT
ATOM      1  C   UNL     1       2.090   4.957  18.361  0.00  0.00    +0.000 C 
ATOM      2  N   UNL     1       1.460   3.752  17.788  0.00  0.00    +0.000 NA
ATOM      3  C   UNL     1       2.396   2.666  17.434  0.00  0.00    +0.000 C 
ATOM      4  C   UNL     1       3.849   2.797  17.917  0.00  0.00    +0.000 C 
ATOM      5  C   UNL     1       4.353   4.176  17.596  0.00  0.00    +0.000 A 
ATOM      6  C   UNL     1       5.657   4.418  17.166  0.00  0.00    +0.000 A 
ATOM      7  C   UNL     1       6.056   5.720  16.858  0.00  0.00    +0.000 A 
ATOM      8  C   UNL     1       5.153   6.777  16.979  0.00  0.00    +0.000 A 
ATOM      9  C   UNL     1       3.854   6.544  17.429  0.00  0.00    +0.000 A 
ATOM     10  C   UNL     1       3.451   5.243  17.757  0.00  0.00    +0.000 A 
ATOM     11  H   UNL     1       0.978   4.028  16.934  0.00  0.00    +0.000 HD
ENDROOT
BRANCH   1  12
ATOM     12  C   UNL     1       2.128   4.831  19.905  0.00  0.00    +0.000 C 
BRANCH  12  14
ATOM     13  C   UNL     1       1.534   2.857  21.363  0.00  0.00    +0.000 C 
ATOM     14  C   UNL     1       0.996   3.971  20.480  0.00  0.00    +0.000 C 
ENDBRANCH  12  14
ENDBRANCH   1  12
TORSDOF 2
ENDMDL
MODEL 3
REMARK VINA RESULT:      -6.2      2.816      3.802
REMARK  Name = 
REMARK  3 active torsions:
REMARK  status: ('A' for Active; 'I' for Inactive)
REMARK    1  A    between atoms: C_1  and  C_2
REMARK    2  A    between atoms: C_2  and  C_3
REMARK    3  A    between atoms: C_3  and  C_4
REMARK                            x       y       z     vdW  Elec       q    Type
REMARK                         _______ _______ _______ _____ _____    ______ ____
ROOT
ATOM      1  C   UNL     1       3.657   5.824  19.102  0.00  0.00    +0.000 C 
ATOM      2  N   UNL     1       5.053   5.450  18.805  0.00  0.00    +0.000 NA
ATOM      3  C   UNL     1       5.211   4.319  17.870  0.00  0.00    +0.000 C 
ATOM      4  C   UNL     1       3.956   3.828  17.131  0.00  0.00    +0.000 C 
ATOM      5  C   UNL     1       2.837   3.661  18.119  0.00  0.00    +0.000 A 
ATOM      6  C   UNL     1       1.919   2.613  18.045  0.00  0.00    +0.000 A 
ATOM      7  C   UNL     1       0.917   2.499  19.011  0.00  0.00    +0.000 A 
ATOM      8  C   UNL     1       0.832   3.429  20.047  0.00  0.00    +0.000 A 
ATOM      9  C   UNL     1       1.734   4.490  20.114  0.00  0.00    +0.000 A 
ATOM     10  C   UNL     1       2.731   4.624  19.140  0.00  0.00    +0.000 A 
ATOM     11  H   UNL     1       5.499   5.184  19.681  0.00  0.00    +0.000 HD
ENDROOT
BRANCH   1  12
ATOM     12  C   UNL     1       3.194   6.914  18.104  0.00  0.00    +0.000 C 
BRANCH  12  14
ATOM     13  C   UNL     1       1.982   9.104  17.773  0.00  0.00    +0.000 C 
ATOM     14  C   UNL     1       2.224   7.934  18.712  0.00  0.00    +0.000 C 
ENDBRANCH  12  14
ENDBRANCH   1  12
TORSDOF 2
ENDMDL
MODEL 4
REMARK VINA RESULT:      -6.2      2.067      3.283
REMARK  Name = 
REMARK  3 active torsions:
REMARK  status: ('A' for Active; 'I' for Inactive)
REMARK    1  A    between atoms: C_1  and  C_2
REMARK    2  A    between atoms: C_2  and  C_3
REMARK    3  A    between atoms: C_3  and  C_4
REMARK                            x       y       z     vdW  Elec       q    Type
REMARK                         _______ _______ _______ _____ _____    ______ ____
ROOT
ATOM      1  C   UNL     1       4.852   3.718  19.071  0.00  0.00    +0.000 C 
ATOM      2  N   UNL     1       4.871   3.458  17.618  0.00  0.00    +0.000 NA
ATOM      3  C   UNL     1       3.609   3.755  16.913  0.00  0.00    +0.000 C 
ATOM      4  C   UNL     1       2.524   4.517  17.692  0.00  0.00    +0.000 C 
ATOM      5  C   UNL     1       2.344   3.877  19.039  0.00  0.00    +0.000 A 
ATOM      6  C   UNL     1       1.095   3.738  19.645  0.00  0.00    +0.000 A 
ATOM      7  C   UNL     1       0.992   3.110  20.887  0.00  0.00    +0.000 A 
ATOM      8  C   UNL     1       2.134   2.621  21.523  0.00  0.00    +0.000 A 
ATOM      9  C   UNL     1       3.387   2.776  20.933  0.00  0.00    +0.000 A 
ATOM     10  C   UNL     1       3.503   3.421  19.695  0.00  0.00    +0.000 A 
ATOM     11  H   UNL     1       5.071   2.469  17.480  0.00  0.00    +0.000 HD
ENDROOT
BRANCH   1  12
ATOM     12  C   UNL     1       5.337   5.164  19.340  0.00  0.00    +0.000 C 
BRANCH  12  14
ATOM     13  C   UNL     1       7.780   5.780  19.178  0.00  0.00    +0.000 C 
ATOM     14  C   UNL     1       6.476   5.613  18.416  0.00  0.00    +0.000 C 
ENDBRANCH  12  14
ENDBRANCH   1  12
TORSDOF 2
ENDMDL
MODEL 5
REMARK VINA RESULT:      -6.1      3.265      5.452
REMARK  Name = 
REMARK  3 active torsions:
REMARK  status: ('A' for Active; 'I' for Inactive)
REMARK    1  A    between atoms: C_1  and  C_2
REMARK    2  A    between atoms: C_2  and  C_3
REMARK    3  A    between atoms: C_3  and  C_4
REMARK                            x       y       z     vdW  Elec       q    Type
REMARK                         _______ _______ _______ _____ _____    ______ ____
ROOT
ATOM      1  C   UNL     1       1.595   3.004  18.244  0.00  0.00    +0.000 C 
ATOM      2  N   UNL     1       2.185   1.746  17.748  0.00  0.00    +0.000 NA
ATOM      3  C   UNL     1       3.590   1.518  18.139  0.00  0.00    +0.000 C 
ATOM      4  C   UNL     1       4.193   2.458  19.196  0.00  0.00    +0.000 C 
ATOM      5  C   UNL     1       3.877   3.880  18.828  0.00  0.00    +0.000 A 
ATOM      6  C   UNL     1       4.784   4.923  19.011  0.00  0.00    +0.000 A 
ATOM      7  C   UNL     1       4.439   6.219  18.624  0.00  0.00    +0.000 A 
ATOM      8  C   UNL     1       3.190   6.472  18.056  0.00  0.00    +0.000 A 
ATOM      9  C   UNL     1       2.270   5.437  17.891  0.00  0.00    +0.000 A 
ATOM     10  C   UNL     1       2.601   4.137  18.293  0.00  0.00    +0.000 A 
ATOM     11  H   UNL     1       2.152   1.765  16.730  0.00  0.00    +0.000 HD
ENDROOT
BRANCH   1  12
ATOM     12  C   UNL     1       0.908   2.746  19.608  0.00  0.00    +0.000 C 
BRANCH  12  14
ATOM     13  C   UNL     1       1.947   3.349  21.828  0.00  0.00    +0.000 C 
ATOM     14  C   UNL     1       1.149   3.856  20.638  0.00  0.00    +0.000 C 
ENDBRANCH  12  14
ENDBRANCH   1  12
TORSDOF 2
ENDMDL
MODEL 6
REMARK VINA RESULT:      -6.0      3.135      5.528
REMARK  Name = 
REMARK  3 active torsions:
REMARK  status: ('A' for Active; 'I' for Inactive)
REMARK    1  A    between atoms: C_1  and  C_2
REMARK    2  A    between atoms: C_2  and  C_3
REMARK    3  A    between atoms: C_3  and  C_4
REMARK                            x       y       z     vdW  Elec       q    Type
REMARK                         _______ _______ _______ _____ _____    ______ ____
ROOT
ATOM      1  C   UNL     1       2.689   5.099  20.141  0.00  0.00    +0.000 C 
ATOM      2  N   UNL     1       2.140   6.348  20.705  0.00  0.00    +0.000 NA
ATOM      3  C   UNL     1       2.117   7.495  19.777  0.00  0.00    +0.000 C 
ATOM      4  C   UNL     1       2.421   7.216  18.296  0.00  0.00    +0.000 C 
ATOM      5  C   UNL     1       3.656   6.366  18.198  0.00  0.00    +0.000 A 
ATOM      6  C   UNL     1       4.613   6.543  17.199  0.00  0.00    +0.000 A 
ATOM      7  C   UNL     1       5.753   5.738  17.180  0.00  0.00    +0.000 A 
ATOM      8  C   UNL     1       5.937   4.758  18.156  0.00  0.00    +0.000 A 
ATOM      9  C   UNL     1       4.973   4.562  19.144  0.00  0.00    +0.000 A 
ATOM     10  C   UNL     1       3.818   5.353  19.161  0.00  0.00    +0.000 A 
ATOM     11  H   UNL     1       2.718   6.613  21.501  0.00  0.00    +0.000 HD
ENDROOT
BRANCH   1  12
ATOM     12  C   UNL     1       1.538   4.260  19.534  0.00  0.00    +0.000 C 
BRANCH  12  14
ATOM     13  C   UNL     1       2.053   2.893  21.593  0.00  0.00    +0.000 C 
ATOM     14  C   UNL     1       1.140   3.051  20.389  0.00  0.00    +0.000 C 
ENDBRANCH  12  14
ENDBRANCH   1  12
TORSDOF 2
ENDMDL
MODEL 7
REMARK VINA RESULT:      -6.0      2.734      4.529
REMARK  Name = 
REMARK  3 active torsions:
REMARK  status: ('A' for Active; 'I' for Inactive)
REMARK    1  A    between atoms: C_1  and  C_2
REMARK    2  A    between atoms: C_2  and  C_3
REMARK    3  A    between atoms: C_3  and  C_4
REMARK                            x       y       z     vdW  Elec       q    Type
REMARK                         _______ _______ _______ _____ _____    ______ ____
ROOT
ATOM      1  C   UNL     1       3.325   5.744  17.773  0.00  0.00    +0.000 C 
ATOM      2  N   UNL     1       2.929   7.158  17.929  0.00  0.00    +0.000 NA
ATOM      3  C   UNL     1       2.288   7.488  19.217  0.00  0.00    +0.000 C 
ATOM      4  C   UNL     1       2.327   6.421  20.323  0.00  0.00    +0.000 C 
ATOM      5  C   UNL     1       1.908   5.099  19.745  0.00  0.00    +0.000 A 
ATOM      6  C   UNL     1       1.122   4.187  20.449  0.00  0.00    +0.000 A 
ATOM      7  C   UNL     1       0.745   2.985  19.846  0.00  0.00    +0.000 A 
ATOM      8  C   UNL     1       1.153   2.696  18.543  0.00  0.00    +0.000 A 
ATOM      9  C   UNL     1       1.957   3.594  17.843  0.00  0.00    +0.000 A 
ATOM     10  C   UNL     1       2.356   4.794  18.447  0.00  0.00    +0.000 A 
ATOM     11  H   UNL     1       2.262   7.380  17.191  0.00  0.00    +0.000 HD
ENDROOT
BRANCH   1  12
ATOM     12  C   UNL     1       4.785   5.564  18.256  0.00  0.00    +0.000 C 
BRANCH  12  14
ATOM     13  C   UNL     1       5.174   4.482  16.009  0.00  0.00    +0.000 C 
ATOM     14  C   UNL     1       5.564   4.497  17.477  0.00  0.00    +0.000 C 
ENDBRANCH  12  14
ENDBRANCH   1  12
TORSDOF 2
ENDMDL
MODEL 8
REMARK VINA RESULT:      -6.0      2.163      3.377
REMARK  Name = 
REMARK  3 active torsions:
REMARK  status: ('A' for Active; 'I' for Inactive)
REMARK    1  A    between atoms: C_1  and  C_2
REMARK    2  A    between atoms: C_2  and  C_3
REMARK    3  A    between atoms: C_3  and  C_4
REMARK                            x       y       z     vdW  Elec       q    Type
REMARK                         _______ _______ _______ _____ _____    ______ ____
ROOT
ATOM      1  C   UNL     1       4.796   5.295  17.791  0.00  0.00    +0.000 C 
ATOM      2  N   UNL     1       4.420   6.671  17.408  0.00  0.00    +0.000 NA
ATOM      3  C   UNL     1       3.154   7.157  17.992  0.00  0.00    +0.000 C 
ATOM      4  C   UNL     1       2.511   6.307  19.100  0.00  0.00    +0.000 C 
ATOM      5  C   UNL     1       2.477   4.870  18.661  0.00  0.00    +0.000 A 
ATOM      6  C   UNL     1       1.405   4.023  18.942  0.00  0.00    +0.000 A 
ATOM      7  C   UNL     1       1.423   2.705  18.483  0.00  0.00    +0.000 A 
ATOM      8  C   UNL     1       2.509   2.234  17.745  0.00  0.00    +0.000 A 
ATOM      9  C   UNL     1       3.593   3.069  17.479  0.00  0.00    +0.000 A 
ATOM     10  C   UNL     1       3.592   4.388  17.951  0.00  0.00    +0.000 A 
ATOM     11  H   UNL     1       4.317   6.696  16.395  0.00  0.00    +0.000 HD
ENDROOT
BRANCH   1  12
ATOM     12  C   UNL     1       5.692   5.341  19.054  0.00  0.00    +0.000 C 
BRANCH  12  14
ATOM     13  C   UNL     1       7.586   4.615  17.552  0.00  0.00    +0.000 C 
ATOM     14  C   UNL     1       7.188   5.469  18.744  0.00  0.00    +0.000 C 
ENDBRANCH  12  14
ENDBRANCH   1  12
TORSDOF 2
ENDMDL
MODEL 9
REMARK VINA RESULT:      -6.0      2.516      5.156
REMARK  Name = 
REMARK  3 active torsions:
REMARK  status: ('A' for Active; 'I' for Inactive)
REMARK    1  A    between atoms: C_1  and  C_2
REMARK    2  A    between atoms: C_2  and  C_3
REMARK    3  A    between atoms: C_3  and  C_4
REMARK                            x       y       z     vdW  Elec       q    Type
REMARK                         _______ _______ _______ _____ _____    ______ ____
ROOT
ATOM      1  C   UNL     1       4.043   3.177  17.972  0.00  0.00    +0.000 C 
ATOM      2  N   UNL     1       4.131   3.534  19.402  0.00  0.00    +0.000 NA
ATOM      3  C   UNL     1       3.973   4.972  19.697  0.00  0.00    +0.000 C 
ATOM      4  C   UNL     1       3.496   5.883  18.555  0.00  0.00    +0.000 C 
ATOM      5  C   UNL     1       4.304   5.591  17.322  0.00  0.00    +0.000 A 
ATOM      6  C   UNL     1       4.716   6.589  16.440  0.00  0.00    +0.000 A 
ATOM      7  C   UNL     1       5.488   6.256  15.326  0.00  0.00    +0.000 A 
ATOM      8  C   UNL     1       5.847   4.927  15.093  0.00  0.00    +0.000 A 
ATOM      9  C   UNL     1       5.420   3.922  15.960  0.00  0.00    +0.000 A 
ATOM     10  C   UNL     1       4.630   4.245  17.070  0.00  0.00    +0.000 A 
ATOM     11  H   UNL     1       5.052   3.254  19.737  0.00  0.00    +0.000 HD
ENDROOT
BRANCH   1  12
ATOM     12  C   UNL     1       2.575   2.828  17.620  0.00  0.00    +0.000 C 
BRANCH  12  14
ATOM     13  C   UNL     1       0.676   2.839  19.283  0.00  0.00    +0.000 C 
ATOM     14  C   UNL     1       1.847   2.049  18.722  0.00  0.00    +0.000 C 
ENDBRANCH  12  14
ENDBRANCH   1  12
TORSDOF 2
ENDMDL
