MODEL 1
REMARK VINA RESULT:      -9.1      0.000      0.000
REMARK  Name = 
REMARK  10 active torsions:
REMARK  status: ('A' for Active; 'I' for Inactive)
REMARK    1  A    between atoms: C_1  and  O_2
REMARK    2  A    between atoms: O_2  and  C_3
REMARK    3  A    between atoms: C_3  and  C_5
REMARK    4  A    between atoms: C_5  and  C_6
REMARK    5  A    between atoms: N_12  and  C_13
REMARK    6  A    between atoms: C_13  and  C_14
REMARK    7  A    between atoms: N_16  and  C_17
REMARK    8  A    between atoms: C_20  and  C_21
REMARK    9  A    between atoms: C_25  and  C_26
REMARK   10  A    between atoms: C_30  and  C_31
REMARK                            x       y       z     vdW  Elec       q    Type
REMARK                         _______ _______ _______ _____ _____    ______ ____
ROOT
ATOM      1  C   UNL     1       3.464   6.766  18.080  0.00  0.00    +0.000 A 
ATOM      2  C   UNL     1       3.065   7.948  18.669  0.00  0.00    +0.000 A 
ATOM      3  N   UNL     1       2.071   7.647  19.568  0.00  0.00    +0.000 N 
ATOM      4  N   UNL     1       1.939   6.308  19.722  0.00  0.00    +0.000 NA
ATOM      5  C   UNL     1       2.802   5.756  18.847  0.00  0.00    +0.000 A 
ENDROOT
BRANCH   3   6
ATOM      6  C   UNL     1       1.250   8.575  20.277  0.00  0.00    +0.000 A 
ATOM      7  C   UNL     1       0.870   9.791  19.688  0.00  0.00    +0.000 A 
ATOM      8  C   UNL     1       0.131  10.731  20.413  0.00  0.00    +0.000 A 
ATOM      9  C   UNL     1      -0.253  10.469  21.730  0.00  0.00    +0.000 A 
ATOM     10  C   UNL     1      -0.957  11.517  22.541  0.00  0.00    +0.000 C 
ATOM     11  C   UNL     1       0.070   9.230  22.297  0.00  0.00    +0.000 A 
ATOM     12  C   UNL     1       0.816   8.286  21.578  0.00  0.00    +0.000 A 
ENDBRANCH   3   6
BRANCH   5  13
ATOM     13  C   UNL     1       2.960   4.300  18.758  0.00  0.00    +0.000 A 
ATOM     14  C   UNL     1       2.280   3.557  17.783  0.00  0.00    +0.000 A 
ATOM     15  C   UNL     1       2.441   2.170  17.710  0.00  0.00    +0.000 A 
ATOM     16  C   UNL     1       3.282   1.509  18.608  0.00  0.00    +0.000 A 
ATOM     17  C   UNL     1       3.971   2.226  19.587  0.00  0.00    +0.000 A 
ATOM     18  C   UNL     1       4.866   1.541  20.576  0.00  0.00    +0.000 C 
ATOM     19  C   UNL     1       3.784   3.617  19.670  0.00  0.00    +0.000 A 
ENDBRANCH   5  13
BRANCH   1  20
ATOM     20  C   UNL     1       4.355   6.647  16.875  0.00  0.00    +0.000 C 
BRANCH  20  27
ATOM     21  C   UNL     1       6.271   5.258  17.771  0.00  0.00    +0.000 C 
ATOM     22  C   UNL     1       7.490   4.538  17.141  0.00  0.00    +0.000 C 
ATOM     23  O   UNL     1       8.392   4.061  17.831  0.00  0.00    +0.000 OA
ATOM     24  N   UNL     1       7.595   4.494  15.781  0.00  0.00    +0.000 N 
ATOM     25  C   UNL     1       6.538   4.973  14.933  0.00  0.00    +0.000 C 
ATOM     26  C   UNL     1       5.190   4.708  15.594  0.00  0.00    +0.000 C 
ATOM     27  N   UNL     1       5.060   5.368  16.902  0.00  0.00    +0.000 NA
ATOM     28  H   UNL     1       8.420   4.050  15.397  0.00  0.00    +0.000 HD
BRANCH  21  29
ATOM     29  C   UNL     1       6.818   6.477  18.537  0.00  0.00    +0.000 C 
BRANCH  29  30
ATOM     30  C   UNL     1       7.768   7.347  17.746  0.00  0.00    +0.000 C 
ATOM     31  O   UNL     1       7.800   7.430  16.526  0.00  0.00    +0.000 OA
BRANCH  30  33
ATOM     32  C   UNL     1       8.513   9.507  18.345  0.00  0.00    +0.000 C 
ATOM     33  O   UNL     1       8.522   8.099  18.597  0.00  0.00    +0.000 OA
ENDBRANCH  30  33
ENDBRANCH  29  30
ENDBRANCH  21  29
ENDBRANCH  20  27
ENDBRANCH   1  20
TORSDOF 7
ENDMDL
MODEL 2
REMARK VINA RESULT:      -8.8      2.258      3.558
REMARK  Name = 
REMARK  10 active torsions:
REMARK  status: ('A' for Active; 'I' for Inactive)
REMARK    1  A    between atoms: C_1  and  O_2
REMARK    2  A    between atoms: O_2  and  C_3
REMARK    3  A    between atoms: C_3  and  C_5
REMARK    4  A    between atoms: C_5  and  C_6
REMARK    5  A    between atoms: N_12  and  C_13
REMARK    6  A    between atoms: C_13  and  C_14
REMARK    7  A    between atoms: N_16  and  C_17
REMARK    8  A    between atoms: C_20  and  C_21
REMARK    9  A    between atoms: C_25  and  C_26
REMARK   10  A    between atoms: C_30  and  C_31
REMARK                            x       y       z     vdW  Elec       q    Type
REMARK                         _______ _______ _______ _____ _____    ______ ____
ROOT
ATOM      1  C   UNL     1       2.994   7.181  17.909  0.00  0.00    +0.000 A 
ATOM      2  C   UNL     1       2.894   8.555  17.839  0.00  0.00    +0.000 A 
ATOM      3  N   UNL     1       1.909   8.944  18.714  0.00  0.00    +0.000 N 
ATOM      4  N   UNL     1       1.498   7.906  19.481  0.00  0.00    +0.000 NA
ATOM      5  C   UNL     1       2.170   6.831  19.026  0.00  0.00    +0.000 A 
ENDROOT
BRANCH   3   6
ATOM      6  C   UNL     1       1.349  10.251  18.846  0.00  0.00    +0.000 A 
ATOM      7  C   UNL     1       0.072  10.430  19.397  0.00  0.00    +0.000 A 
ATOM      8  C   UNL     1      -0.504  11.703  19.454  0.00  0.00    +0.000 A 
ATOM      9  C   UNL     1       0.188  12.818  18.976  0.00  0.00    +0.000 A 
ATOM     10  C   UNL     1      -0.470  14.167  18.944  0.00  0.00    +0.000 C 
ATOM     11  C   UNL     1       1.488  12.648  18.485  0.00  0.00    +0.000 A 
ATOM     12  C   UNL     1       2.069  11.375  18.420  0.00  0.00    +0.000 A 
ENDBRANCH   3   6
BRANCH   5  13
ATOM     13  C   UNL     1       2.003   5.514  19.651  0.00  0.00    +0.000 A 
ATOM     14  C   UNL     1       2.392   5.290  20.979  0.00  0.00    +0.000 A 
ATOM     15  C   UNL     1       2.226   4.029  21.562  0.00  0.00    +0.000 A 
ATOM     16  C   UNL     1       1.672   2.979  20.827  0.00  0.00    +0.000 A 
ATOM     17  C   UNL     1       1.277   3.177  19.503  0.00  0.00    +0.000 A 
ATOM     18  C   UNL     1       0.696   2.064  18.683  0.00  0.00    +0.000 C 
ATOM     19  C   UNL     1       1.470   4.440  18.916  0.00  0.00    +0.000 A 
ENDBRANCH   5  13
BRANCH   1  20
ATOM     20  C   UNL     1       3.770   6.311  16.961  0.00  0.00    +0.000 C 
BRANCH  20  27
ATOM     21  C   UNL     1       6.121   5.496  16.500  0.00  0.00    +0.000 C 
ATOM     22  C   UNL     1       7.131   4.588  17.246  0.00  0.00    +0.000 C 
ATOM     23  O   UNL     1       8.172   4.200  16.716  0.00  0.00    +0.000 OA
ATOM     24  N   UNL     1       6.821   4.156  18.503  0.00  0.00    +0.000 N 
ATOM     25  C   UNL     1       5.654   4.635  19.193  0.00  0.00    +0.000 C 
ATOM     26  C   UNL     1       5.392   6.087  18.810  0.00  0.00    +0.000 C 
ATOM     27  N   UNL     1       5.173   6.262  17.366  0.00  0.00    +0.000 NA
ATOM     28  H   UNL     1       7.481   3.534  18.952  0.00  0.00    +0.000 HD
BRANCH  21  29
ATOM     29  C   UNL     1       5.624   4.702  15.278  0.00  0.00    +0.000 C 
BRANCH  29  30
ATOM     30  C   UNL     1       6.593   4.654  14.118  0.00  0.00    +0.000 C 
ATOM     31  O   UNL     1       7.407   5.524  13.842  0.00  0.00    +0.000 OA
BRANCH  30  33
ATOM     32  C   UNL     1       5.661   3.450  12.312  0.00  0.00    +0.000 C 
ATOM     33  O   UNL     1       6.488   3.454  13.480  0.00  0.00    +0.000 OA
ENDBRANCH  30  33
ENDBRANCH  29  30
ENDBRANCH  21  29
ENDBRANCH  20  27
ENDBRANCH   1  20
TORSDOF 7
ENDMDL
MODEL 3
REMARK VINA RESULT:      -8.8      1.900      3.078
REMARK  Name = 
REMARK  10 active torsions:
REMARK  status: ('A' for Active; 'I' for Inactive)
REMARK    1  A    between atoms: C_1  and  O_2
REMARK    2  A    between atoms: O_2  and  C_3
REMARK    3  A    between atoms: C_3  and  C_5
REMARK    4  A    between atoms: C_5  and  C_6
REMARK    5  A    between atoms: N_12  and  C_13
REMARK    6  A    between atoms: C_13  and  C_14
REMARK    7  A    between atoms: N_16  and  C_17
REMARK    8  A    between atoms: C_20  and  C_21
REMARK    9  A    between atoms: C_25  and  C_26
REMARK   10  A    between atoms: C_30  and  C_31
REMARK                            x       y       z     vdW  Elec       q    Type
REMARK                         _______ _______ _______ _____ _____    ______ ____
ROOT
ATOM      1  C   UNL     1       3.129   7.026  17.767  0.00  0.00    +0.000 A 
ATOM      2  C   UNL     1       2.948   8.365  18.046  0.00  0.00    +0.000 A 
ATOM      3  N   UNL     1       1.857   8.472  18.873  0.00  0.00    +0.000 N 
ATOM      4  N   UNL     1       1.438   7.253  19.291  0.00  0.00    +0.000 NA
ATOM      5  C   UNL     1       2.221   6.362  18.652  0.00  0.00    +0.000 A 
ENDROOT
BRANCH   3   6
ATOM      6  C   UNL     1       1.204   9.676  19.276  0.00  0.00    +0.000 A 
ATOM      7  C   UNL     1       0.353   9.690  20.391  0.00  0.00    +0.000 A 
ATOM      8  C   UNL     1      -0.344  10.852  20.738  0.00  0.00    +0.000 A 
ATOM      9  C   UNL     1      -0.196  12.019  19.986  0.00  0.00    +0.000 A 
ATOM     10  C   UNL     1      -1.021  13.235  20.296  0.00  0.00    +0.000 C 
ATOM     11  C   UNL     1       0.702  12.024  18.911  0.00  0.00    +0.000 A 
ATOM     12  C   UNL     1       1.400  10.862  18.556  0.00  0.00    +0.000 A 
ENDBRANCH   3   6
BRANCH   5  13
ATOM     13  C   UNL     1       2.077   4.922  18.890  0.00  0.00    +0.000 A 
ATOM     14  C   UNL     1       2.075   4.011  17.826  0.00  0.00    +0.000 A 
ATOM     15  C   UNL     1       1.937   2.640  18.068  0.00  0.00    +0.000 A 
ATOM     16  C   UNL     1       1.800   2.164  19.374  0.00  0.00    +0.000 A 
ATOM     17  C   UNL     1       1.800   3.051  20.450  0.00  0.00    +0.000 A 
ATOM     18  C   UNL     1       1.636   2.572  21.862  0.00  0.00    +0.000 C 
ATOM     19  C   UNL     1       1.914   4.430  20.197  0.00  0.00    +0.000 A 
ENDBRANCH   5  13
BRANCH   1  20
ATOM     20  C   UNL     1       4.051   6.468  16.720  0.00  0.00    +0.000 C 
BRANCH  20  27
ATOM     21  C   UNL     1       6.375   5.481  16.544  0.00  0.00    +0.000 C 
ATOM     22  C   UNL     1       7.260   4.593  17.456  0.00  0.00    +0.000 C 
ATOM     23  O   UNL     1       8.314   4.098  17.056  0.00  0.00    +0.000 OA
ATOM     24  N   UNL     1       6.818   4.301  18.714  0.00  0.00    +0.000 N 
ATOM     25  C   UNL     1       5.632   4.909  19.252  0.00  0.00    +0.000 C 
ATOM     26  C   UNL     1       5.497   6.330  18.718  0.00  0.00    +0.000 C 
ATOM     27  N   UNL     1       5.410   6.378  17.250  0.00  0.00    +0.000 NA
ATOM     28  H   UNL     1       7.398   3.689  19.274  0.00  0.00    +0.000 HD
BRANCH  21  29
ATOM     29  C   UNL     1       5.931   4.604  15.360  0.00  0.00    +0.000 C 
BRANCH  29  30
ATOM     30  C   UNL     1       6.775   4.749  14.113  0.00  0.00    +0.000 C 
ATOM     31  O   UNL     1       7.773   5.449  14.014  0.00  0.00    +0.000 OA
BRANCH  30  33
ATOM     32  C   UNL     1       7.115   3.837  11.961  0.00  0.00    +0.000 C 
ATOM     33  O   UNL     1       6.311   3.912  13.142  0.00  0.00    +0.000 OA
ENDBRANCH  30  33
ENDBRANCH  29  30
ENDBRANCH  21  29
ENDBRANCH  20  27
ENDBRANCH   1  20
TORSDOF 7
ENDMDL
MODEL 4
REMARK VINA RESULT:      -8.7      2.364      3.389
REMARK  Name = 
REMARK  10 active torsions:
REMARK  status: ('A' for Active; 'I' for Inactive)
REMARK    1  A    between atoms: C_1  and  O_2
REMARK    2  A    between atoms: O_2  and  C_3
REMARK    3  A    between atoms: C_3  and  C_5
REMARK    4  A    between atoms: C_5  and  C_6
REMARK    5  A    between atoms: N_12  and  C_13
REMARK    6  A    between atoms: C_13  and  C_14
REMARK    7  A    between atoms: N_16  and  C_17
REMARK    8  A    between atoms: C_20  and  C_21
REMARK    9  A    between atoms: C_25  and  C_26
REMARK   10  A    between atoms: C_30  and  C_31
REMARK                            x       y       z     vdW  Elec       q    Type
REMARK                         _______ _______ _______ _____ _____    ______ ____
ROOT
ATOM      1  C   UNL     1       3.108   7.042  17.734  0.00  0.00    +0.000 A 
ATOM      2  C   UNL     1       3.027   8.412  17.589  0.00  0.00    +0.000 A 
ATOM      3  N   UNL     1       2.021   8.856  18.412  0.00  0.00    +0.000 N 
ATOM      4  N   UNL     1       1.574   7.864  19.218  0.00  0.00    +0.000 NA
ATOM      5  C   UNL     1       2.247   6.760  18.842  0.00  0.00    +0.000 A 
ENDROOT
BRANCH   3   6
ATOM      6  C   UNL     1       1.474  10.174  18.458  0.00  0.00    +0.000 A 
ATOM      7  C   UNL     1       2.290  11.296  18.250  0.00  0.00    +0.000 A 
ATOM      8  C   UNL     1       1.767  12.587  18.372  0.00  0.00    +0.000 A 
ATOM      9  C   UNL     1       0.421  12.781  18.690  0.00  0.00    +0.000 A 
ATOM     10  C   UNL     1      -0.116  14.163  18.921  0.00  0.00    +0.000 C 
ATOM     11  C   UNL     1      -0.409  11.662  18.834  0.00  0.00    +0.000 A 
ATOM     12  C   UNL     1       0.110  10.365  18.719  0.00  0.00    +0.000 A 
ENDBRANCH   3   6
BRANCH   5  13
ATOM     13  C   UNL     1       2.045   5.480  19.529  0.00  0.00    +0.000 A 
ATOM     14  C   UNL     1       2.417   5.312  20.870  0.00  0.00    +0.000 A 
ATOM     15  C   UNL     1       2.219   4.087  21.512  0.00  0.00    +0.000 A 
ATOM     16  C   UNL     1       1.647   3.014  20.825  0.00  0.00    +0.000 A 
ATOM     17  C   UNL     1       1.267   3.155  19.490  0.00  0.00    +0.000 A 
ATOM     18  C   UNL     1       0.668   2.016  18.720  0.00  0.00    +0.000 C 
ATOM     19  C   UNL     1       1.493   4.383  18.843  0.00  0.00    +0.000 A 
ENDBRANCH   5  13
BRANCH   1  20
ATOM     20  C   UNL     1       3.901   6.115  16.856  0.00  0.00    +0.000 C 
BRANCH  20  27
ATOM     21  C   UNL     1       6.262   5.278  16.490  0.00  0.00    +0.000 C 
ATOM     22  C   UNL     1       7.326   4.581  17.375  0.00  0.00    +0.000 C 
ATOM     23  O   UNL     1       8.361   4.113  16.899  0.00  0.00    +0.000 OA
ATOM     24  N   UNL     1       7.072   4.425  18.707  0.00  0.00    +0.000 N 
ATOM     25  C   UNL     1       5.914   5.014  19.322  0.00  0.00    +0.000 C 
ATOM     26  C   UNL     1       5.592   6.341  18.644  0.00  0.00    +0.000 C 
ATOM     27  N   UNL     1       5.318   6.191  17.206  0.00  0.00    +0.000 NA
ATOM     28  H   UNL     1       7.768   3.933  19.253  0.00  0.00    +0.000 HD
BRANCH  21  29
ATOM     29  C   UNL     1       5.751   4.225  15.490  0.00  0.00    +0.000 C 
BRANCH  29  30
ATOM     30  C   UNL     1       6.331   4.339  14.099  0.00  0.00    +0.000 C 
ATOM     31  O   UNL     1       5.984   3.675  13.132  0.00  0.00    +0.000 OA
BRANCH  30  33
ATOM     32  C   UNL     1       8.033   5.425  12.872  0.00  0.00    +0.000 C 
ATOM     33  O   UNL     1       7.237   5.358  14.059  0.00  0.00    +0.000 OA
ENDBRANCH  30  33
ENDBRANCH  29  30
ENDBRANCH  21  29
ENDBRANCH  20  27
ENDBRANCH   1  20
TORSDOF 7
ENDMDL
MODEL 5
REMARK VINA RESULT:      -8.6      2.064      3.264
REMARK  Name = 
REMARK  10 active torsions:
REMARK  status: ('A' for Active; 'I' for Inactive)
REMARK    1  A    between atoms: C_1  and  O_2
REMARK    2  A    between atoms: O_2  and  C_3
REMARK    3  A    between atoms: C_3  and  C_5
REMARK    4  A    between atoms: C_5  and  C_6
REMARK    5  A    between atoms: N_12  and  C_13
REMARK    6  A    between atoms: C_13  and  C_14
REMARK    7  A    between atoms: N_16  and  C_17
REMARK    8  A    between atoms: C_20  and  C_21
REMARK    9  A    between atoms: C_25  and  C_26
REMARK   10  A    between atoms: C_30  and  C_31
REMARK                            x       y       z     vdW  Elec       q    Type
REMARK                         _______ _______ _______ _____ _____    ______ ____
ROOT
ATOM      1  C   UNL     1       2.827   7.123  18.255  0.00  0.00    +0.000 A 
ATOM      2  C   UNL     1       2.680   8.494  18.294  0.00  0.00    +0.000 A 
ATOM      3  N   UNL     1       1.702   8.780  19.215  0.00  0.00    +0.000 N 
ATOM      4  N   UNL     1       1.344   7.672  19.907  0.00  0.00    +0.000 NA
ATOM      5  C   UNL     1       2.042   6.660  19.358  0.00  0.00    +0.000 A 
ENDROOT
BRANCH   3   6
ATOM      6  C   UNL     1       1.102  10.052  19.459  0.00  0.00    +0.000 A 
ATOM      7  C   UNL     1       1.465  11.173  18.697  0.00  0.00    +0.000 A 
ATOM      8  C   UNL     1       0.933  12.432  18.988  0.00  0.00    +0.000 A 
ATOM      9  C   UNL     1       0.021  12.593  20.034  0.00  0.00    +0.000 A 
ATOM     10  C   UNL     1      -0.472  13.960  20.412  0.00  0.00    +0.000 C 
ATOM     11  C   UNL     1      -0.391  11.464  20.753  0.00  0.00    +0.000 A 
ATOM     12  C   UNL     1       0.143  10.200  20.470  0.00  0.00    +0.000 A 
ENDBRANCH   3   6
BRANCH   5  13
ATOM     13  C   UNL     1       1.934   5.294  19.883  0.00  0.00    +0.000 A 
ATOM     14  C   UNL     1       2.350   4.985  21.185  0.00  0.00    +0.000 A 
ATOM     15  C   UNL     1       2.241   3.679  21.672  0.00  0.00    +0.000 A 
ATOM     16  C   UNL     1       1.716   2.666  20.865  0.00  0.00    +0.000 A 
ATOM     17  C   UNL     1       1.294   2.949  19.566  0.00  0.00    +0.000 A 
ATOM     18  C   UNL     1       0.743   1.880  18.670  0.00  0.00    +0.000 C 
ATOM     19  C   UNL     1       1.430   4.259  19.074  0.00  0.00    +0.000 A 
ENDBRANCH   5  13
BRANCH   1  20
ATOM     20  C   UNL     1       3.611   6.357  17.227  0.00  0.00    +0.000 C 
BRANCH  20  27
ATOM     21  C   UNL     1       5.976   5.638  16.683  0.00  0.00    +0.000 C 
ATOM     22  C   UNL     1       6.979   4.623  17.288  0.00  0.00    +0.000 C 
ATOM     23  O   UNL     1       8.032   4.333  16.721  0.00  0.00    +0.000 OA
ATOM     24  N   UNL     1       6.648   3.987  18.450  0.00  0.00    +0.000 N 
ATOM     25  C   UNL     1       5.465   4.341  19.187  0.00  0.00    +0.000 C 
ATOM     26  C   UNL     1       5.201   5.836  19.044  0.00  0.00    +0.000 C 
ATOM     27  N   UNL     1       5.006   6.246  17.645  0.00  0.00    +0.000 NA
ATOM     28  H   UNL     1       7.305   3.302  18.802  0.00  0.00    +0.000 HD
BRANCH  21  29
ATOM     29  C   UNL     1       5.507   5.056  15.337  0.00  0.00    +0.000 C 
BRANCH  29  30
ATOM     30  C   UNL     1       6.612   4.811  14.335  0.00  0.00    +0.000 C 
ATOM     31  O   UNL     1       7.525   5.586  14.086  0.00  0.00    +0.000 OA
BRANCH  30  33
ATOM     32  C   UNL     1       6.355   3.492  12.393  0.00  0.00    +0.000 C 
ATOM     33  O   UNL     1       6.493   3.556  13.815  0.00  0.00    +0.000 OA
ENDBRANCH  30  33
ENDBRANCH  29  30
ENDBRANCH  21  29
ENDBRANCH  20  27
ENDBRANCH   1  20
TORSDOF 7
ENDMDL
MODEL 6
REMARK VINA RESULT:      -8.6      1.976      3.051
REMARK  Name = 
REMARK  10 active torsions:
REMARK  status: ('A' for Active; 'I' for Inactive)
REMARK    1  A    between atoms: C_1  and  O_2
REMARK    2  A    between atoms: O_2  and  C_3
REMARK    3  A    between atoms: C_3  and  C_5
REMARK    4  A    between atoms: C_5  and  C_6
REMARK    5  A    between atoms: N_12  and  C_13
REMARK    6  A    between atoms: C_13  and  C_14
REMARK    7  A    between atoms: N_16  and  C_17
REMARK    8  A    between atoms: C_20  and  C_21
REMARK    9  A    between atoms: C_25  and  C_26
REMARK   10  A    between atoms: C_30  and  C_31
REMARK                            x       y       z     vdW  Elec       q    Type
REMARK                         _______ _______ _______ _____ _____    ______ ____
ROOT
ATOM      1  C   UNL     1       3.395   7.015  17.488  0.00  0.00    +0.000 A 
ATOM      2  C   UNL     1       3.211   8.364  17.713  0.00  0.00    +0.000 A 
ATOM      3  N   UNL     1       2.060   8.508  18.449  0.00  0.00    +0.000 N 
ATOM      4  N   UNL     1       1.595   7.307  18.869  0.00  0.00    +0.000 NA
ATOM      5  C   UNL     1       2.413   6.389  18.320  0.00  0.00    +0.000 A 
ENDROOT
BRANCH   3   6
ATOM      6  C   UNL     1       1.394   9.731  18.764  0.00  0.00    +0.000 A 
ATOM      7  C   UNL     1       1.823  10.944  18.205  0.00  0.00    +0.000 A 
ATOM      8  C   UNL     1       1.218  12.149  18.574  0.00  0.00    +0.000 A 
ATOM      9  C   UNL     1       0.168  12.163  19.495  0.00  0.00    +0.000 A 
ATOM     10  C   UNL     1      -0.413  13.464  19.968  0.00  0.00    +0.000 C 
ATOM     11  C   UNL     1      -0.303  10.947  20.005  0.00  0.00    +0.000 A 
ATOM     12  C   UNL     1       0.303   9.736  19.643  0.00  0.00    +0.000 A 
ENDBRANCH   3   6
BRANCH   5  13
ATOM     13  C   UNL     1       2.232   4.958  18.589  0.00  0.00    +0.000 A 
ATOM     14  C   UNL     1       2.334   4.011  17.562  0.00  0.00    +0.000 A 
ATOM     15  C   UNL     1       2.160   2.650  17.833  0.00  0.00    +0.000 A 
ATOM     16  C   UNL     1       1.881   2.220  19.132  0.00  0.00    +0.000 A 
ATOM     17  C   UNL     1       1.775   3.143  20.173  0.00  0.00    +0.000 A 
ATOM     18  C   UNL     1       1.459   2.713  21.574  0.00  0.00    +0.000 C 
ATOM     19  C   UNL     1       1.927   4.511  19.887  0.00  0.00    +0.000 A 
ENDBRANCH   5  13
BRANCH   1  20
ATOM     20  C   UNL     1       4.388   6.415  16.533  0.00  0.00    +0.000 C 
BRANCH  20  27
ATOM     21  C   UNL     1       6.696   5.379  16.596  0.00  0.00    +0.000 C 
ATOM     22  C   UNL     1       7.495   4.547  17.631  0.00  0.00    +0.000 C 
ATOM     23  O   UNL     1       8.564   4.006  17.344  0.00  0.00    +0.000 OA
ATOM     24  N   UNL     1       6.961   4.356  18.872  0.00  0.00    +0.000 N 
ATOM     25  C   UNL     1       5.754   5.021  19.278  0.00  0.00    +0.000 C 
ATOM     26  C   UNL     1       5.688   6.401  18.634  0.00  0.00    +0.000 C 
ATOM     27  N   UNL     1       5.704   6.342  17.164  0.00  0.00    +0.000 NA
ATOM     28  H   UNL     1       7.487   3.777  19.515  0.00  0.00    +0.000 HD
BRANCH  21  29
ATOM     29  C   UNL     1       6.317   4.424  15.450  0.00  0.00    +0.000 C 
BRANCH  29  30
ATOM     30  C   UNL     1       7.068   4.656  14.158  0.00  0.00    +0.000 C 
ATOM     31  O   UNL     1       7.931   5.505  13.986  0.00  0.00    +0.000 OA
BRANCH  30  33
ATOM     32  C   UNL     1       5.304   3.632  12.968  0.00  0.00    +0.000 C 
ATOM     33  O   UNL     1       6.706   3.716  13.239  0.00  0.00    +0.000 OA
ENDBRANCH  30  33
ENDBRANCH  29  30
ENDBRANCH  21  29
ENDBRANCH  20  27
ENDBRANCH   1  20
TORSDOF 7
ENDMDL
MODEL 7
REMARK VINA RESULT:      -8.4      1.942      3.147
REMARK  Name = 
REMARK  10 active torsions:
REMARK  status: ('A' for Active; 'I' for Inactive)
REMARK    1  A    between atoms: C_1  and  O_2
REMARK    2  A    between atoms: O_2  and  C_3
REMARK    3  A    between atoms: C_3  and  C_5
REMARK    4  A    between atoms: C_5  and  C_6
REMARK    5  A    between atoms: N_12  and  C_13
REMARK    6  A    between atoms: C_13  and  C_14
REMARK    7  A    between atoms: N_16  and  C_17
REMARK    8  A    between atoms: C_20  and  C_21
REMARK    9  A    between atoms: C_25  and  C_26
REMARK   10  A    between atoms: C_30  and  C_31
REMARK                            x       y       z     vdW  Elec       q    Type
REMARK                         _______ _______ _______ _____ _____    ______ ____
ROOT
ATOM      1  C   UNL     1       2.496   7.064  19.187  0.00  0.00    +0.000 A 
ATOM      2  C   UNL     1       2.261   8.378  19.538  0.00  0.00    +0.000 A 
ATOM      3  N   UNL     1       1.310   8.378  20.530  0.00  0.00    +0.000 N 
ATOM      4  N   UNL     1       1.057   7.120  20.965  0.00  0.00    +0.000 NA
ATOM      5  C   UNL     1       1.794   6.310  20.181  0.00  0.00    +0.000 A 
ENDROOT
BRANCH   3   6
ATOM      6  C   UNL     1       0.641   9.516  21.072  0.00  0.00    +0.000 A 
ATOM      7  C   UNL     1       0.713  10.762  20.431  0.00  0.00    +0.000 A 
ATOM      8  C   UNL     1       0.120  11.891  21.005  0.00  0.00    +0.000 A 
ATOM      9  C   UNL     1      -0.564  11.794  22.218  0.00  0.00    +0.000 A 
ATOM     10  C   UNL     1      -1.112  13.023  22.884  0.00  0.00    +0.000 C 
ATOM     11  C   UNL     1      -0.692  10.539  22.826  0.00  0.00    +0.000 A 
ATOM     12  C   UNL     1      -0.095   9.405  22.259  0.00  0.00    +0.000 A 
ENDBRANCH   3   6
BRANCH   5  13
ATOM     13  C   UNL     1       1.799   4.858  20.387  0.00  0.00    +0.000 A 
ATOM     14  C   UNL     1       2.324   4.296  21.558  0.00  0.00    +0.000 A 
ATOM     15  C   UNL     1       2.323   2.910  21.742  0.00  0.00    +0.000 A 
ATOM     16  C   UNL     1       1.797   2.068  20.759  0.00  0.00    +0.000 A 
ATOM     17  C   UNL     1       1.268   2.603  19.583  0.00  0.00    +0.000 A 
ATOM     18  C   UNL     1       0.713   1.725  18.502  0.00  0.00    +0.000 C 
ATOM     19  C   UNL     1       1.296   3.996  19.396  0.00  0.00    +0.000 A 
ENDBRANCH   5  13
BRANCH   1  20
ATOM     20  C   UNL     1       3.279   6.606  17.990  0.00  0.00    +0.000 C 
BRANCH  20  27
ATOM     21  C   UNL     1       5.670   6.248  17.241  0.00  0.00    +0.000 C 
ATOM     22  C   UNL     1       6.733   5.143  17.463  0.00  0.00    +0.000 C 
ATOM     23  O   UNL     1       7.792   5.123  16.835  0.00  0.00    +0.000 OA
ATOM     24  N   UNL     1       6.453   4.128  18.332  0.00  0.00    +0.000 N 
ATOM     25  C   UNL     1       5.264   4.141  19.140  0.00  0.00    +0.000 C 
ATOM     26  C   UNL     1       4.920   5.576  19.522  0.00  0.00    +0.000 C 
ATOM     27  N   UNL     1       4.684   6.434  18.350  0.00  0.00    +0.000 NA
ATOM     28  H   UNL     1       7.150   3.400  18.429  0.00  0.00    +0.000 HD
BRANCH  21  29
ATOM     29  C   UNL     1       5.213   6.142  15.775  0.00  0.00    +0.000 C 
BRANCH  29  30
ATOM     30  C   UNL     1       4.928   4.735  15.301  0.00  0.00    +0.000 C 
ATOM     31  O   UNL     1       4.372   3.867  15.959  0.00  0.00    +0.000 OA
BRANCH  30  33
ATOM     32  C   UNL     1       6.501   3.858  13.773  0.00  0.00    +0.000 C 
ATOM     33  O   UNL     1       5.301   4.604  13.996  0.00  0.00    +0.000 OA
ENDBRANCH  30  33
ENDBRANCH  29  30
ENDBRANCH  21  29
ENDBRANCH  20  27
ENDBRANCH   1  20
TORSDOF 7
ENDMDL
MODEL 8
REMARK VINA RESULT:      -8.4      2.950      5.302
REMARK  Name = 
REMARK  10 active torsions:
REMARK  status: ('A' for Active; 'I' for Inactive)
REMARK    1  A    between atoms: C_1  and  O_2
REMARK    2  A    between atoms: O_2  and  C_3
REMARK    3  A    between atoms: C_3  and  C_5
REMARK    4  A    between atoms: C_5  and  C_6
REMARK    5  A    between atoms: N_12  and  C_13
REMARK    6  A    between atoms: C_13  and  C_14
REMARK    7  A    between atoms: N_16  and  C_17
REMARK    8  A    between atoms: C_20  and  C_21
REMARK    9  A    between atoms: C_25  and  C_26
REMARK   10  A    between atoms: C_30  and  C_31
REMARK                            x       y       z     vdW  Elec       q    Type
REMARK                         _______ _______ _______ _____ _____    ______ ____
ROOT
ATOM      1  C   UNL     1       2.432   6.792  18.066  0.00  0.00    +0.000 A 
ATOM      2  C   UNL     1       1.547   7.843  18.193  0.00  0.00    +0.000 A 
ATOM      3  N   UNL     1       2.245   9.002  17.959  0.00  0.00    +0.000 N 
ATOM      4  N   UNL     1       3.494   8.739  17.505  0.00  0.00    +0.000 NA
ATOM      5  C   UNL     1       3.614   7.397  17.533  0.00  0.00    +0.000 A 
ENDROOT
BRANCH   3   6
ATOM      6  C   UNL     1       1.775  10.337  18.150  0.00  0.00    +0.000 A 
ATOM      7  C   UNL     1       2.608  11.434  17.883  0.00  0.00    +0.000 A 
ATOM      8  C   UNL     1       2.171  12.737  18.144  0.00  0.00    +0.000 A 
ATOM      9  C   UNL     1       0.895  12.967  18.663  0.00  0.00    +0.000 A 
ATOM     10  C   UNL     1       0.464  14.355  19.038  0.00  0.00    +0.000 C 
ATOM     11  C   UNL     1       0.041  11.877  18.869  0.00  0.00    +0.000 A 
ATOM     12  C   UNL     1       0.474  10.569  18.615  0.00  0.00    +0.000 A 
ENDBRANCH   3   6
BRANCH   5  13
ATOM     13  C   UNL     1       4.840   6.738  17.070  0.00  0.00    +0.000 A 
ATOM     14  C   UNL     1       6.062   6.943  17.724  0.00  0.00    +0.000 A 
ATOM     15  C   UNL     1       7.222   6.307  17.271  0.00  0.00    +0.000 A 
ATOM     16  C   UNL     1       7.177   5.460  16.162  0.00  0.00    +0.000 A 
ATOM     17  C   UNL     1       5.972   5.239  15.493  0.00  0.00    +0.000 A 
ATOM     18  C   UNL     1       5.895   4.351  14.288  0.00  0.00    +0.000 C 
ATOM     19  C   UNL     1       4.814   5.902  15.939  0.00  0.00    +0.000 A 
ENDBRANCH   5  13
BRANCH   1  20
ATOM     20  C   UNL     1       2.162   5.369  18.466  0.00  0.00    +0.000 C 
BRANCH  20  27
ATOM     21  C   UNL     1       4.025   3.929  19.394  0.00  0.00    +0.000 C 
ATOM     22  C   UNL     1       4.135   2.876  20.526  0.00  0.00    +0.000 C 
ATOM     23  O   UNL     1       5.139   2.177  20.668  0.00  0.00    +0.000 OA
ATOM     24  N   UNL     1       3.060   2.675  21.342  0.00  0.00    +0.000 N 
ATOM     25  C   UNL     1       1.893   3.511  21.262  0.00  0.00    +0.000 C 
ATOM     26  C   UNL     1       2.304   4.932  20.893  0.00  0.00    +0.000 C 
ATOM     27  N   UNL     1       3.005   5.002  19.601  0.00  0.00    +0.000 NA
ATOM     28  H   UNL     1       3.146   1.956  22.048  0.00  0.00    +0.000 HD
BRANCH  21  29
ATOM     29  C   UNL     1       4.120   3.165  18.061  0.00  0.00    +0.000 C 
BRANCH  29  30
ATOM     30  C   UNL     1       3.261   1.923  17.980  0.00  0.00    +0.000 C 
ATOM     31  O   UNL     1       3.615   0.797  18.300  0.00  0.00    +0.000 OA
BRANCH  30  33
ATOM     32  C   UNL     1       0.962   1.960  18.521  0.00  0.00    +0.000 C 
ATOM     33  O   UNL     1       2.000   2.260  17.584  0.00  0.00    +0.000 OA
ENDBRANCH  30  33
ENDBRANCH  29  30
ENDBRANCH  21  29
ENDBRANCH  20  27
ENDBRANCH   1  20
TORSDOF 7
ENDMDL
MODEL 9
REMARK VINA RESULT:      -8.3      1.960      3.274
REMARK  Name = 
REMARK  10 active torsions:
REMARK  status: ('A' for Active; 'I' for Inactive)
REMARK    1  A    between atoms: C_1  and  O_2
REMARK    2  A    between atoms: O_2  and  C_3
REMARK    3  A    between atoms: C_3  and  C_5
REMARK    4  A    between atoms: C_5  and  C_6
REMARK    5  A    between atoms: N_12  and  C_13
REMARK    6  A    between atoms: C_13  and  C_14
REMARK    7  A    between atoms: N_16  and  C_17
REMARK    8  A    between atoms: C_20  and  C_21
REMARK    9  A    between atoms: C_25  and  C_26
REMARK   10  A    between atoms: C_30  and  C_31
REMARK                            x       y       z     vdW  Elec       q    Type
REMARK                         _______ _______ _______ _____ _____    ______ ____
ROOT
ATOM      1  C   UNL     1       2.771   7.170  18.493  0.00  0.00    +0.000 A 
ATOM      2  C   UNL     1       2.587   8.534  18.588  0.00  0.00    +0.000 A 
ATOM      3  N   UNL     1       1.567   8.752  19.483  0.00  0.00    +0.000 N 
ATOM      4  N   UNL     1       1.211   7.605  20.109  0.00  0.00    +0.000 NA
ATOM      5  C   UNL     1       1.956   6.636  19.541  0.00  0.00    +0.000 A 
ENDROOT
BRANCH   3   6
ATOM      6  C   UNL     1       0.926   9.997  19.761  0.00  0.00    +0.000 A 
ATOM      7  C   UNL     1       0.577  10.345  21.075  0.00  0.00    +0.000 A 
ATOM      8  C   UNL     1      -0.119  11.529  21.335  0.00  0.00    +0.000 A 
ATOM      9  C   UNL     1      -0.467  12.391  20.293  0.00  0.00    +0.000 A 
ATOM     10  C   UNL     1      -1.302  13.610  20.560  0.00  0.00    +0.000 C 
ATOM     11  C   UNL     1      -0.063  12.077  18.990  0.00  0.00    +0.000 A 
ATOM     12  C   UNL     1       0.630  10.889  18.722  0.00  0.00    +0.000 A 
ENDBRANCH   3   6
BRANCH   5  13
ATOM     13  C   UNL     1       1.863   5.245  19.997  0.00  0.00    +0.000 A 
ATOM     14  C   UNL     1       2.260   4.881  21.290  0.00  0.00    +0.000 A 
ATOM     15  C   UNL     1       2.166   3.551  21.712  0.00  0.00    +0.000 A 
ATOM     16  C   UNL     1       1.673   2.570  20.848  0.00  0.00    +0.000 A 
ATOM     17  C   UNL     1       1.270   2.908  19.556  0.00  0.00    +0.000 A 
ATOM     18  C   UNL     1       0.754   1.874  18.600  0.00  0.00    +0.000 C 
ATOM     19  C   UNL     1       1.392   4.242  19.131  0.00  0.00    +0.000 A 
ENDBRANCH   5  13
BRANCH   1  20
ATOM     20  C   UNL     1       3.612   6.472  17.462  0.00  0.00    +0.000 C 
BRANCH  20  27
ATOM     21  C   UNL     1       6.031   5.898  16.988  0.00  0.00    +0.000 C 
ATOM     22  C   UNL     1       7.008   4.793  17.464  0.00  0.00    +0.000 C 
ATOM     23  O   UNL     1       8.111   4.631  16.941  0.00  0.00    +0.000 OA
ATOM     24  N   UNL     1       6.601   3.935  18.444  0.00  0.00    +0.000 N 
ATOM     25  C   UNL     1       5.354   4.124  19.134  0.00  0.00    +0.000 C 
ATOM     26  C   UNL     1       5.062   5.614  19.268  0.00  0.00    +0.000 C 
ATOM     27  N   UNL     1       4.971   6.294  17.966  0.00  0.00    +0.000 NA
ATOM     28  H   UNL     1       7.245   3.200  18.709  0.00  0.00    +0.000 HD
BRANCH  21  29
ATOM     29  C   UNL     1       5.688   5.592  15.519  0.00  0.00    +0.000 C 
BRANCH  29  30
ATOM     30  C   UNL     1       5.354   4.145  15.236  0.00  0.00    +0.000 C 
ATOM     31  O   UNL     1       4.491   3.494  15.810  0.00  0.00    +0.000 OA
BRANCH  30  33
ATOM     32  C   UNL     1       6.958   4.668  13.584  0.00  0.00    +0.000 C 
ATOM     33  O   UNL     1       6.093   3.698  14.182  0.00  0.00    +0.000 OA
ENDBRANCH  30  33
ENDBRANCH  29  30
ENDBRANCH  21  29
ENDBRANCH  20  27
ENDBRANCH   1  20
TORSDOF 7
ENDMDL
