MODEL 1
REMARK VINA RESULT:      -7.0      0.000      0.000
REMARK  Name = 
REMARK  6 active torsions:
REMARK  status: ('A' for Active; 'I' for Inactive)
REMARK    1  A    between atoms: C_2  and  C_16
REMARK    2  A    between atoms: N_3  and  C_4
REMARK    3  A    between atoms: C_4  and  C_5
REMARK    4  A    between atoms: C_5  and  C_6
REMARK    5  A    between atoms: C_6  and  N_7
REMARK    6  A    between atoms: C_8  and  C_10
REMARK                            x       y       z     vdW  Elec       q    Type
REMARK                         _______ _______ _______ _____ _____    ______ ____
ROOT
ATOM      1  C   UNL     1       2.147   3.235  20.005  0.00  0.00    +0.000 C 
ENDROOT
BRANCH   1   4
ATOM      2  O   UNL     1       3.777   5.481  20.094  0.00  0.00    +0.000 OA
ATOM      3  C   UNL     1       2.596   5.633  19.795  0.00  0.00    +0.000 C 
ATOM      4  N   UNL     1       1.694   4.588  19.734  0.00  0.00    +0.000 N 
ATOM      5  H   UNL     1       0.790   4.733  19.300  0.00  0.00    +0.000 HD
BRANCH   3   6
ATOM      6  C   UNL     1       2.098   6.993  19.463  0.00  0.00    +0.000 A 
ATOM      7  C   UNL     1       2.291   7.469  18.156  0.00  0.00    +0.000 A 
ATOM      8  C   UNL     1       1.916   8.771  17.813  0.00  0.00    +0.000 A 
ATOM      9  C   UNL     1       1.360   9.604  18.780  0.00  0.00    +0.000 A 
ATOM     10  C   UNL     1       1.175   9.126  20.074  0.00  0.00    +0.000 A 
ATOM     11  F   UNL     1       0.662   9.943  21.005  0.00  0.00    +0.000 F 
ATOM     12  C   UNL     1       1.531   7.828  20.429  0.00  0.00    +0.000 A 
ENDBRANCH   3   6
ENDBRANCH   1   4
BRANCH   1  13
ATOM     13  C   UNL     1       2.196   2.353  18.759  0.00  0.00    +0.000 C 
BRANCH  13  14
ATOM     14  C   UNL     1       3.631   1.914  18.450  0.00  0.00    +0.000 C 
BRANCH  14  15
ATOM     15  N   UNL     1       4.580   3.011  18.530  0.00  0.00    +0.000 N 
ATOM     16  C   UNL     1       4.861   3.803  17.436  0.00  0.00    +0.000 C 
ATOM     17  O   UNL     1       4.329   3.644  16.337  0.00  0.00    +0.000 OA
ATOM     18  H   UNL     1       4.942   3.312  19.431  0.00  0.00    +0.000 HD
BRANCH  16  19
ATOM     19  C   UNL     1       5.854   4.894  17.639  0.00  0.00    +0.000 A 
ATOM     20  C   UNL     1       5.765   6.060  16.887  0.00  0.00    +0.000 A 
ATOM     21  N   UNL     1       6.647   7.085  17.019  0.00  0.00    +0.000 NA
ATOM     22  C   UNL     1       7.617   6.893  17.944  0.00  0.00    +0.000 A 
ATOM     23  C   UNL     1       7.701   5.730  18.701  0.00  0.00    +0.000 A 
ATOM     24  N   UNL     1       6.831   4.701  18.572  0.00  0.00    +0.000 NA
ENDBRANCH  16  19
ENDBRANCH  14  15
ENDBRANCH  13  14
ENDBRANCH   1  13
TORSDOF 6
ENDMDL
MODEL 2
REMARK VINA RESULT:      -7.0      2.986      6.156
REMARK  Name = 
REMARK  6 active torsions:
REMARK  status: ('A' for Active; 'I' for Inactive)
REMARK    1  A    between atoms: C_2  and  C_16
REMARK    2  A    between atoms: N_3  and  C_4
REMARK    3  A    between atoms: C_4  and  C_5
REMARK    4  A    between atoms: C_5  and  C_6
REMARK    5  A    between atoms: C_6  and  N_7
REMARK    6  A    between atoms: C_8  and  C_10
REMARK                            x       y       z     vdW  Elec       q    Type
REMARK                         _______ _______ _______ _____ _____    ______ ____
ROOT
ATOM      1  C   UNL     1       1.319   3.683  18.776  0.00  0.00    +0.000 C 
ENDROOT
BRANCH   1   4
ATOM      2  O   UNL     1       3.479   2.149  17.945  0.00  0.00    +0.000 OA
ATOM      3  C   UNL     1       3.582   3.371  17.893  0.00  0.00    +0.000 C 
ATOM      4  N   UNL     1       2.576   4.230  18.294  0.00  0.00    +0.000 N 
ATOM      5  H   UNL     1       2.632   5.212  18.053  0.00  0.00    +0.000 HD
BRANCH   3   6
ATOM      6  C   UNL     1       4.831   3.974  17.362  0.00  0.00    +0.000 A 
ATOM      7  C   UNL     1       5.004   4.022  15.968  0.00  0.00    +0.000 A 
ATOM      8  C   UNL     1       6.194   4.504  15.418  0.00  0.00    +0.000 A 
ATOM      9  C   UNL     1       7.221   4.926  16.259  0.00  0.00    +0.000 A 
ATOM     10  C   UNL     1       7.043   4.873  17.639  0.00  0.00    +0.000 A 
ATOM     11  F   UNL     1       8.044   5.259  18.442  0.00  0.00    +0.000 F 
ATOM     12  C   UNL     1       5.858   4.408  18.204  0.00  0.00    +0.000 A 
ENDBRANCH   3   6
ENDBRANCH   1   4
BRANCH   1  13
ATOM     13  C   UNL     1       1.067   3.964  20.256  0.00  0.00    +0.000 C 
BRANCH  13  14
ATOM     14  C   UNL     1       2.151   4.877  20.836  0.00  0.00    +0.000 C 
BRANCH  14  15
ATOM     15  N   UNL     1       1.677   6.231  21.066  0.00  0.00    +0.000 N 
ATOM     16  C   UNL     1       1.954   7.252  20.182  0.00  0.00    +0.000 C 
ATOM     17  O   UNL     1       2.603   7.089  19.148  0.00  0.00    +0.000 OA
ATOM     18  H   UNL     1       1.004   6.420  21.804  0.00  0.00    +0.000 HD
BRANCH  16  19
ATOM     19  C   UNL     1       1.417   8.598  20.526  0.00  0.00    +0.000 A 
ATOM     20  C   UNL     1       1.267   8.963  21.860  0.00  0.00    +0.000 A 
ATOM     21  N   UNL     1       0.773  10.171  22.236  0.00  0.00    +0.000 NA
ATOM     22  C   UNL     1       0.444  11.000  21.217  0.00  0.00    +0.000 A 
ATOM     23  C   UNL     1       0.601  10.638  19.885  0.00  0.00    +0.000 A 
ATOM     24  N   UNL     1       1.087   9.434  19.500  0.00  0.00    +0.000 NA
ENDBRANCH  16  19
ENDBRANCH  14  15
ENDBRANCH  13  14
ENDBRANCH   1  13
TORSDOF 6
ENDMDL
MODEL 3
REMARK VINA RESULT:      -6.9      3.055      5.979
REMARK  Name = 
REMARK  6 active torsions:
REMARK  status: ('A' for Active; 'I' for Inactive)
REMARK    1  A    between atoms: C_2  and  C_16
REMARK    2  A    between atoms: N_3  and  C_4
REMARK    3  A    between atoms: C_4  and  C_5
REMARK    4  A    between atoms: C_5  and  C_6
REMARK    5  A    between atoms: C_6  and  N_7
REMARK    6  A    between atoms: C_8  and  C_10
REMARK                            x       y       z     vdW  Elec       q    Type
REMARK                         _______ _______ _______ _____ _____    ______ ____
ROOT
ATOM      1  C   UNL     1       1.639   2.933  19.409  0.00  0.00    +0.000 C 
ENDROOT
BRANCH   1   4
ATOM      2  O   UNL     1       2.421   3.290  16.769  0.00  0.00    +0.000 OA
ATOM      3  C   UNL     1       3.267   3.428  17.647  0.00  0.00    +0.000 C 
ATOM      4  N   UNL     1       2.992   3.261  18.992  0.00  0.00    +0.000 N 
ATOM      5  H   UNL     1       3.665   3.572  19.682  0.00  0.00    +0.000 HD
BRANCH   3   6
ATOM      6  C   UNL     1       4.652   3.809  17.271  0.00  0.00    +0.000 A 
ATOM      7  C   UNL     1       5.516   4.255  18.285  0.00  0.00    +0.000 A 
ATOM      8  C   UNL     1       6.803   4.703  17.975  0.00  0.00    +0.000 A 
ATOM      9  C   UNL     1       7.224   4.720  16.647  0.00  0.00    +0.000 A 
ATOM     10  C   UNL     1       6.361   4.280  15.647  0.00  0.00    +0.000 A 
ATOM     11  F   UNL     1       6.765   4.323  14.370  0.00  0.00    +0.000 F 
ATOM     12  C   UNL     1       5.081   3.818  15.941  0.00  0.00    +0.000 A 
ENDBRANCH   3   6
ENDBRANCH   1   4
BRANCH   1  13
ATOM     13  C   UNL     1       1.151   3.772  20.589  0.00  0.00    +0.000 C 
BRANCH  13  14
ATOM     14  C   UNL     1       2.213   4.791  21.016  0.00  0.00    +0.000 C 
BRANCH  14  15
ATOM     15  N   UNL     1       1.776   6.164  20.833  0.00  0.00    +0.000 N 
ATOM     16  C   UNL     1       2.207   6.923  19.766  0.00  0.00    +0.000 C 
ATOM     17  O   UNL     1       2.972   6.494  18.902  0.00  0.00    +0.000 OA
ATOM     18  H   UNL     1       1.025   6.544  21.404  0.00  0.00    +0.000 HD
BRANCH  16  19
ATOM     19  C   UNL     1       1.693   8.318  19.687  0.00  0.00    +0.000 A 
ATOM     20  C   UNL     1       1.738   9.006  18.479  0.00  0.00    +0.000 A 
ATOM     21  N   UNL     1       1.295  10.284  18.349  0.00  0.00    +0.000 NA
ATOM     22  C   UNL     1       0.797  10.838  19.479  0.00  0.00    +0.000 A 
ATOM     23  C   UNL     1       0.746  10.148  20.684  0.00  0.00    +0.000 A 
ATOM     24  N   UNL     1       1.191   8.877  20.826  0.00  0.00    +0.000 NA
ENDBRANCH  16  19
ENDBRANCH  14  15
ENDBRANCH  13  14
ENDBRANCH   1  13
TORSDOF 6
ENDMDL
MODEL 4
REMARK VINA RESULT:      -6.8      3.118      5.078
REMARK  Name = 
REMARK  6 active torsions:
REMARK  status: ('A' for Active; 'I' for Inactive)
REMARK    1  A    between atoms: C_2  and  C_16
REMARK    2  A    between atoms: N_3  and  C_4
REMARK    3  A    between atoms: C_4  and  C_5
REMARK    4  A    between atoms: C_5  and  C_6
REMARK    5  A    between atoms: C_6  and  N_7
REMARK    6  A    between atoms: C_8  and  C_10
REMARK                            x       y       z     vdW  Elec       q    Type
REMARK                         _______ _______ _______ _____ _____    ______ ____
ROOT
ATOM      1  C   UNL     1       7.351   4.897  18.860  0.00  0.00    +0.000 C 
ENDROOT
BRANCH   1   4
ATOM      2  O   UNL     1       5.207   3.551  17.719  0.00  0.00    +0.000 OA
ATOM      3  C   UNL     1       5.030   4.117  18.793  0.00  0.00    +0.000 C 
ATOM      4  N   UNL     1       6.022   4.828  19.443  0.00  0.00    +0.000 N 
ATOM      5  H   UNL     1       5.885   5.109  20.406  0.00  0.00    +0.000 HD
BRANCH   3   6
ATOM      6  C   UNL     1       3.700   4.034  19.450  0.00  0.00    +0.000 A 
ATOM      7  C   UNL     1       2.807   5.104  19.277  0.00  0.00    +0.000 A 
ATOM      8  C   UNL     1       1.576   5.115  19.938  0.00  0.00    +0.000 A 
ATOM      9  C   UNL     1       1.241   4.062  20.787  0.00  0.00    +0.000 A 
ATOM     10  C   UNL     1       2.133   3.007  20.956  0.00  0.00    +0.000 A 
ATOM     11  F   UNL     1       1.814   2.010  21.793  0.00  0.00    +0.000 F 
ATOM     12  C   UNL     1       3.358   2.974  20.294  0.00  0.00    +0.000 A 
ENDBRANCH   3   6
ENDBRANCH   1   4
BRANCH   1  13
ATOM     13  C   UNL     1       7.894   6.320  18.760  0.00  0.00    +0.000 C 
BRANCH  13  14
ATOM     14  C   UNL     1       7.300   7.053  17.553  0.00  0.00    +0.000 C 
BRANCH  14  15
ATOM     15  N   UNL     1       7.373   6.268  16.332  0.00  0.00    +0.000 N 
ATOM     16  C   UNL     1       6.243   5.957  15.606  0.00  0.00    +0.000 C 
ATOM     17  O   UNL     1       5.113   6.325  15.929  0.00  0.00    +0.000 OA
ATOM     18  H   UNL     1       8.273   6.061  15.908  0.00  0.00    +0.000 HD
BRANCH  16  19
ATOM     19  C   UNL     1       6.443   5.143  14.374  0.00  0.00    +0.000 A 
ATOM     20  C   UNL     1       5.553   4.120  14.068  0.00  0.00    +0.000 A 
ATOM     21  N   UNL     1       5.690   3.337  12.966  0.00  0.00    +0.000 NA
ATOM     22  C   UNL     1       6.753   3.631  12.180  0.00  0.00    +0.000 A 
ATOM     23  C   UNL     1       7.638   4.659  12.484  0.00  0.00    +0.000 A 
ATOM     24  N   UNL     1       7.514   5.440  13.582  0.00  0.00    +0.000 NA
ENDBRANCH  16  19
ENDBRANCH  14  15
ENDBRANCH  13  14
ENDBRANCH   1  13
TORSDOF 6
ENDMDL
MODEL 5
REMARK VINA RESULT:      -6.7      4.527      7.465
REMARK  Name = 
REMARK  6 active torsions:
REMARK  status: ('A' for Active; 'I' for Inactive)
REMARK    1  A    between atoms: C_2  and  C_16
REMARK    2  A    between atoms: N_3  and  C_4
REMARK    3  A    between atoms: C_4  and  C_5
REMARK    4  A    between atoms: C_5  and  C_6
REMARK    5  A    between atoms: C_6  and  N_7
REMARK    6  A    between atoms: C_8  and  C_10
REMARK                            x       y       z     vdW  Elec       q    Type
REMARK                         _______ _______ _______ _____ _____    ______ ____
ROOT
ATOM      1  C   UNL     1       6.350   6.360  16.340  0.00  0.00    +0.000 C 
ENDROOT
BRANCH   1   4
ATOM      2  O   UNL     1       7.997   5.627  14.228  0.00  0.00    +0.000 OA
ATOM      3  C   UNL     1       6.859   5.170  14.261  0.00  0.00    +0.000 C 
ATOM      4  N   UNL     1       5.951   5.478  15.256  0.00  0.00    +0.000 N 
ATOM      5  H   UNL     1       5.103   4.932  15.345  0.00  0.00    +0.000 HD
BRANCH   3   6
ATOM      6  C   UNL     1       6.423   4.226  13.199  0.00  0.00    +0.000 A 
ATOM      7  C   UNL     1       5.045   4.010  13.029  0.00  0.00    +0.000 A 
ATOM      8  C   UNL     1       4.583   3.073  12.102  0.00  0.00    +0.000 A 
ATOM      9  C   UNL     1       5.498   2.338  11.352  0.00  0.00    +0.000 A 
ATOM     10  C   UNL     1       6.862   2.556  11.528  0.00  0.00    +0.000 A 
ATOM     11  F   UNL     1       7.736   1.828  10.819  0.00  0.00    +0.000 F 
ATOM     12  C   UNL     1       7.339   3.496  12.438  0.00  0.00    +0.000 A 
ENDBRANCH   3   6
ENDBRANCH   1   4
BRANCH   1  13
ATOM     13  C   UNL     1       7.171   5.657  17.419  0.00  0.00    +0.000 C 
BRANCH  13  14
ATOM     14  C   UNL     1       6.733   4.198  17.582  0.00  0.00    +0.000 C 
BRANCH  14  15
ATOM     15  N   UNL     1       5.674   4.040  18.564  0.00  0.00    +0.000 N 
ATOM     16  C   UNL     1       4.367   3.813  18.187  0.00  0.00    +0.000 C 
ATOM     17  O   UNL     1       4.014   3.720  17.011  0.00  0.00    +0.000 OA
ATOM     18  H   UNL     1       5.900   3.941  19.550  0.00  0.00    +0.000 HD
BRANCH  16  19
ATOM     19  C   UNL     1       3.370   3.671  19.284  0.00  0.00    +0.000 A 
ATOM     20  C   UNL     1       2.226   4.462  19.287  0.00  0.00    +0.000 A 
ATOM     21  N   UNL     1       1.288   4.385  20.266  0.00  0.00    +0.000 NA
ATOM     22  C   UNL     1       1.541   3.476  21.236  0.00  0.00    +0.000 A 
ATOM     23  C   UNL     1       2.681   2.680  21.229  0.00  0.00    +0.000 A 
ATOM     24  N   UNL     1       3.625   2.754  20.261  0.00  0.00    +0.000 NA
ENDBRANCH  16  19
ENDBRANCH  14  15
ENDBRANCH  13  14
ENDBRANCH   1  13
TORSDOF 6
ENDMDL
MODEL 6
REMARK VINA RESULT:      -6.7      3.270      4.994
REMARK  Name = 
REMARK  6 active torsions:
REMARK  status: ('A' for Active; 'I' for Inactive)
REMARK    1  A    between atoms: C_2  and  C_16
REMARK    2  A    between atoms: N_3  and  C_4
REMARK    3  A    between atoms: C_4  and  C_5
REMARK    4  A    between atoms: C_5  and  C_6
REMARK    5  A    between atoms: C_6  and  N_7
REMARK    6  A    between atoms: C_8  and  C_10
REMARK                            x       y       z     vdW  Elec       q    Type
REMARK                         _______ _______ _______ _____ _____    ______ ____
ROOT
ATOM      1  C   UNL     1       6.624   5.489  19.178  0.00  0.00    +0.000 C 
ENDROOT
BRANCH   1   4
ATOM      2  O   UNL     1       5.573   2.923  19.317  0.00  0.00    +0.000 OA
ATOM      3  C   UNL     1       4.796   3.871  19.371  0.00  0.00    +0.000 C 
ATOM      4  N   UNL     1       5.208   5.188  19.297  0.00  0.00    +0.000 N 
ATOM      5  H   UNL     1       4.560   5.928  19.538  0.00  0.00    +0.000 HD
BRANCH   3   6
ATOM      6  C   UNL     1       3.343   3.613  19.540  0.00  0.00    +0.000 A 
ATOM      7  C   UNL     1       2.483   3.938  18.478  0.00  0.00    +0.000 A 
ATOM      8  C   UNL     1       1.100   3.792  18.615  0.00  0.00    +0.000 A 
ATOM      9  C   UNL     1       0.572   3.334  19.819  0.00  0.00    +0.000 A 
ATOM     10  C   UNL     1       1.430   3.017  20.868  0.00  0.00    +0.000 A 
ATOM     11  F   UNL     1       0.912   2.600  22.032  0.00  0.00    +0.000 F 
ATOM     12  C   UNL     1       2.811   3.143  20.744  0.00  0.00    +0.000 A 
ENDBRANCH   3   6
ENDBRANCH   1   4
BRANCH   1  13
ATOM     13  C   UNL     1       6.913   6.690  18.280  0.00  0.00    +0.000 C 
BRANCH  13  14
ATOM     14  C   UNL     1       5.815   6.868  17.228  0.00  0.00    +0.000 C 
BRANCH  14  15
ATOM     15  N   UNL     1       6.201   6.354  15.925  0.00  0.00    +0.000 N 
ATOM     16  C   UNL     1       5.840   5.088  15.512  0.00  0.00    +0.000 C 
ATOM     17  O   UNL     1       5.168   4.323  16.203  0.00  0.00    +0.000 OA
ATOM     18  H   UNL     1       6.615   6.972  15.232  0.00  0.00    +0.000 HD
BRANCH  16  19
ATOM     19  C   UNL     1       6.298   4.672  14.158  0.00  0.00    +0.000 A 
ATOM     20  C   UNL     1       5.637   3.648  13.488  0.00  0.00    +0.000 A 
ATOM     21  N   UNL     1       6.015   3.217  12.256  0.00  0.00    +0.000 NA
ATOM     22  C   UNL     1       7.078   3.862  11.722  0.00  0.00    +0.000 A 
ATOM     23  C   UNL     1       7.734   4.891  12.389  0.00  0.00    +0.000 A 
ATOM     24  N   UNL     1       7.369   5.323  13.619  0.00  0.00    +0.000 NA
ENDBRANCH  16  19
ENDBRANCH  14  15
ENDBRANCH  13  14
ENDBRANCH   1  13
TORSDOF 6
ENDMDL
MODEL 7
REMARK VINA RESULT:      -6.7      2.487      5.061
REMARK  Name = 
REMARK  6 active torsions:
REMARK  status: ('A' for Active; 'I' for Inactive)
REMARK    1  A    between atoms: C_2  and  C_16
REMARK    2  A    between atoms: N_3  and  C_4
REMARK    3  A    between atoms: C_4  and  C_5
REMARK    4  A    between atoms: C_5  and  C_6
REMARK    5  A    between atoms: C_6  and  N_7
REMARK    6  A    between atoms: C_8  and  C_10
REMARK                            x       y       z     vdW  Elec       q    Type
REMARK                         _______ _______ _______ _____ _____    ______ ____
ROOT
ATOM      1  C   UNL     1       3.576   1.848  18.234  0.00  0.00    +0.000 C 
ENDROOT
BRANCH   1   4
ATOM      2  O   UNL     1       5.314   3.275  19.861  0.00  0.00    +0.000 OA
ATOM      3  C   UNL     1       5.078   3.715  18.740  0.00  0.00    +0.000 C 
ATOM      4  N   UNL     1       4.219   3.094  17.853  0.00  0.00    +0.000 N 
ATOM      5  H   UNL     1       4.207   3.385  16.883  0.00  0.00    +0.000 HD
BRANCH   3   6
ATOM      6  C   UNL     1       5.750   4.961  18.290  0.00  0.00    +0.000 A 
ATOM      7  C   UNL     1       5.247   5.611  17.151  0.00  0.00    +0.000 A 
ATOM      8  C   UNL     1       5.890   6.740  16.636  0.00  0.00    +0.000 A 
ATOM      9  C   UNL     1       7.046   7.213  17.251  0.00  0.00    +0.000 A 
ATOM     10  C   UNL     1       7.540   6.562  18.378  0.00  0.00    +0.000 A 
ATOM     11  F   UNL     1       8.667   7.010  18.949  0.00  0.00    +0.000 F 
ATOM     12  C   UNL     1       6.904   5.444  18.911  0.00  0.00    +0.000 A 
ENDBRANCH   3   6
ENDBRANCH   1   4
BRANCH   1  13
ATOM     13  C   UNL     1       2.051   1.927  18.221  0.00  0.00    +0.000 C 
BRANCH  13  14
ATOM     14  C   UNL     1       1.528   2.686  19.445  0.00  0.00    +0.000 C 
BRANCH  14  15
ATOM     15  N   UNL     1       1.489   4.123  19.236  0.00  0.00    +0.000 N 
ATOM     16  C   UNL     1       2.010   5.002  20.162  0.00  0.00    +0.000 C 
ATOM     17  O   UNL     1       2.546   4.635  21.209  0.00  0.00    +0.000 OA
ATOM     18  H   UNL     1       1.212   4.503  18.334  0.00  0.00    +0.000 HD
BRANCH  16  19
ATOM     19  C   UNL     1       1.908   6.452  19.839  0.00  0.00    +0.000 A 
ATOM     20  C   UNL     1       1.401   7.338  20.783  0.00  0.00    +0.000 A 
ATOM     21  N   UNL     1       1.273   8.669  20.542  0.00  0.00    +0.000 NA
ATOM     22  C   UNL     1       1.683   9.073  19.317  0.00  0.00    +0.000 A 
ATOM     23  C   UNL     1       2.196   8.188  18.376  0.00  0.00    +0.000 A 
ATOM     24  N   UNL     1       2.321   6.860  18.605  0.00  0.00    +0.000 NA
ENDBRANCH  16  19
ENDBRANCH  14  15
ENDBRANCH  13  14
ENDBRANCH   1  13
TORSDOF 6
ENDMDL
MODEL 8
REMARK VINA RESULT:      -6.6      3.450      5.004
REMARK  Name = 
REMARK  6 active torsions:
REMARK  status: ('A' for Active; 'I' for Inactive)
REMARK    1  A    between atoms: C_2  and  C_16
REMARK    2  A    between atoms: N_3  and  C_4
REMARK    3  A    between atoms: C_4  and  C_5
REMARK    4  A    between atoms: C_5  and  C_6
REMARK    5  A    between atoms: C_6  and  N_7
REMARK    6  A    between atoms: C_8  and  C_10
REMARK                            x       y       z     vdW  Elec       q    Type
REMARK                         _______ _______ _______ _____ _____    ______ ____
ROOT
ATOM      1  C   UNL     1       6.061   6.663  18.159  0.00  0.00    +0.000 C 
ENDROOT
BRANCH   1   4
ATOM      2  O   UNL     1       3.336   7.175  18.022  0.00  0.00    +0.000 OA
ATOM      3  C   UNL     1       3.700   6.089  18.461  0.00  0.00    +0.000 C 
ATOM      4  N   UNL     1       5.030   5.734  18.587  0.00  0.00    +0.000 N 
ATOM      5  H   UNL     1       5.274   4.768  18.769  0.00  0.00    +0.000 HD
BRANCH   3   6
ATOM      6  C   UNL     1       2.679   5.088  18.866  0.00  0.00    +0.000 A 
ATOM      7  C   UNL     1       1.990   5.294  20.073  0.00  0.00    +0.000 A 
ATOM      8  C   UNL     1       1.080   4.343  20.541  0.00  0.00    +0.000 A 
ATOM      9  C   UNL     1       0.867   3.177  19.811  0.00  0.00    +0.000 A 
ATOM     10  C   UNL     1       1.555   2.978  18.618  0.00  0.00    +0.000 A 
ATOM     11  F   UNL     1       1.362   1.841  17.934  0.00  0.00    +0.000 F 
ATOM     12  C   UNL     1       2.456   3.921  18.130  0.00  0.00    +0.000 A 
ENDBRANCH   3   6
ENDBRANCH   1   4
BRANCH   1  13
ATOM     13  C   UNL     1       7.477   6.129  18.361  0.00  0.00    +0.000 C 
BRANCH  13  14
ATOM     14  C   UNL     1       7.603   4.693  17.841  0.00  0.00    +0.000 C 
BRANCH  14  15
ATOM     15  N   UNL     1       7.627   4.625  16.390  0.00  0.00    +0.000 N 
ATOM     16  C   UNL     1       6.519   4.232  15.668  0.00  0.00    +0.000 C 
ATOM     17  O   UNL     1       5.448   3.927  16.193  0.00  0.00    +0.000 OA
ATOM     18  H   UNL     1       8.411   5.011  15.871  0.00  0.00    +0.000 HD
BRANCH  16  19
ATOM     19  C   UNL     1       6.666   4.198  14.186  0.00  0.00    +0.000 A 
ATOM     20  C   UNL     1       7.580   5.039  13.561  0.00  0.00    +0.000 A 
ATOM     21  N   UNL     1       7.750   5.061  12.213  0.00  0.00    +0.000 NA
ATOM     22  C   UNL     1       6.970   4.198  11.521  0.00  0.00    +0.000 A 
ATOM     23  C   UNL     1       6.062   3.352  12.147  0.00  0.00    +0.000 A 
ATOM     24  N   UNL     1       5.881   3.327  13.488  0.00  0.00    +0.000 NA
ENDBRANCH  16  19
ENDBRANCH  14  15
ENDBRANCH  13  14
ENDBRANCH   1  13
TORSDOF 6
ENDMDL
MODEL 9
REMARK VINA RESULT:      -6.5      1.697      2.452
REMARK  Name = 
REMARK  6 active torsions:
REMARK  status: ('A' for Active; 'I' for Inactive)
REMARK    1  A    between atoms: C_2  and  C_16
REMARK    2  A    between atoms: N_3  and  C_4
REMARK    3  A    between atoms: C_4  and  C_5
REMARK    4  A    between atoms: C_5  and  C_6
REMARK    5  A    between atoms: C_6  and  N_7
REMARK    6  A    between atoms: C_8  and  C_10
REMARK                            x       y       z     vdW  Elec       q    Type
REMARK                         _______ _______ _______ _____ _____    ______ ____
ROOT
ATOM      1  C   UNL     1       2.158   4.756  20.813  0.00  0.00    +0.000 C 
ENDROOT
BRANCH   1   4
ATOM      2  O   UNL     1       2.615   6.923  19.138  0.00  0.00    +0.000 OA
ATOM      3  C   UNL     1       1.948   7.105  20.152  0.00  0.00    +0.000 C 
ATOM      4  N   UNL     1       1.671   6.102  21.062  0.00  0.00    +0.000 N 
ATOM      5  H   UNL     1       0.965   6.253  21.772  0.00  0.00    +0.000 HD
BRANCH   3   6
ATOM      6  C   UNL     1       1.390   8.455  20.424  0.00  0.00    +0.000 A 
ATOM      7  C   UNL     1       0.989   8.754  21.736  0.00  0.00    +0.000 A 
ATOM      8  C   UNL     1       0.383   9.978  22.031  0.00  0.00    +0.000 A 
ATOM      9  C   UNL     1       0.162  10.900  21.010  0.00  0.00    +0.000 A 
ATOM     10  C   UNL     1       0.559  10.595  19.712  0.00  0.00    +0.000 A 
ATOM     11  F   UNL     1       0.321  11.477  18.731  0.00  0.00    +0.000 F 
ATOM     12  C   UNL     1       1.177   9.385  19.404  0.00  0.00    +0.000 A 
ENDBRANCH   3   6
ENDBRANCH   1   4
BRANCH   1  13
ATOM     13  C   UNL     1       1.097   3.831  20.219  0.00  0.00    +0.000 C 
BRANCH  13  14
ATOM     14  C   UNL     1       1.482   3.390  18.803  0.00  0.00    +0.000 C 
BRANCH  14  15
ATOM     15  N   UNL     1       2.702   4.023  18.333  0.00  0.00    +0.000 N 
ATOM     16  C   UNL     1       3.743   3.285  17.809  0.00  0.00    +0.000 C 
ATOM     17  O   UNL     1       3.707   2.060  17.695  0.00  0.00    +0.000 OA
ATOM     18  H   UNL     1       2.754   5.035  18.242  0.00  0.00    +0.000 HD
BRANCH  16  19
ATOM     19  C   UNL     1       4.944   4.045  17.364  0.00  0.00    +0.000 A 
ATOM     20  C   UNL     1       5.522   4.984  18.212  0.00  0.00    +0.000 A 
ATOM     21  N   UNL     1       6.611   5.716  17.858  0.00  0.00    +0.000 NA
ATOM     22  C   UNL     1       7.099   5.459  16.622  0.00  0.00    +0.000 A 
ATOM     23  C   UNL     1       6.525   4.516  15.778  0.00  0.00    +0.000 A 
ATOM     24  N   UNL     1       5.437   3.786  16.119  0.00  0.00    +0.000 NA
ENDBRANCH  16  19
ENDBRANCH  14  15
ENDBRANCH  13  14
ENDBRANCH   1  13
TORSDOF 6
ENDMDL
