MODEL 1
REMARK VINA RESULT:      -7.0      0.000      0.000
REMARK  Name = 
REMARK  19 active torsions:
REMARK  status: ('A' for Active; 'I' for Inactive)
REMARK    1  A    between atoms: C_1  and  C_2
REMARK    2  A    between atoms: C_2  and  C_3
REMARK    3  A    between atoms: C_3  and  C_4
REMARK    4  A    between atoms: C_4  and  N_5
REMARK    5  A    between atoms: N_5  and  C_6
REMARK    6  A    between atoms: N_5  and  C_10
REMARK    7  A    between atoms: C_6  and  C_7
REMARK    8  A    between atoms: C_7  and  C_8
REMARK    9  A    between atoms: C_8  and  C_9
REMARK   10  A    between atoms: C_10  and  C_11
REMARK   11  A    between atoms: C_11  and  O_12
REMARK   12  A    between atoms: C_11  and  C_13
REMARK   13  A    between atoms: C_13  and  N_14
REMARK   14  A    between atoms: N_14  and  C_15
REMARK   15  A    between atoms: N_14  and  S_26
REMARK   16  A    between atoms: C_17  and  N_18
REMARK   17  A    between atoms: C_23  and  O_24
REMARK   18  A    between atoms: O_24  and  C_25
REMARK   19  A    between atoms: S_26  and  C_29
REMARK                            x       y       z     vdW  Elec       q    Type
REMARK                         _______ _______ _______ _____ _____    ______ ____
ROOT
ATOM      1  N   UNL     1       3.683   5.185  17.794  0.00  0.00    +0.000 N 
ENDROOT
BRANCH   1   2
ATOM      2  C   UNL     1       5.013   4.937  17.302  0.00  0.00    +0.000 A 
ATOM      3  C   UNL     1       5.115   4.856  15.901  0.00  0.00    +0.000 A 
ATOM      4  C   UNL     1       6.355   4.678  15.280  0.00  0.00    +0.000 A 
ATOM      5  C   UNL     1       7.521   4.606  16.038  0.00  0.00    +0.000 A 
ATOM      6  C   UNL     1       7.422   4.664  17.432  0.00  0.00    +0.000 A 
ATOM      7  C   UNL     1       6.178   4.801  18.081  0.00  0.00    +0.000 A 
BRANCH   4   8
ATOM      8  N   UNL     1       6.420   4.562  13.818  0.00  0.00    +0.000 N 
ATOM      9  O   UNL     1       5.558   3.868  13.259  0.00  0.00    +0.000 OA
ATOM     10  O   UNL     1       7.329   5.164  13.230  0.00  0.00    +0.000 OA
ENDBRANCH   4   8
BRANCH   7  11
ATOM     11  O   UNL     1       6.311   4.905  19.438  0.00  0.00    +0.000 OA
ATOM     12  C   UNL     1       7.469   5.541  19.963  0.00  0.00    +0.000 C 
ENDBRANCH   7  11
ENDBRANCH   1   2
BRANCH   1  13
ATOM     13  S   UNL     1       2.534   3.945  17.597  0.00  0.00    +0.000 S 
ATOM     14  O   UNL     1       1.265   4.519  17.219  0.00  0.00    +0.000 OA
ATOM     15  O   UNL     1       3.146   2.897  16.802  0.00  0.00    +0.000 OA
BRANCH  13  16
ATOM     16  C   UNL     1       2.345   3.302  19.257  0.00  0.00    +0.000 A 
ATOM     17  C   UNL     1       3.452   2.760  19.920  0.00  0.00    +0.000 A 
ATOM     18  C   UNL     1       3.336   2.382  21.263  0.00  0.00    +0.000 A 
ATOM     19  C   UNL     1       2.122   2.549  21.942  0.00  0.00    +0.000 A 
ATOM     20  C   UNL     1       1.023   3.076  21.274  0.00  0.00    +0.000 A 
ATOM     21  C   UNL     1       1.131   3.471  19.936  0.00  0.00    +0.000 A 
ENDBRANCH  13  16
ENDBRANCH   1  13
BRANCH   1  22
ATOM     22  C   UNL     1       3.428   6.253  18.786  0.00  0.00    +0.000 C 
BRANCH  22  23
ATOM     23  C   UNL     1       2.487   7.365  18.292  0.00  0.00    +0.000 C 
BRANCH  23  24
ATOM     24  O   UNL     1       3.303   8.364  17.658  0.00  0.00    +0.000 OA
ATOM     25  H   UNL     1       3.949   8.684  18.313  0.00  0.00    +0.000 HD
ENDBRANCH  23  24
BRANCH  23  26
ATOM     26  C   UNL     1       1.628   8.002  19.423  0.00  0.00    +0.000 C 
BRANCH  26  27
ATOM     27  N   UNL     1       1.339   9.459  19.262  0.00  0.00    +0.000 NA
BRANCH  27  28
ATOM     28  C   UNL     1       0.987  10.084  20.559  0.00  0.00    +0.000 C 
BRANCH  28  29
ATOM     29  C   UNL     1       0.956   9.173  21.798  0.00  0.00    +0.000 C 
BRANCH  29  30
ATOM     30  C   UNL     1      -0.396   9.127  22.511  0.00  0.00    +0.000 C 
ATOM     31  C   UNL     1      -0.819  10.525  22.947  0.00  0.00    +0.000 C 
ENDBRANCH  29  30
ENDBRANCH  28  29
ENDBRANCH  27  28
BRANCH  27  32
ATOM     32  C   UNL     1       0.227   9.638  18.292  0.00  0.00    +0.000 C 
BRANCH  32  33
ATOM     33  C   UNL     1      -1.085  10.251  18.803  0.00  0.00    +0.000 C 
BRANCH  33  35
ATOM     34  C   UNL     1      -1.867  12.509  19.536  0.00  0.00    +0.000 C 
ATOM     35  C   UNL     1      -1.308  11.700  18.375  0.00  0.00    +0.000 C 
ENDBRANCH  33  35
ENDBRANCH  32  33
ENDBRANCH  27  32
ENDBRANCH  26  27
ENDBRANCH  23  26
ENDBRANCH  22  23
ENDBRANCH   1  22
TORSDOF 16
ENDMDL
MODEL 2
REMARK VINA RESULT:      -6.7      0.679      1.263
REMARK  Name = 
REMARK  19 active torsions:
REMARK  status: ('A' for Active; 'I' for Inactive)
REMARK    1  A    between atoms: C_1  and  C_2
REMARK    2  A    between atoms: C_2  and  C_3
REMARK    3  A    between atoms: C_3  and  C_4
REMARK    4  A    between atoms: C_4  and  N_5
REMARK    5  A    between atoms: N_5  and  C_6
REMARK    6  A    between atoms: N_5  and  C_10
REMARK    7  A    between atoms: C_6  and  C_7
REMARK    8  A    between atoms: C_7  and  C_8
REMARK    9  A    between atoms: C_8  and  C_9
REMARK   10  A    between atoms: C_10  and  C_11
REMARK   11  A    between atoms: C_11  and  O_12
REMARK   12  A    between atoms: C_11  and  C_13
REMARK   13  A    between atoms: C_13  and  N_14
REMARK   14  A    between atoms: N_14  and  C_15
REMARK   15  A    between atoms: N_14  and  S_26
REMARK   16  A    between atoms: C_17  and  N_18
REMARK   17  A    between atoms: C_23  and  O_24
REMARK   18  A    between atoms: O_24  and  C_25
REMARK   19  A    between atoms: S_26  and  C_29
REMARK                            x       y       z     vdW  Elec       q    Type
REMARK                         _______ _______ _______ _____ _____    ______ ____
ROOT
ATOM      1  N   UNL     1       3.596   4.933  17.479  0.00  0.00    +0.000 N 
ENDROOT
BRANCH   1   2
ATOM      2  C   UNL     1       4.931   4.722  16.982  0.00  0.00    +0.000 A 
ATOM      3  C   UNL     1       5.025   4.600  15.584  0.00  0.00    +0.000 A 
ATOM      4  C   UNL     1       6.266   4.451  14.957  0.00  0.00    +0.000 A 
ATOM      5  C   UNL     1       7.440   4.449  15.706  0.00  0.00    +0.000 A 
ATOM      6  C   UNL     1       7.350   4.549  17.098  0.00  0.00    +0.000 A 
ATOM      7  C   UNL     1       6.108   4.657  17.754  0.00  0.00    +0.000 A 
BRANCH   4   8
ATOM      8  N   UNL     1       6.324   4.291  13.499  0.00  0.00    +0.000 N 
ATOM      9  O   UNL     1       7.289   4.794  12.905  0.00  0.00    +0.000 OA
ATOM     10  O   UNL     1       5.409   3.663  12.950  0.00  0.00    +0.000 OA
ENDBRANCH   4   8
BRANCH   7  11
ATOM     11  O   UNL     1       6.247   4.810  19.106  0.00  0.00    +0.000 OA
ATOM     12  C   UNL     1       7.274   5.663  19.593  0.00  0.00    +0.000 C 
ENDBRANCH   7  11
ENDBRANCH   1   2
BRANCH   1  13
ATOM     13  S   UNL     1       2.563   3.582  17.537  0.00  0.00    +0.000 S 
ATOM     14  O   UNL     1       1.257   3.953  17.046  0.00  0.00    +0.000 OA
ATOM     15  O   UNL     1       3.279   2.453  16.973  0.00  0.00    +0.000 OA
BRANCH  13  16
ATOM     16  C   UNL     1       2.397   3.275  19.292  0.00  0.00    +0.000 A 
ATOM     17  C   UNL     1       1.131   3.332  19.888  0.00  0.00    +0.000 A 
ATOM     18  C   UNL     1       0.984   2.959  21.230  0.00  0.00    +0.000 A 
ATOM     19  C   UNL     1       2.092   2.527  21.971  0.00  0.00    +0.000 A 
ATOM     20  C   UNL     1       3.347   2.486  21.376  0.00  0.00    +0.000 A 
ATOM     21  C   UNL     1       3.505   2.842  20.032  0.00  0.00    +0.000 A 
ENDBRANCH  13  16
ENDBRANCH   1  13
BRANCH   1  22
ATOM     22  C   UNL     1       3.268   6.127  18.289  0.00  0.00    +0.000 C 
BRANCH  22  23
ATOM     23  C   UNL     1       3.133   7.426  17.476  0.00  0.00    +0.000 C 
BRANCH  23  24
ATOM     24  O   UNL     1       4.280   8.238  17.777  0.00  0.00    +0.000 OA
ATOM     25  H   UNL     1       5.078   7.696  17.638  0.00  0.00    +0.000 HD
ENDBRANCH  23  24
BRANCH  23  26
ATOM     26  C   UNL     1       1.820   8.210  17.767  0.00  0.00    +0.000 C 
BRANCH  26  27
ATOM     27  N   UNL     1       1.847   9.069  18.989  0.00  0.00    +0.000 NA
BRANCH  27  28
ATOM     28  C   UNL     1       1.542   8.282  20.207  0.00  0.00    +0.000 C 
BRANCH  28  29
ATOM     29  C   UNL     1       0.468   8.837  21.157  0.00  0.00    +0.000 C 
BRANCH  29  30
ATOM     30  C   UNL     1       1.003   9.288  22.517  0.00  0.00    +0.000 C 
ATOM     31  C   UNL     1      -0.144   9.509  23.496  0.00  0.00    +0.000 C 
ENDBRANCH  29  30
ENDBRANCH  28  29
ENDBRANCH  27  28
BRANCH  27  32
ATOM     32  C   UNL     1       0.864  10.174  18.837  0.00  0.00    +0.000 C 
BRANCH  32  33
ATOM     33  C   UNL     1      -0.316   9.963  17.877  0.00  0.00    +0.000 C 
BRANCH  33  35
ATOM     34  C   UNL     1      -1.405  11.454  19.561  0.00  0.00    +0.000 C 
ATOM     35  C   UNL     1      -1.531  10.840  18.174  0.00  0.00    +0.000 C 
ENDBRANCH  33  35
ENDBRANCH  32  33
ENDBRANCH  27  32
ENDBRANCH  26  27
ENDBRANCH  23  26
ENDBRANCH  22  23
ENDBRANCH   1  22
TORSDOF 16
ENDMDL
MODEL 3
REMARK VINA RESULT:      -6.7      1.329      2.386
REMARK  Name = 
REMARK  19 active torsions:
REMARK  status: ('A' for Active; 'I' for Inactive)
REMARK    1  A    between atoms: C_1  and  C_2
REMARK    2  A    between atoms: C_2  and  C_3
REMARK    3  A    between atoms: C_3  and  C_4
REMARK    4  A    between atoms: C_4  and  N_5
REMARK    5  A    between atoms: N_5  and  C_6
REMARK    6  A    between atoms: N_5  and  C_10
REMARK    7  A    between atoms: C_6  and  C_7
REMARK    8  A    between atoms: C_7  and  C_8
REMARK    9  A    between atoms: C_8  and  C_9
REMARK   10  A    between atoms: C_10  and  C_11
REMARK   11  A    between atoms: C_11  and  O_12
REMARK   12  A    between atoms: C_11  and  C_13
REMARK   13  A    between atoms: C_13  and  N_14
REMARK   14  A    between atoms: N_14  and  C_15
REMARK   15  A    between atoms: N_14  and  S_26
REMARK   16  A    between atoms: C_17  and  N_18
REMARK   17  A    between atoms: C_23  and  O_24
REMARK   18  A    between atoms: O_24  and  C_25
REMARK   19  A    between atoms: S_26  and  C_29
REMARK                            x       y       z     vdW  Elec       q    Type
REMARK                         _______ _______ _______ _____ _____    ______ ____
ROOT
ATOM      1  N   UNL     1       3.643   4.164  17.192  0.00  0.00    +0.000 N 
ENDROOT
BRANCH   1   2
ATOM      2  C   UNL     1       5.023   4.327  16.815  0.00  0.00    +0.000 A 
ATOM      3  C   UNL     1       5.255   4.342  15.427  0.00  0.00    +0.000 A 
ATOM      4  C   UNL     1       6.540   4.552  14.916  0.00  0.00    +0.000 A 
ATOM      5  C   UNL     1       7.613   4.780  15.774  0.00  0.00    +0.000 A 
ATOM      6  C   UNL     1       7.391   4.744  17.154  0.00  0.00    +0.000 A 
ATOM      7  C   UNL     1       6.113   4.492  17.692  0.00  0.00    +0.000 A 
BRANCH   4   8
ATOM      8  N   UNL     1       6.751   4.526  13.463  0.00  0.00    +0.000 N 
ATOM      9  O   UNL     1       6.087   3.714  12.802  0.00  0.00    +0.000 OA
ATOM     10  O   UNL     1       7.577   5.314  12.985  0.00  0.00    +0.000 OA
ENDBRANCH   4   8
BRANCH   7  11
ATOM     11  O   UNL     1       6.102   4.568  19.058  0.00  0.00    +0.000 OA
ATOM     12  C   UNL     1       7.051   5.407  19.701  0.00  0.00    +0.000 C 
ENDBRANCH   7  11
ENDBRANCH   1   2
BRANCH   1  13
ATOM     13  S   UNL     1       3.128   2.597  17.610  0.00  0.00    +0.000 S 
ATOM     14  O   UNL     1       2.008   2.219  16.781  0.00  0.00    +0.000 OA
ATOM     15  O   UNL     1       4.306   1.754  17.703  0.00  0.00    +0.000 OA
BRANCH  13  16
ATOM     16  C   UNL     1       2.502   2.807  19.273  0.00  0.00    +0.000 A 
ATOM     17  C   UNL     1       1.146   3.092  19.472  0.00  0.00    +0.000 A 
ATOM     18  C   UNL     1       0.630   3.122  20.774  0.00  0.00    +0.000 A 
ATOM     19  C   UNL     1       1.463   2.864  21.871  0.00  0.00    +0.000 A 
ATOM     20  C   UNL     1       2.811   2.595  21.667  0.00  0.00    +0.000 A 
ATOM     21  C   UNL     1       3.334   2.548  20.370  0.00  0.00    +0.000 A 
ENDBRANCH  13  16
ENDBRANCH   1  13
BRANCH   1  22
ATOM     22  C   UNL     1       2.828   5.326  17.611  0.00  0.00    +0.000 C 
BRANCH  22  23
ATOM     23  C   UNL     1       3.611   6.402  18.383  0.00  0.00    +0.000 C 
BRANCH  23  24
ATOM     24  O   UNL     1       3.625   6.011  19.765  0.00  0.00    +0.000 OA
ATOM     25  H   UNL     1       3.348   5.078  19.817  0.00  0.00    +0.000 HD
ENDBRANCH  23  24
BRANCH  23  26
ATOM     26  C   UNL     1       3.017   7.834  18.229  0.00  0.00    +0.000 C 
BRANCH  26  27
ATOM     27  N   UNL     1       1.679   8.042  18.859  0.00  0.00    +0.000 NA
BRANCH  27  28
ATOM     28  C   UNL     1       1.067   9.315  18.413  0.00  0.00    +0.000 C 
BRANCH  28  29
ATOM     29  C   UNL     1       2.016  10.483  18.095  0.00  0.00    +0.000 C 
BRANCH  29  30
ATOM     30  C   UNL     1       1.491  11.855  18.522  0.00  0.00    +0.000 C 
ATOM     31  C   UNL     1       1.120  11.849  20.000  0.00  0.00    +0.000 C 
ENDBRANCH  29  30
ENDBRANCH  28  29
ENDBRANCH  27  28
BRANCH  27  32
ATOM     32  C   UNL     1       1.823   8.036  20.338  0.00  0.00    +0.000 C 
BRANCH  32  33
ATOM     33  C   UNL     1       0.588   8.381  21.184  0.00  0.00    +0.000 C 
BRANCH  33  35
ATOM     34  C   UNL     1      -0.367   9.863  22.955  0.00  0.00    +0.000 C 
ATOM     35  C   UNL     1       0.897   9.188  22.443  0.00  0.00    +0.000 C 
ENDBRANCH  33  35
ENDBRANCH  32  33
ENDBRANCH  27  32
ENDBRANCH  26  27
ENDBRANCH  23  26
ENDBRANCH  22  23
ENDBRANCH   1  22
TORSDOF 16
ENDMDL
MODEL 4
REMARK VINA RESULT:      -6.6      1.360      2.130
REMARK  Name = 
REMARK  19 active torsions:
REMARK  status: ('A' for Active; 'I' for Inactive)
REMARK    1  A    between atoms: C_1  and  C_2
REMARK    2  A    between atoms: C_2  and  C_3
REMARK    3  A    between atoms: C_3  and  C_4
REMARK    4  A    between atoms: C_4  and  N_5
REMARK    5  A    between atoms: N_5  and  C_6
REMARK    6  A    between atoms: N_5  and  C_10
REMARK    7  A    between atoms: C_6  and  C_7
REMARK    8  A    between atoms: C_7  and  C_8
REMARK    9  A    between atoms: C_8  and  C_9
REMARK   10  A    between atoms: C_10  and  C_11
REMARK   11  A    between atoms: C_11  and  O_12
REMARK   12  A    between atoms: C_11  and  C_13
REMARK   13  A    between atoms: C_13  and  N_14
REMARK   14  A    between atoms: N_14  and  C_15
REMARK   15  A    between atoms: N_14  and  S_26
REMARK   16  A    between atoms: C_17  and  N_18
REMARK   17  A    between atoms: C_23  and  O_24
REMARK   18  A    between atoms: O_24  and  C_25
REMARK   19  A    between atoms: S_26  and  C_29
REMARK                            x       y       z     vdW  Elec       q    Type
REMARK                         _______ _______ _______ _____ _____    ______ ____
ROOT
ATOM      1  N   UNL     1       3.487   5.317  17.674  0.00  0.00    +0.000 N 
ENDROOT
BRANCH   1   2
ATOM      2  C   UNL     1       4.818   5.066  17.185  0.00  0.00    +0.000 A 
ATOM      3  C   UNL     1       4.903   4.847  15.798  0.00  0.00    +0.000 A 
ATOM      4  C   UNL     1       6.139   4.649  15.175  0.00  0.00    +0.000 A 
ATOM      5  C   UNL     1       7.318   4.693  15.917  0.00  0.00    +0.000 A 
ATOM      6  C   UNL     1       7.237   4.889  17.299  0.00  0.00    +0.000 A 
ATOM      7  C   UNL     1       5.999   5.048  17.952  0.00  0.00    +0.000 A 
BRANCH   4   8
ATOM      8  N   UNL     1       6.187   4.389  13.732  0.00  0.00    +0.000 N 
ATOM      9  O   UNL     1       5.202   3.840  13.216  0.00  0.00    +0.000 OA
ATOM     10  O   UNL     1       7.205   4.732  13.116  0.00  0.00    +0.000 OA
ENDBRANCH   4   8
BRANCH   7  11
ATOM     11  O   UNL     1       6.147   5.294  19.290  0.00  0.00    +0.000 OA
ATOM     12  C   UNL     1       7.441   5.614  19.785  0.00  0.00    +0.000 C 
ENDBRANCH   7  11
ENDBRANCH   1   2
BRANCH   1  13
ATOM     13  S   UNL     1       2.381   4.025  17.626  0.00  0.00    +0.000 S 
ATOM     14  O   UNL     1       1.075   4.521  17.263  0.00  0.00    +0.000 OA
ATOM     15  O   UNL     1       3.000   2.941  16.886  0.00  0.00    +0.000 OA
BRANCH  13  16
ATOM     16  C   UNL     1       2.289   3.508  19.336  0.00  0.00    +0.000 A 
ATOM     17  C   UNL     1       1.065   3.568  20.013  0.00  0.00    +0.000 A 
ATOM     18  C   UNL     1       0.965   3.037  21.306  0.00  0.00    +0.000 A 
ATOM     19  C   UNL     1       2.078   2.445  21.916  0.00  0.00    +0.000 A 
ATOM     20  C   UNL     1       3.293   2.400  21.243  0.00  0.00    +0.000 A 
ATOM     21  C   UNL     1       3.402   2.914  19.946  0.00  0.00    +0.000 A 
ENDBRANCH  13  16
ENDBRANCH   1  13
BRANCH   1  22
ATOM     22  C   UNL     1       3.209   6.472  18.556  0.00  0.00    +0.000 C 
BRANCH  22  23
ATOM     23  C   UNL     1       2.386   7.591  17.894  0.00  0.00    +0.000 C 
BRANCH  23  24
ATOM     24  O   UNL     1       3.243   8.244  16.942  0.00  0.00    +0.000 OA
ATOM     25  H   UNL     1       2.795   8.232  16.077  0.00  0.00    +0.000 HD
ENDBRANCH  23  24
BRANCH  23  26
ATOM     26  C   UNL     1       1.811   8.624  18.907  0.00  0.00    +0.000 C 
BRANCH  26  27
ATOM     27  N   UNL     1       1.312   9.897  18.307  0.00  0.00    +0.000 NA
BRANCH  27  28
ATOM     28  C   UNL     1       1.345  11.005  19.290  0.00  0.00    +0.000 C 
BRANCH  28  29
ATOM     29  C   UNL     1       1.251  12.439  18.742  0.00  0.00    +0.000 C 
BRANCH  29  30
ATOM     30  C   UNL     1       2.250  13.417  19.362  0.00  0.00    +0.000 C 
ATOM     31  C   UNL     1       3.271  13.868  18.324  0.00  0.00    +0.000 C 
ENDBRANCH  29  30
ENDBRANCH  28  29
ENDBRANCH  27  28
BRANCH  27  32
ATOM     32  C   UNL     1      -0.074   9.699  17.809  0.00  0.00    +0.000 C 
BRANCH  32  33
ATOM     33  C   UNL     1      -1.235  10.134  18.716  0.00  0.00    +0.000 C 
BRANCH  33  35
ATOM     34  C   UNL     1      -2.456   9.940  16.543  0.00  0.00    +0.000 C 
ATOM     35  C   UNL     1      -2.522  10.475  17.966  0.00  0.00    +0.000 C 
ENDBRANCH  33  35
ENDBRANCH  32  33
ENDBRANCH  27  32
ENDBRANCH  26  27
ENDBRANCH  23  26
ENDBRANCH  22  23
ENDBRANCH   1  22
TORSDOF 16
ENDMDL
MODEL 5
REMARK VINA RESULT:      -6.6      1.116      1.545
REMARK  Name = 
REMARK  19 active torsions:
REMARK  status: ('A' for Active; 'I' for Inactive)
REMARK    1  A    between atoms: C_1  and  C_2
REMARK    2  A    between atoms: C_2  and  C_3
REMARK    3  A    between atoms: C_3  and  C_4
REMARK    4  A    between atoms: C_4  and  N_5
REMARK    5  A    between atoms: N_5  and  C_6
REMARK    6  A    between atoms: N_5  and  C_10
REMARK    7  A    between atoms: C_6  and  C_7
REMARK    8  A    between atoms: C_7  and  C_8
REMARK    9  A    between atoms: C_8  and  C_9
REMARK   10  A    between atoms: C_10  and  C_11
REMARK   11  A    between atoms: C_11  and  O_12
REMARK   12  A    between atoms: C_11  and  C_13
REMARK   13  A    between atoms: C_13  and  N_14
REMARK   14  A    between atoms: N_14  and  C_15
REMARK   15  A    between atoms: N_14  and  S_26
REMARK   16  A    between atoms: C_17  and  N_18
REMARK   17  A    between atoms: C_23  and  O_24
REMARK   18  A    between atoms: O_24  and  C_25
REMARK   19  A    between atoms: S_26  and  C_29
REMARK                            x       y       z     vdW  Elec       q    Type
REMARK                         _______ _______ _______ _____ _____    ______ ____
ROOT
ATOM      1  N   UNL     1       3.575   4.024  17.218  0.00  0.00    +0.000 N 
ENDROOT
BRANCH   1   2
ATOM      2  C   UNL     1       4.946   4.259  16.845  0.00  0.00    +0.000 A 
ATOM      3  C   UNL     1       5.187   4.256  15.459  0.00  0.00    +0.000 A 
ATOM      4  C   UNL     1       6.461   4.529  14.951  0.00  0.00    +0.000 A 
ATOM      5  C   UNL     1       7.513   4.837  15.810  0.00  0.00    +0.000 A 
ATOM      6  C   UNL     1       7.283   4.819  17.190  0.00  0.00    +0.000 A 
ATOM      7  C   UNL     1       6.017   4.506  17.725  0.00  0.00    +0.000 A 
BRANCH   4   8
ATOM      8  N   UNL     1       6.684   4.483  13.501  0.00  0.00    +0.000 N 
ATOM      9  O   UNL     1       6.021   3.667  12.845  0.00  0.00    +0.000 OA
ATOM     10  O   UNL     1       7.518   5.261  13.020  0.00  0.00    +0.000 OA
ENDBRANCH   4   8
BRANCH   7  11
ATOM     11  O   UNL     1       5.992   4.611  19.089  0.00  0.00    +0.000 OA
ATOM     12  C   UNL     1       6.965   5.427  19.728  0.00  0.00    +0.000 C 
ENDBRANCH   7  11
ENDBRANCH   1   2
BRANCH   1  13
ATOM     13  S   UNL     1       3.159   2.451  17.717  0.00  0.00    +0.000 S 
ATOM     14  O   UNL     1       2.086   1.950  16.892  0.00  0.00    +0.000 OA
ATOM     15  O   UNL     1       4.390   1.699  17.879  0.00  0.00    +0.000 OA
BRANCH  13  16
ATOM     16  C   UNL     1       2.485   2.712  19.354  0.00  0.00    +0.000 A 
ATOM     17  C   UNL     1       1.107   2.901  19.514  0.00  0.00    +0.000 A 
ATOM     18  C   UNL     1       0.565   2.969  20.803  0.00  0.00    +0.000 A 
ATOM     19  C   UNL     1       1.393   2.844  21.927  0.00  0.00    +0.000 A 
ATOM     20  C   UNL     1       2.761   2.670  21.761  0.00  0.00    +0.000 A 
ATOM     21  C   UNL     1       3.313   2.586  20.477  0.00  0.00    +0.000 A 
ENDBRANCH  13  16
ENDBRANCH   1  13
BRANCH   1  22
ATOM     22  C   UNL     1       2.679   5.150  17.563  0.00  0.00    +0.000 C 
BRANCH  22  23
ATOM     23  C   UNL     1       3.406   6.400  18.088  0.00  0.00    +0.000 C 
BRANCH  23  24
ATOM     24  O   UNL     1       3.588   6.225  19.503  0.00  0.00    +0.000 OA
ATOM     25  H   UNL     1       2.716   6.305  19.930  0.00  0.00    +0.000 HD
ENDBRANCH  23  24
BRANCH  23  26
ATOM     26  C   UNL     1       2.650   7.729  17.797  0.00  0.00    +0.000 C 
BRANCH  26  27
ATOM     27  N   UNL     1       2.345   8.566  18.995  0.00  0.00    +0.000 NA
BRANCH  27  28
ATOM     28  C   UNL     1       1.467   7.844  19.946  0.00  0.00    +0.000 C 
BRANCH  28  29
ATOM     29  C   UNL     1       1.238   8.488  21.324  0.00  0.00    +0.000 C 
BRANCH  29  30
ATOM     30  C   UNL     1      -0.234   8.689  21.688  0.00  0.00    +0.000 C 
ATOM     31  C   UNL     1      -0.362   9.519  22.960  0.00  0.00    +0.000 C 
ENDBRANCH  29  30
ENDBRANCH  28  29
ENDBRANCH  27  28
BRANCH  27  32
ATOM     32  C   UNL     1       1.696   9.831  18.562  0.00  0.00    +0.000 C 
BRANCH  32  33
ATOM     33  C   UNL     1       0.313   9.742  17.900  0.00  0.00    +0.000 C 
BRANCH  33  35
ATOM     34  C   UNL     1      -0.079  11.635  19.484  0.00  0.00    +0.000 C 
ATOM     35  C   UNL     1      -0.738  10.663  18.517  0.00  0.00    +0.000 C 
ENDBRANCH  33  35
ENDBRANCH  32  33
ENDBRANCH  27  32
ENDBRANCH  26  27
ENDBRANCH  23  26
ENDBRANCH  22  23
ENDBRANCH   1  22
TORSDOF 16
ENDMDL
MODEL 6
REMARK VINA RESULT:      -6.5      0.944      2.067
REMARK  Name = 
REMARK  19 active torsions:
REMARK  status: ('A' for Active; 'I' for Inactive)
REMARK    1  A    between atoms: C_1  and  C_2
REMARK    2  A    between atoms: C_2  and  C_3
REMARK    3  A    between atoms: C_3  and  C_4
REMARK    4  A    between atoms: C_4  and  N_5
REMARK    5  A    between atoms: N_5  and  C_6
REMARK    6  A    between atoms: N_5  and  C_10
REMARK    7  A    between atoms: C_6  and  C_7
REMARK    8  A    between atoms: C_7  and  C_8
REMARK    9  A    between atoms: C_8  and  C_9
REMARK   10  A    between atoms: C_10  and  C_11
REMARK   11  A    between atoms: C_11  and  O_12
REMARK   12  A    between atoms: C_11  and  C_13
REMARK   13  A    between atoms: C_13  and  N_14
REMARK   14  A    between atoms: N_14  and  C_15
REMARK   15  A    between atoms: N_14  and  S_26
REMARK   16  A    between atoms: C_17  and  N_18
REMARK   17  A    between atoms: C_23  and  O_24
REMARK   18  A    between atoms: O_24  and  C_25
REMARK   19  A    between atoms: S_26  and  C_29
REMARK                            x       y       z     vdW  Elec       q    Type
REMARK                         _______ _______ _______ _____ _____    ______ ____
ROOT
ATOM      1  N   UNL     1       3.685   5.144  17.870  0.00  0.00    +0.000 N 
ENDROOT
BRANCH   1   2
ATOM      2  C   UNL     1       5.028   4.955  17.384  0.00  0.00    +0.000 A 
ATOM      3  C   UNL     1       5.136   4.843  15.986  0.00  0.00    +0.000 A 
ATOM      4  C   UNL     1       6.385   4.714  15.370  0.00  0.00    +0.000 A 
ATOM      5  C   UNL     1       7.552   4.723  16.131  0.00  0.00    +0.000 A 
ATOM      6  C   UNL     1       7.447   4.813  17.523  0.00  0.00    +0.000 A 
ATOM      7  C   UNL     1       6.197   4.901  18.167  0.00  0.00    +0.000 A 
BRANCH   4   8
ATOM      8  N   UNL     1       6.459   4.563  13.912  0.00  0.00    +0.000 N 
ATOM      9  O   UNL     1       5.647   3.795  13.374  0.00  0.00    +0.000 OA
ATOM     10  O   UNL     1       7.323   5.211  13.307  0.00  0.00    +0.000 OA
ENDBRANCH   4   8
BRANCH   7  11
ATOM     11  O   UNL     1       6.322   5.047  19.521  0.00  0.00    +0.000 OA
ATOM     12  C   UNL     1       7.563   5.498  20.047  0.00  0.00    +0.000 C 
ENDBRANCH   7  11
ENDBRANCH   1   2
BRANCH   1  13
ATOM     13  S   UNL     1       2.581   3.873  17.628  0.00  0.00    +0.000 S 
ATOM     14  O   UNL     1       1.319   4.409  17.175  0.00  0.00    +0.000 OA
ATOM     15  O   UNL     1       3.262   2.832  16.881  0.00  0.00    +0.000 OA
BRANCH  13  16
ATOM     16  C   UNL     1       2.319   3.245  19.284  0.00  0.00    +0.000 A 
ATOM     17  C   UNL     1       3.398   2.718  20.003  0.00  0.00    +0.000 A 
ATOM     18  C   UNL     1       3.222   2.353  21.344  0.00  0.00    +0.000 A 
ATOM     19  C   UNL     1       1.977   2.518  21.964  0.00  0.00    +0.000 A 
ATOM     20  C   UNL     1       0.907   3.030  21.240  0.00  0.00    +0.000 A 
ATOM     21  C   UNL     1       1.074   3.412  19.904  0.00  0.00    +0.000 A 
ENDBRANCH  13  16
ENDBRANCH   1  13
BRANCH   1  22
ATOM     22  C   UNL     1       3.386   6.177  18.887  0.00  0.00    +0.000 C 
BRANCH  22  23
ATOM     23  C   UNL     1       2.321   7.200  18.457  0.00  0.00    +0.000 C 
BRANCH  23  24
ATOM     24  O   UNL     1       2.515   7.454  17.056  0.00  0.00    +0.000 OA
ATOM     25  H   UNL     1       2.087   8.303  16.842  0.00  0.00    +0.000 HD
ENDBRANCH  23  24
BRANCH  23  26
ATOM     26  C   UNL     1       2.373   8.530  19.264  0.00  0.00    +0.000 C 
BRANCH  26  27
ATOM     27  N   UNL     1       1.053   9.043  19.737  0.00  0.00    +0.000 NA
BRANCH  27  28
ATOM     28  C   UNL     1       0.761  10.381  19.171  0.00  0.00    +0.000 C 
BRANCH  28  29
ATOM     29  C   UNL     1       1.034  11.602  20.066  0.00  0.00    +0.000 C 
BRANCH  29  30
ATOM     30  C   UNL     1       1.793  12.734  19.372  0.00  0.00    +0.000 C 
ATOM     31  C   UNL     1       2.442  12.233  18.086  0.00  0.00    +0.000 C 
ENDBRANCH  29  30
ENDBRANCH  28  29
ENDBRANCH  27  28
BRANCH  27  32
ATOM     32  C   UNL     1       1.050   9.105  21.222  0.00  0.00    +0.000 C 
BRANCH  32  33
ATOM     33  C   UNL     1      -0.273   8.829  21.953  0.00  0.00    +0.000 C 
BRANCH  33  35
ATOM     34  C   UNL     1      -1.119  10.946  22.978  0.00  0.00    +0.000 C 
ATOM     35  C   UNL     1      -0.445   9.610  23.254  0.00  0.00    +0.000 C 
ENDBRANCH  33  35
ENDBRANCH  32  33
ENDBRANCH  27  32
ENDBRANCH  26  27
ENDBRANCH  23  26
ENDBRANCH  22  23
ENDBRANCH   1  22
TORSDOF 16
ENDMDL
MODEL 7
REMARK VINA RESULT:      -6.5      0.761      1.970
REMARK  Name = 
REMARK  19 active torsions:
REMARK  status: ('A' for Active; 'I' for Inactive)
REMARK    1  A    between atoms: C_1  and  C_2
REMARK    2  A    between atoms: C_2  and  C_3
REMARK    3  A    between atoms: C_3  and  C_4
REMARK    4  A    between atoms: C_4  and  N_5
REMARK    5  A    between atoms: N_5  and  C_6
REMARK    6  A    between atoms: N_5  and  C_10
REMARK    7  A    between atoms: C_6  and  C_7
REMARK    8  A    between atoms: C_7  and  C_8
REMARK    9  A    between atoms: C_8  and  C_9
REMARK   10  A    between atoms: C_10  and  C_11
REMARK   11  A    between atoms: C_11  and  O_12
REMARK   12  A    between atoms: C_11  and  C_13
REMARK   13  A    between atoms: C_13  and  N_14
REMARK   14  A    between atoms: N_14  and  C_15
REMARK   15  A    between atoms: N_14  and  S_26
REMARK   16  A    between atoms: C_17  and  N_18
REMARK   17  A    between atoms: C_23  and  O_24
REMARK   18  A    between atoms: O_24  and  C_25
REMARK   19  A    between atoms: S_26  and  C_29
REMARK                            x       y       z     vdW  Elec       q    Type
REMARK                         _______ _______ _______ _____ _____    ______ ____
ROOT
ATOM      1  N   UNL     1       3.696   5.015  17.889  0.00  0.00    +0.000 N 
ENDROOT
BRANCH   1   2
ATOM      2  C   UNL     1       4.985   4.789  17.290  0.00  0.00    +0.000 A 
ATOM      3  C   UNL     1       4.966   4.647  15.890  0.00  0.00    +0.000 A 
ATOM      4  C   UNL     1       6.152   4.481  15.168  0.00  0.00    +0.000 A 
ATOM      5  C   UNL     1       7.382   4.482  15.822  0.00  0.00    +0.000 A 
ATOM      6  C   UNL     1       7.405   4.601  17.215  0.00  0.00    +0.000 A 
ATOM      7  C   UNL     1       6.219   4.727  17.966  0.00  0.00    +0.000 A 
BRANCH   4   8
ATOM      8  N   UNL     1       6.092   4.300  13.713  0.00  0.00    +0.000 N 
ATOM      9  O   UNL     1       7.096   4.609  13.055  0.00  0.00    +0.000 OA
ATOM     10  O   UNL     1       5.046   3.849  13.229  0.00  0.00    +0.000 OA
ENDBRANCH   4   8
BRANCH   7  11
ATOM     11  O   UNL     1       6.468   4.898  19.300  0.00  0.00    +0.000 OA
ATOM     12  C   UNL     1       7.595   5.670  19.690  0.00  0.00    +0.000 C 
ENDBRANCH   7  11
ENDBRANCH   1   2
BRANCH   1  13
ATOM     13  S   UNL     1       2.514   3.809  17.679  0.00  0.00    +0.000 S 
ATOM     14  O   UNL     1       1.272   4.416  17.265  0.00  0.00    +0.000 OA
ATOM     15  O   UNL     1       3.113   2.734  16.910  0.00  0.00    +0.000 OA
BRANCH  13  16
ATOM     16  C   UNL     1       2.268   3.191  19.340  0.00  0.00    +0.000 A 
ATOM     17  C   UNL     1       3.336   2.601  20.026  0.00  0.00    +0.000 A 
ATOM     18  C   UNL     1       3.180   2.242  21.370  0.00  0.00    +0.000 A 
ATOM     19  C   UNL     1       1.966   2.476  22.028  0.00  0.00    +0.000 A 
ATOM     20  C   UNL     1       0.905   3.050  21.338  0.00  0.00    +0.000 A 
ATOM     21  C   UNL     1       1.054   3.426  19.998  0.00  0.00    +0.000 A 
ENDBRANCH  13  16
ENDBRANCH   1  13
BRANCH   1  22
ATOM     22  C   UNL     1       3.527   6.009  18.973  0.00  0.00    +0.000 C 
BRANCH  22  23
ATOM     23  C   UNL     1       2.538   7.141  18.646  0.00  0.00    +0.000 C 
BRANCH  23  24
ATOM     24  O   UNL     1       3.151   7.966  17.641  0.00  0.00    +0.000 OA
ATOM     25  H   UNL     1       2.622   7.893  16.827  0.00  0.00    +0.000 HD
ENDBRANCH  23  24
BRANCH  23  26
ATOM     26  C   UNL     1       2.140   7.997  19.884  0.00  0.00    +0.000 C 
BRANCH  26  27
ATOM     27  N   UNL     1       0.928   8.850  19.707  0.00  0.00    +0.000 NA
BRANCH  27  28
ATOM     28  C   UNL     1       0.880   9.443  18.350  0.00  0.00    +0.000 C 
BRANCH  28  29
ATOM     29  C   UNL     1      -0.237  10.461  18.062  0.00  0.00    +0.000 C 
BRANCH  29  30
ATOM     30  C   UNL     1      -1.470   9.867  17.379  0.00  0.00    +0.000 C 
ATOM     31  C   UNL     1      -2.744  10.476  17.954  0.00  0.00    +0.000 C 
ENDBRANCH  29  30
ENDBRANCH  28  29
ENDBRANCH  27  28
BRANCH  27  32
ATOM     32  C   UNL     1       0.926   9.926  20.733  0.00  0.00    +0.000 C 
BRANCH  32  33
ATOM     33  C   UNL     1      -0.253   9.982  21.717  0.00  0.00    +0.000 C 
BRANCH  33  35
ATOM     34  C   UNL     1      -1.725  11.510  23.038  0.00  0.00    +0.000 C 
ATOM     35  C   UNL     1      -1.013  11.308  21.709  0.00  0.00    +0.000 C 
ENDBRANCH  33  35
ENDBRANCH  32  33
ENDBRANCH  27  32
ENDBRANCH  26  27
ENDBRANCH  23  26
ENDBRANCH  22  23
ENDBRANCH   1  22
TORSDOF 16
ENDMDL
MODEL 8
REMARK VINA RESULT:      -6.5      1.402      3.447
REMARK  Name = 
REMARK  19 active torsions:
REMARK  status: ('A' for Active; 'I' for Inactive)
REMARK    1  A    between atoms: C_1  and  C_2
REMARK    2  A    between atoms: C_2  and  C_3
REMARK    3  A    between atoms: C_3  and  C_4
REMARK    4  A    between atoms: C_4  and  N_5
REMARK    5  A    between atoms: N_5  and  C_6
REMARK    6  A    between atoms: N_5  and  C_10
REMARK    7  A    between atoms: C_6  and  C_7
REMARK    8  A    between atoms: C_7  and  C_8
REMARK    9  A    between atoms: C_8  and  C_9
REMARK   10  A    between atoms: C_10  and  C_11
REMARK   11  A    between atoms: C_11  and  O_12
REMARK   12  A    between atoms: C_11  and  C_13
REMARK   13  A    between atoms: C_13  and  N_14
REMARK   14  A    between atoms: N_14  and  C_15
REMARK   15  A    between atoms: N_14  and  S_26
REMARK   16  A    between atoms: C_17  and  N_18
REMARK   17  A    between atoms: C_23  and  O_24
REMARK   18  A    between atoms: O_24  and  C_25
REMARK   19  A    between atoms: S_26  and  C_29
REMARK                            x       y       z     vdW  Elec       q    Type
REMARK                         _______ _______ _______ _____ _____    ______ ____
ROOT
ATOM      1  N   UNL     1       3.363   5.438  17.688  0.00  0.00    +0.000 N 
ENDROOT
BRANCH   1   2
ATOM      2  C   UNL     1       4.767   5.349  17.378  0.00  0.00    +0.000 A 
ATOM      3  C   UNL     1       5.626   5.637  18.454  0.00  0.00    +0.000 A 
ATOM      4  C   UNL     1       7.013   5.533  18.313  0.00  0.00    +0.000 A 
ATOM      5  C   UNL     1       7.571   5.113  17.108  0.00  0.00    +0.000 A 
ATOM      6  C   UNL     1       6.722   4.846  16.030  0.00  0.00    +0.000 A 
ATOM      7  C   UNL     1       5.324   4.985  16.137  0.00  0.00    +0.000 A 
BRANCH   4   8
ATOM      8  N   UNL     1       7.881   5.876  19.447  0.00  0.00    +0.000 N 
ATOM      9  O   UNL     1       7.754   5.212  20.487  0.00  0.00    +0.000 OA
ATOM     10  O   UNL     1       8.687   6.803  19.298  0.00  0.00    +0.000 OA
ENDBRANCH   4   8
BRANCH   7  11
ATOM     11  O   UNL     1       4.678   4.611  14.990  0.00  0.00    +0.000 OA
ATOM     12  C   UNL     1       5.436   4.024  13.941  0.00  0.00    +0.000 C 
ENDBRANCH   7  11
ENDBRANCH   1   2
BRANCH   1  13
ATOM     13  S   UNL     1       2.450   4.005  17.596  0.00  0.00    +0.000 S 
ATOM     14  O   UNL     1       1.118   4.311  17.132  0.00  0.00    +0.000 OA
ATOM     15  O   UNL     1       3.262   3.006  16.926  0.00  0.00    +0.000 OA
BRANCH  13  16
ATOM     16  C   UNL     1       2.308   3.506  19.308  0.00  0.00    +0.000 A 
ATOM     17  C   UNL     1       1.055   3.518  19.932  0.00  0.00    +0.000 A 
ATOM     18  C   UNL     1       0.924   2.999  21.226  0.00  0.00    +0.000 A 
ATOM     19  C   UNL     1       2.035   2.466  21.892  0.00  0.00    +0.000 A 
ATOM     20  C   UNL     1       3.279   2.468  21.271  0.00  0.00    +0.000 A 
ATOM     21  C   UNL     1       3.420   2.971  19.972  0.00  0.00    +0.000 A 
ENDBRANCH  13  16
ENDBRANCH   1  13
BRANCH   1  22
ATOM     22  C   UNL     1       2.827   6.587  18.451  0.00  0.00    +0.000 C 
BRANCH  22  23
ATOM     23  C   UNL     1       2.300   7.738  17.578  0.00  0.00    +0.000 C 
BRANCH  23  24
ATOM     24  O   UNL     1       3.222   7.902  16.487  0.00  0.00    +0.000 OA
ATOM     25  H   UNL     1       2.706   8.085  15.682  0.00  0.00    +0.000 HD
ENDBRANCH  23  24
BRANCH  23  26
ATOM     26  C   UNL     1       2.128   9.078  18.350  0.00  0.00    +0.000 C 
BRANCH  26  27
ATOM     27  N   UNL     1       0.764   9.325  18.905  0.00  0.00    +0.000 NA
BRANCH  27  28
ATOM     28  C   UNL     1       0.329  10.721  18.664  0.00  0.00    +0.000 C 
BRANCH  28  29
ATOM     29  C   UNL     1      -1.138  10.944  18.258  0.00  0.00    +0.000 C 
BRANCH  29  30
ATOM     30  C   UNL     1      -1.687   9.902  17.282  0.00  0.00    +0.000 C 
ATOM     31  C   UNL     1      -3.205   9.812  17.395  0.00  0.00    +0.000 C 
ENDBRANCH  29  30
ENDBRANCH  28  29
ENDBRANCH  27  28
BRANCH  27  32
ATOM     32  C   UNL     1       0.763   9.035  20.363  0.00  0.00    +0.000 C 
BRANCH  32  33
ATOM     33  C   UNL     1       0.934  10.215  21.332  0.00  0.00    +0.000 C 
BRANCH  33  35
ATOM     34  C   UNL     1      -0.484   9.700  23.326  0.00  0.00    +0.000 C 
ATOM     35  C   UNL     1      -0.335  10.586  22.097  0.00  0.00    +0.000 C 
ENDBRANCH  33  35
ENDBRANCH  32  33
ENDBRANCH  27  32
ENDBRANCH  26  27
ENDBRANCH  23  26
ENDBRANCH  22  23
ENDBRANCH   1  22
TORSDOF 16
ENDMDL
MODEL 9
REMARK VINA RESULT:      -6.4      1.162      2.429
REMARK  Name = 
REMARK  19 active torsions:
REMARK  status: ('A' for Active; 'I' for Inactive)
REMARK    1  A    between atoms: C_1  and  C_2
REMARK    2  A    between atoms: C_2  and  C_3
REMARK    3  A    between atoms: C_3  and  C_4
REMARK    4  A    between atoms: C_4  and  N_5
REMARK    5  A    between atoms: N_5  and  C_6
REMARK    6  A    between atoms: N_5  and  C_10
REMARK    7  A    between atoms: C_6  and  C_7
REMARK    8  A    between atoms: C_7  and  C_8
REMARK    9  A    between atoms: C_8  and  C_9
REMARK   10  A    between atoms: C_10  and  C_11
REMARK   11  A    between atoms: C_11  and  O_12
REMARK   12  A    between atoms: C_11  and  C_13
REMARK   13  A    between atoms: C_13  and  N_14
REMARK   14  A    between atoms: N_14  and  C_15
REMARK   15  A    between atoms: N_14  and  S_26
REMARK   16  A    between atoms: C_17  and  N_18
REMARK   17  A    between atoms: C_23  and  O_24
REMARK   18  A    between atoms: O_24  and  C_25
REMARK   19  A    between atoms: S_26  and  C_29
REMARK                            x       y       z     vdW  Elec       q    Type
REMARK                         _______ _______ _______ _____ _____    ______ ____
ROOT
ATOM      1  N   UNL     1       3.947   4.647  17.633  0.00  0.00    +0.000 N 
ENDROOT
BRANCH   1   2
ATOM      2  C   UNL     1       5.125   4.785  16.815  0.00  0.00    +0.000 A 
ATOM      3  C   UNL     1       4.987   4.303  15.501  0.00  0.00    +0.000 A 
ATOM      4  C   UNL     1       6.030   4.424  14.577  0.00  0.00    +0.000 A 
ATOM      5  C   UNL     1       7.220   5.054  14.936  0.00  0.00    +0.000 A 
ATOM      6  C   UNL     1       7.369   5.515  16.247  0.00  0.00    +0.000 A 
ATOM      7  C   UNL     1       6.347   5.365  17.205  0.00  0.00    +0.000 A 
BRANCH   4   8
ATOM      8  N   UNL     1       5.864   3.878  13.225  0.00  0.00    +0.000 N 
ATOM      9  O   UNL     1       4.717   3.574  12.867  0.00  0.00    +0.000 OA
ATOM     10  O   UNL     1       6.877   3.755  12.523  0.00  0.00    +0.000 OA
ENDBRANCH   4   8
BRANCH   7  11
ATOM     11  O   UNL     1       6.670   5.943  18.402  0.00  0.00    +0.000 OA
ATOM     12  C   UNL     1       7.930   6.590  18.529  0.00  0.00    +0.000 C 
ENDBRANCH   7  11
ENDBRANCH   1   2
BRANCH   1  13
ATOM     13  S   UNL     1       3.178   3.129  17.644  0.00  0.00    +0.000 S 
ATOM     14  O   UNL     1       2.042   3.157  16.755  0.00  0.00    +0.000 OA
ATOM     15  O   UNL     1       4.205   2.112  17.512  0.00  0.00    +0.000 OA
BRANCH  13  16
ATOM     16  C   UNL     1       2.537   3.014  19.311  0.00  0.00    +0.000 A 
ATOM     17  C   UNL     1       1.165   3.177  19.539  0.00  0.00    +0.000 A 
ATOM     18  C   UNL     1       0.647   2.952  20.820  0.00  0.00    +0.000 A 
ATOM     19  C   UNL     1       1.492   2.562  21.867  0.00  0.00    +0.000 A 
ATOM     20  C   UNL     1       2.854   2.415  21.637  0.00  0.00    +0.000 A 
ATOM     21  C   UNL     1       3.382   2.622  20.358  0.00  0.00    +0.000 A 
ENDBRANCH  13  16
ENDBRANCH   1  13
BRANCH   1  22
ATOM     22  C   UNL     1       3.664   5.607  18.723  0.00  0.00    +0.000 C 
BRANCH  22  23
ATOM     23  C   UNL     1       2.335   6.365  18.569  0.00  0.00    +0.000 C 
BRANCH  23  24
ATOM     24  O   UNL     1       1.721   5.909  17.352  0.00  0.00    +0.000 OA
ATOM     25  H   UNL     1       1.511   6.690  16.810  0.00  0.00    +0.000 HD
ENDBRANCH  23  24
BRANCH  23  26
ATOM     26  C   UNL     1       2.500   7.913  18.548  0.00  0.00    +0.000 C 
BRANCH  26  27
ATOM     27  N   UNL     1       1.330   8.688  19.058  0.00  0.00    +0.000 NA
BRANCH  27  28
ATOM     28  C   UNL     1       0.930   9.750  18.106  0.00  0.00    +0.000 C 
BRANCH  28  29
ATOM     29  C   UNL     1      -0.134  10.757  18.576  0.00  0.00    +0.000 C 
BRANCH  29  30
ATOM     30  C   UNL     1      -1.569  10.233  18.512  0.00  0.00    +0.000 C 
ATOM     31  C   UNL     1      -1.982   9.979  17.066  0.00  0.00    +0.000 C 
ENDBRANCH  29  30
ENDBRANCH  28  29
ENDBRANCH  27  28
BRANCH  27  32
ATOM     32  C   UNL     1       1.669   9.286  20.376  0.00  0.00    +0.000 C 
BRANCH  32  33
ATOM     33  C   UNL     1       1.136   8.596  21.640  0.00  0.00    +0.000 C 
BRANCH  33  35
ATOM     34  C   UNL     1      -0.472   9.754  23.163  0.00  0.00    +0.000 C 
ATOM     35  C   UNL     1      -0.338   8.872  21.931  0.00  0.00    +0.000 C 
ENDBRANCH  33  35
ENDBRANCH  32  33
ENDBRANCH  27  32
ENDBRANCH  26  27
ENDBRANCH  23  26
ENDBRANCH  22  23
ENDBRANCH   1  22
TORSDOF 16
ENDMDL
