MODEL 1
REMARK VINA RESULT:      -8.0      0.000      0.000
REMARK  Name = 
REMARK  13 active torsions:
REMARK  status: ('A' for Active; 'I' for Inactive)
REMARK    1  A    between atoms: C_1  and  O_2
REMARK    2  A    between atoms: O_2  and  C_3
REMARK    3  A    between atoms: C_8  and  N_9
REMARK    4  A    between atoms: N_12  and  C_13
REMARK    5  A    between atoms: C_13  and  C_14
REMARK    6  A    between atoms: C_13  and  C_28
REMARK    7  A    between atoms: N_16  and  C_17
REMARK    8  A    between atoms: N_16  and  C_22
REMARK    9  A    between atoms: C_17  and  C_18
REMARK   10  A    between atoms: N_20  and  O_21
REMARK   11  A    between atoms: C_22  and  C_23
REMARK   12  A    between atoms: C_28  and  C_29
REMARK   13  A    between atoms: C_28  and  C_30
REMARK                            x       y       z     vdW  Elec       q    Type
REMARK                         _______ _______ _______ _____ _____    ______ ____
ROOT
ATOM      1  C   UNL     1       4.046   3.907  18.792  0.00  0.00    +0.000 C 
ENDROOT
BRANCH   1   5
ATOM      2  N   UNL     1       2.753   7.209  19.788  0.00  0.00    +0.000 N 
ATOM      3  C   UNL     1       2.821   6.042  19.059  0.00  0.00    +0.000 C 
ATOM      4  O   UNL     1       2.157   5.776  18.065  0.00  0.00    +0.000 OA
ATOM      5  N   UNL     1       3.837   5.205  19.467  0.00  0.00    +0.000 N 
ATOM      6  H   UNL     1       3.124   7.224  20.724  0.00  0.00    +0.000 HD
ATOM      7  H   UNL     1       4.071   5.243  20.447  0.00  0.00    +0.000 HD
BRANCH   2  13
ATOM      8  C   UNL     1       1.083   8.855  20.505  0.00  0.00    +0.000 A 
ATOM      9  C   UNL     1       0.075   9.769  20.164  0.00  0.00    +0.000 A 
ATOM     10  C   UNL     1      -0.087  10.195  18.846  0.00  0.00    +0.000 A 
ATOM     11  C   UNL     1       0.769   9.729  17.860  0.00  0.00    +0.000 A 
ATOM     12  C   UNL     1       1.738   8.780  18.179  0.00  0.00    +0.000 A 
ATOM     13  C   UNL     1       1.865   8.283  19.482  0.00  0.00    +0.000 A 
BRANCH   8  15
ATOM     14  C   UNL     1       0.666   9.233  22.801  0.00  0.00    +0.000 C 
ATOM     15  O   UNL     1       1.334   8.457  21.799  0.00  0.00    +0.000 OA
ENDBRANCH   8  15
ENDBRANCH   2  13
ENDBRANCH   1   5
BRANCH   1  16
ATOM     16  C   UNL     1       4.080   3.928  17.204  0.00  0.00    +0.000 C 
ATOM     17  O   UNL     1       3.124   3.491  16.557  0.00  0.00    +0.000 OA
ATOM     18  N   UNL     1       5.267   4.299  16.551  0.00  0.00    +0.000 N 
BRANCH  18  19
ATOM     19  C   UNL     1       6.518   4.473  17.284  0.00  0.00    +0.000 C 
BRANCH  19  20
ATOM     20  C   UNL     1       7.021   5.811  17.838  0.00  0.00    +0.000 C 
ATOM     21  O   UNL     1       6.998   6.158  19.014  0.00  0.00    +0.000 OA
ATOM     22  N   UNL     1       7.429   6.656  16.819  0.00  0.00    +0.000 N 
ATOM     23  H   UNL     1       7.810   6.287  15.951  0.00  0.00    +0.000 HD
BRANCH  22  24
ATOM     24  O   UNL     1       7.943   7.912  17.219  0.00  0.00    +0.000 OA
ATOM     25  H   UNL     1       7.948   8.417  16.376  0.00  0.00    +0.000 HD
ENDBRANCH  22  24
ENDBRANCH  19  20
ENDBRANCH  18  19
BRANCH  18  26
ATOM     26  C   UNL     1       5.162   4.767  15.159  0.00  0.00    +0.000 C 
BRANCH  26  27
ATOM     27  C   UNL     1       6.066   4.007  14.165  0.00  0.00    +0.000 C 
ATOM     28  C   UNL     1       5.329   3.449  12.951  0.00  0.00    +0.000 C 
ATOM     29  C   UNL     1       6.393   3.267  11.882  0.00  0.00    +0.000 C 
ATOM     30  C   UNL     1       7.454   4.320  12.169  0.00  0.00    +0.000 C 
ATOM     31  C   UNL     1       7.120   4.924  13.531  0.00  0.00    +0.000 C 
ENDBRANCH  26  27
ENDBRANCH  18  26
ENDBRANCH   1  16
BRANCH   1  32
ATOM     32  C   UNL     1       3.151   2.769  19.366  0.00  0.00    +0.000 C 
ATOM     33  C   UNL     1       3.687   1.383  18.984  0.00  0.00    +0.000 C 
ATOM     34  C   UNL     1       2.926   2.815  20.881  0.00  0.00    +0.000 C 
ENDBRANCH   1  32
TORSDOF 10
ENDMDL
MODEL 2
REMARK VINA RESULT:      -7.9      3.075      8.268
REMARK  Name = 
REMARK  13 active torsions:
REMARK  status: ('A' for Active; 'I' for Inactive)
REMARK    1  A    between atoms: C_1  and  O_2
REMARK    2  A    between atoms: O_2  and  C_3
REMARK    3  A    between atoms: C_8  and  N_9
REMARK    4  A    between atoms: N_12  and  C_13
REMARK    5  A    between atoms: C_13  and  C_14
REMARK    6  A    between atoms: C_13  and  C_28
REMARK    7  A    between atoms: N_16  and  C_17
REMARK    8  A    between atoms: N_16  and  C_22
REMARK    9  A    between atoms: C_17  and  C_18
REMARK   10  A    between atoms: N_20  and  O_21
REMARK   11  A    between atoms: C_22  and  C_23
REMARK   12  A    between atoms: C_28  and  C_29
REMARK   13  A    between atoms: C_28  and  C_30
REMARK                            x       y       z     vdW  Elec       q    Type
REMARK                         _______ _______ _______ _____ _____    ______ ____
ROOT
ATOM      1  C   UNL     1       5.456   5.423  16.951  0.00  0.00    +0.000 C 
ENDROOT
BRANCH   1   5
ATOM      2  N   UNL     1       5.740   4.521  13.391  0.00  0.00    +0.000 N 
ATOM      3  C   UNL     1       5.773   4.325  14.754  0.00  0.00    +0.000 C 
ATOM      4  O   UNL     1       6.143   3.308  15.326  0.00  0.00    +0.000 OA
ATOM      5  N   UNL     1       5.471   5.462  15.473  0.00  0.00    +0.000 N 
ATOM      6  H   UNL     1       5.174   5.265  13.016  0.00  0.00    +0.000 HD
ATOM      7  H   UNL     1       4.825   6.101  15.035  0.00  0.00    +0.000 HD
BRANCH   2  13
ATOM      8  C   UNL     1       5.142   2.816  11.733  0.00  0.00    +0.000 A 
ATOM      9  C   UNL     1       5.524   1.716  10.952  0.00  0.00    +0.000 A 
ATOM     10  C   UNL     1       6.871   1.392  10.782  0.00  0.00    +0.000 A 
ATOM     11  C   UNL     1       7.848   2.178  11.374  0.00  0.00    +0.000 A 
ATOM     12  C   UNL     1       7.477   3.239  12.196  0.00  0.00    +0.000 A 
ATOM     13  C   UNL     1       6.130   3.532  12.440  0.00  0.00    +0.000 A 
BRANCH   8  15
ATOM     14  C   UNL     1       3.162   3.504  10.641  0.00  0.00    +0.000 C 
ATOM     15  O   UNL     1       3.835   3.224  11.874  0.00  0.00    +0.000 OA
ENDBRANCH   8  15
ENDBRANCH   2  13
ENDBRANCH   1   5
BRANCH   1  16
ATOM     16  C   UNL     1       4.045   5.615  17.653  0.00  0.00    +0.000 C 
ATOM     17  O   UNL     1       3.719   6.719  18.099  0.00  0.00    +0.000 OA
ATOM     18  N   UNL     1       3.246   4.487  17.903  0.00  0.00    +0.000 N 
BRANCH  18  19
ATOM     19  C   UNL     1       3.760   3.133  17.715  0.00  0.00    +0.000 C 
BRANCH  19  20
ATOM     20  C   UNL     1       4.448   2.306  18.807  0.00  0.00    +0.000 C 
ATOM     21  O   UNL     1       5.053   2.754  19.775  0.00  0.00    +0.000 OA
ATOM     22  N   UNL     1       4.396   0.952  18.521  0.00  0.00    +0.000 N 
ATOM     23  H   UNL     1       3.623   0.556  17.991  0.00  0.00    +0.000 HD
BRANCH  22  24
ATOM     24  O   UNL     1       4.976   0.089  19.481  0.00  0.00    +0.000 OA
ATOM     25  H   UNL     1       5.909   0.398  19.506  0.00  0.00    +0.000 HD
ENDBRANCH  22  24
ENDBRANCH  19  20
ENDBRANCH  18  19
BRANCH  18  26
ATOM     26  C   UNL     1       1.804   4.703  18.100  0.00  0.00    +0.000 C 
BRANCH  26  27
ATOM     27  C   UNL     1       1.298   4.354  19.516  0.00  0.00    +0.000 C 
ATOM     28  C   UNL     1       1.053   2.865  19.744  0.00  0.00    +0.000 C 
ATOM     29  C   UNL     1       1.124   2.671  21.249  0.00  0.00    +0.000 C 
ATOM     30  C   UNL     1       2.068   3.748  21.763  0.00  0.00    +0.000 C 
ATOM     31  C   UNL     1       2.330   4.699  20.597  0.00  0.00    +0.000 C 
ENDBRANCH  26  27
ENDBRANCH  18  26
ENDBRANCH   1  16
BRANCH   1  32
ATOM     32  C   UNL     1       6.580   6.286  17.595  0.00  0.00    +0.000 C 
ATOM     33  C   UNL     1       7.549   5.427  18.419  0.00  0.00    +0.000 C 
ATOM     34  C   UNL     1       7.388   7.147  16.618  0.00  0.00    +0.000 C 
ENDBRANCH   1  32
TORSDOF 10
ENDMDL
MODEL 3
REMARK VINA RESULT:      -7.6      2.127      8.470
REMARK  Name = 
REMARK  13 active torsions:
REMARK  status: ('A' for Active; 'I' for Inactive)
REMARK    1  A    between atoms: C_1  and  O_2
REMARK    2  A    between atoms: O_2  and  C_3
REMARK    3  A    between atoms: C_8  and  N_9
REMARK    4  A    between atoms: N_12  and  C_13
REMARK    5  A    between atoms: C_13  and  C_14
REMARK    6  A    between atoms: C_13  and  C_28
REMARK    7  A    between atoms: N_16  and  C_17
REMARK    8  A    between atoms: N_16  and  C_22
REMARK    9  A    between atoms: C_17  and  C_18
REMARK   10  A    between atoms: N_20  and  O_21
REMARK   11  A    between atoms: C_22  and  C_23
REMARK   12  A    between atoms: C_28  and  C_29
REMARK   13  A    between atoms: C_28  and  C_30
REMARK                            x       y       z     vdW  Elec       q    Type
REMARK                         _______ _______ _______ _____ _____    ______ ____
ROOT
ATOM      1  C   UNL     1       5.920   5.711  16.680  0.00  0.00    +0.000 C 
ENDROOT
BRANCH   1   5
ATOM      2  N   UNL     1       6.082   4.549  13.189  0.00  0.00    +0.000 N 
ATOM      3  C   UNL     1       6.054   4.437  14.562  0.00  0.00    +0.000 C 
ATOM      4  O   UNL     1       6.210   3.405  15.202  0.00  0.00    +0.000 OA
ATOM      5  N   UNL     1       5.967   5.653  15.203  0.00  0.00    +0.000 N 
ATOM      6  H   UNL     1       5.678   5.363  12.755  0.00  0.00    +0.000 HD
ATOM      7  H   UNL     1       5.465   6.376  14.711  0.00  0.00    +0.000 HD
BRANCH   2  13
ATOM      8  C   UNL     1       5.178   2.811  11.715  0.00  0.00    +0.000 A 
ATOM      9  C   UNL     1       5.372   1.611  11.013  0.00  0.00    +0.000 A 
ATOM     10  C   UNL     1       6.655   1.103  10.808  0.00  0.00    +0.000 A 
ATOM     11  C   UNL     1       7.757   1.799  11.281  0.00  0.00    +0.000 A 
ATOM     12  C   UNL     1       7.571   2.962  12.025  0.00  0.00    +0.000 A 
ATOM     13  C   UNL     1       6.288   3.446  12.308  0.00  0.00    +0.000 A 
BRANCH   8  15
ATOM     14  C   UNL     1       3.260   3.705  10.664  0.00  0.00    +0.000 C 
ATOM     15  O   UNL     1       3.942   3.394  11.884  0.00  0.00    +0.000 OA
ENDBRANCH   8  15
ENDBRANCH   2  13
ENDBRANCH   1   5
BRANCH   1  16
ATOM     16  C   UNL     1       4.657   6.425  17.324  0.00  0.00    +0.000 C 
ATOM     17  O   UNL     1       4.441   7.621  17.107  0.00  0.00    +0.000 OA
ATOM     18  N   UNL     1       3.883   5.727  18.266  0.00  0.00    +0.000 N 
BRANCH  18  19
ATOM     19  C   UNL     1       4.321   4.445  18.811  0.00  0.00    +0.000 C 
BRANCH  19  20
ATOM     20  C   UNL     1       3.959   3.079  18.215  0.00  0.00    +0.000 C 
ATOM     21  O   UNL     1       3.234   2.886  17.246  0.00  0.00    +0.000 OA
ATOM     22  N   UNL     1       4.479   2.045  18.976  0.00  0.00    +0.000 N 
ATOM     23  H   UNL     1       5.342   2.160  19.502  0.00  0.00    +0.000 HD
BRANCH  22  24
ATOM     24  O   UNL     1       4.231   0.735  18.500  0.00  0.00    +0.000 OA
ATOM     25  H   UNL     1       3.394   0.849  17.997  0.00  0.00    +0.000 HD
ENDBRANCH  22  24
ENDBRANCH  19  20
ENDBRANCH  18  19
BRANCH  18  26
ATOM     26  C   UNL     1       2.502   6.185  18.489  0.00  0.00    +0.000 C 
BRANCH  26  27
ATOM     27  C   UNL     1       2.369   7.316  19.532  0.00  0.00    +0.000 C 
ATOM     28  C   UNL     1       1.666   8.566  19.012  0.00  0.00    +0.000 C 
ATOM     29  C   UNL     1       1.144   9.278  20.249  0.00  0.00    +0.000 C 
ATOM     30  C   UNL     1       0.886   8.186  21.278  0.00  0.00    +0.000 C 
ATOM     31  C   UNL     1       1.493   6.901  20.721  0.00  0.00    +0.000 C 
ENDBRANCH  26  27
ENDBRANCH  18  26
ENDBRANCH   1  16
BRANCH   1  32
ATOM     32  C   UNL     1       7.267   6.166  17.316  0.00  0.00    +0.000 C 
ATOM     33  C   UNL     1       7.379   7.695  17.365  0.00  0.00    +0.000 C 
ATOM     34  C   UNL     1       7.557   5.602  18.710  0.00  0.00    +0.000 C 
ENDBRANCH   1  32
TORSDOF 10
ENDMDL
MODEL 4
REMARK VINA RESULT:      -7.4      1.094      1.823
REMARK  Name = 
REMARK  13 active torsions:
REMARK  status: ('A' for Active; 'I' for Inactive)
REMARK    1  A    between atoms: C_1  and  O_2
REMARK    2  A    between atoms: O_2  and  C_3
REMARK    3  A    between atoms: C_8  and  N_9
REMARK    4  A    between atoms: N_12  and  C_13
REMARK    5  A    between atoms: C_13  and  C_14
REMARK    6  A    between atoms: C_13  and  C_28
REMARK    7  A    between atoms: N_16  and  C_17
REMARK    8  A    between atoms: N_16  and  C_22
REMARK    9  A    between atoms: C_17  and  C_18
REMARK   10  A    between atoms: N_20  and  O_21
REMARK   11  A    between atoms: C_22  and  C_23
REMARK   12  A    between atoms: C_28  and  C_29
REMARK   13  A    between atoms: C_28  and  C_30
REMARK                            x       y       z     vdW  Elec       q    Type
REMARK                         _______ _______ _______ _____ _____    ______ ____
ROOT
ATOM      1  C   UNL     1       3.930   4.059  18.989  0.00  0.00    +0.000 C 
ENDROOT
BRANCH   1   5
ATOM      2  N   UNL     1       2.670   7.198  20.446  0.00  0.00    +0.000 N 
ATOM      3  C   UNL     1       2.601   5.988  19.791  0.00  0.00    +0.000 C 
ATOM      4  O   UNL     1       1.608   5.518  19.252  0.00  0.00    +0.000 OA
ATOM      5  N   UNL     1       3.827   5.371  19.663  0.00  0.00    +0.000 N 
ATOM      6  H   UNL     1       3.432   7.369  21.081  0.00  0.00    +0.000 HD
ATOM      7  H   UNL     1       4.488   5.547  20.404  0.00  0.00    +0.000 HD
BRANCH   2  13
ATOM      8  C   UNL     1       1.260   9.009  19.582  0.00  0.00    +0.000 A 
ATOM      9  C   UNL     1       0.296   9.999  19.822  0.00  0.00    +0.000 A 
ATOM     10  C   UNL     1      -0.441  10.006  21.007  0.00  0.00    +0.000 A 
ATOM     11  C   UNL     1      -0.237   9.011  21.951  0.00  0.00    +0.000 A 
ATOM     12  C   UNL     1       0.756   8.057  21.745  0.00  0.00    +0.000 A 
ATOM     13  C   UNL     1       1.558   8.080  20.598  0.00  0.00    +0.000 A 
BRANCH   8  15
ATOM     14  C   UNL     1       2.055  10.136  17.662  0.00  0.00    +0.000 C 
ATOM     15  O   UNL     1       1.964   8.913  18.402  0.00  0.00    +0.000 OA
ENDBRANCH   8  15
ENDBRANCH   2  13
ENDBRANCH   1   5
BRANCH   1  16
ATOM     16  C   UNL     1       3.998   4.078  17.402  0.00  0.00    +0.000 C 
ATOM     17  O   UNL     1       3.069   3.612  16.735  0.00  0.00    +0.000 OA
ATOM     18  N   UNL     1       5.187   4.482  16.773  0.00  0.00    +0.000 N 
BRANCH  18  19
ATOM     19  C   UNL     1       6.416   4.693  17.533  0.00  0.00    +0.000 C 
BRANCH  19  20
ATOM     20  C   UNL     1       7.053   6.063  17.791  0.00  0.00    +0.000 C 
ATOM     21  O   UNL     1       6.880   7.075  17.121  0.00  0.00    +0.000 OA
ATOM     22  N   UNL     1       7.953   6.010  18.843  0.00  0.00    +0.000 N 
ATOM     23  H   UNL     1       7.829   5.352  19.609  0.00  0.00    +0.000 HD
BRANCH  22  24
ATOM     24  O   UNL     1       8.580   7.230  19.189  0.00  0.00    +0.000 OA
ATOM     25  H   UNL     1       9.035   7.003  20.030  0.00  0.00    +0.000 HD
ENDBRANCH  22  24
ENDBRANCH  19  20
ENDBRANCH  18  19
BRANCH  18  26
ATOM     26  C   UNL     1       5.099   4.943  15.379  0.00  0.00    +0.000 C 
BRANCH  26  27
ATOM     27  C   UNL     1       6.044   4.207  14.405  0.00  0.00    +0.000 C 
ATOM     28  C   UNL     1       5.363   3.692  13.141  0.00  0.00    +0.000 C 
ATOM     29  C   UNL     1       6.476   3.534  12.120  0.00  0.00    +0.000 C 
ATOM     30  C   UNL     1       7.529   4.570  12.489  0.00  0.00    +0.000 C 
ATOM     31  C   UNL     1       7.134   5.134  13.852  0.00  0.00    +0.000 C 
ENDBRANCH  26  27
ENDBRANCH  18  26
ENDBRANCH   1  16
BRANCH   1  32
ATOM     32  C   UNL     1       2.924   3.007  19.543  0.00  0.00    +0.000 C 
ATOM     33  C   UNL     1       3.104   1.643  18.865  0.00  0.00    +0.000 C 
ATOM     34  C   UNL     1       2.949   2.814  21.063  0.00  0.00    +0.000 C 
ENDBRANCH   1  32
TORSDOF 10
ENDMDL
MODEL 5
REMARK VINA RESULT:      -7.4      0.920      1.107
REMARK  Name = 
REMARK  13 active torsions:
REMARK  status: ('A' for Active; 'I' for Inactive)
REMARK    1  A    between atoms: C_1  and  O_2
REMARK    2  A    between atoms: O_2  and  C_3
REMARK    3  A    between atoms: C_8  and  N_9
REMARK    4  A    between atoms: N_12  and  C_13
REMARK    5  A    between atoms: C_13  and  C_14
REMARK    6  A    between atoms: C_13  and  C_28
REMARK    7  A    between atoms: N_16  and  C_17
REMARK    8  A    between atoms: N_16  and  C_22
REMARK    9  A    between atoms: C_17  and  C_18
REMARK   10  A    between atoms: N_20  and  O_21
REMARK   11  A    between atoms: C_22  and  C_23
REMARK   12  A    between atoms: C_28  and  C_29
REMARK   13  A    between atoms: C_28  and  C_30
REMARK                            x       y       z     vdW  Elec       q    Type
REMARK                         _______ _______ _______ _____ _____    ______ ____
ROOT
ATOM      1  C   UNL     1       3.495   4.025  19.522  0.00  0.00    +0.000 C 
ENDROOT
BRANCH   1   5
ATOM      2  N   UNL     1       2.176   7.348  20.408  0.00  0.00    +0.000 N 
ATOM      3  C   UNL     1       2.378   6.232  19.625  0.00  0.00    +0.000 C 
ATOM      4  O   UNL     1       2.013   6.092  18.465  0.00  0.00    +0.000 OA
ATOM      5  N   UNL     1       3.181   5.287  20.226  0.00  0.00    +0.000 N 
ATOM      6  H   UNL     1       2.263   7.267  21.408  0.00  0.00    +0.000 HD
ATOM      7  H   UNL     1       3.125   5.237  21.231  0.00  0.00    +0.000 HD
BRANCH   2  13
ATOM      8  C   UNL     1       0.525   9.117  20.802  0.00  0.00    +0.000 A 
ATOM      9  C   UNL     1      -0.291  10.135  20.285  0.00  0.00    +0.000 A 
ATOM     10  C   UNL     1      -0.093  10.622  18.993  0.00  0.00    +0.000 A 
ATOM     11  C   UNL     1       0.934  10.114  18.214  0.00  0.00    +0.000 A 
ATOM     12  C   UNL     1       1.714   9.066  18.698  0.00  0.00    +0.000 A 
ATOM     13  C   UNL     1       1.481   8.512  19.963  0.00  0.00    +0.000 A 
BRANCH   8  15
ATOM     14  C   UNL     1      -0.114   9.596  23.027  0.00  0.00    +0.000 C 
ATOM     15  O   UNL     1       0.421   8.650  22.093  0.00  0.00    +0.000 OA
ENDBRANCH   8  15
ENDBRANCH   2  13
ENDBRANCH   1   5
BRANCH   1  16
ATOM     16  C   UNL     1       3.779   4.131  17.963  0.00  0.00    +0.000 C 
ATOM     17  O   UNL     1       3.005   3.611  17.154  0.00  0.00    +0.000 OA
ATOM     18  N   UNL     1       4.995   4.682  17.526  0.00  0.00    +0.000 N 
BRANCH  18  19
ATOM     19  C   UNL     1       6.078   4.975  18.460  0.00  0.00    +0.000 C 
BRANCH  19  20
ATOM     20  C   UNL     1       7.093   6.110  18.285  0.00  0.00    +0.000 C 
ATOM     21  O   UNL     1       8.180   6.197  18.846  0.00  0.00    +0.000 OA
ATOM     22  N   UNL     1       6.591   7.112  17.470  0.00  0.00    +0.000 N 
ATOM     23  H   UNL     1       5.925   6.904  16.731  0.00  0.00    +0.000 HD
BRANCH  22  24
ATOM     24  O   UNL     1       7.460   8.200  17.215  0.00  0.00    +0.000 OA
ATOM     25  H   UNL     1       6.901   8.975  17.445  0.00  0.00    +0.000 HD
ENDBRANCH  22  24
ENDBRANCH  19  20
ENDBRANCH  18  19
BRANCH  18  26
ATOM     26  C   UNL     1       5.052   5.203  16.150  0.00  0.00    +0.000 C 
BRANCH  26  27
ATOM     27  C   UNL     1       5.837   4.311  15.166  0.00  0.00    +0.000 C 
ATOM     28  C   UNL     1       5.067   3.949  13.899  0.00  0.00    +0.000 C 
ATOM     29  C   UNL     1       6.128   3.593  12.871  0.00  0.00    +0.000 C 
ATOM     30  C   UNL     1       7.360   4.403  13.247  0.00  0.00    +0.000 C 
ATOM     31  C   UNL     1       7.083   5.017  14.618  0.00  0.00    +0.000 C 
ENDBRANCH  26  27
ENDBRANCH  18  26
ENDBRANCH   1  16
BRANCH   1  32
ATOM     32  C   UNL     1       2.522   2.865  19.886  0.00  0.00    +0.000 C 
ATOM     33  C   UNL     1       2.504   2.597  21.397  0.00  0.00    +0.000 C 
ATOM     34  C   UNL     1       1.080   3.041  19.396  0.00  0.00    +0.000 C 
ENDBRANCH   1  32
TORSDOF 10
ENDMDL
MODEL 6
REMARK VINA RESULT:      -7.4      3.670      9.165
REMARK  Name = 
REMARK  13 active torsions:
REMARK  status: ('A' for Active; 'I' for Inactive)
REMARK    1  A    between atoms: C_1  and  O_2
REMARK    2  A    between atoms: O_2  and  C_3
REMARK    3  A    between atoms: C_8  and  N_9
REMARK    4  A    between atoms: N_12  and  C_13
REMARK    5  A    between atoms: C_13  and  C_14
REMARK    6  A    between atoms: C_13  and  C_28
REMARK    7  A    between atoms: N_16  and  C_17
REMARK    8  A    between atoms: N_16  and  C_22
REMARK    9  A    between atoms: C_17  and  C_18
REMARK   10  A    between atoms: N_20  and  O_21
REMARK   11  A    between atoms: C_22  and  C_23
REMARK   12  A    between atoms: C_28  and  C_29
REMARK   13  A    between atoms: C_28  and  C_30
REMARK                            x       y       z     vdW  Elec       q    Type
REMARK                         _______ _______ _______ _____ _____    ______ ____
ROOT
ATOM      1  C   UNL     1       0.136   9.742  21.188  0.00  0.00    +0.000 C 
ENDROOT
BRANCH   1   5
ATOM      2  N   UNL     1       2.440   7.115  20.023  0.00  0.00    +0.000 N 
ATOM      3  C   UNL     1       1.625   8.221  19.923  0.00  0.00    +0.000 C 
ATOM      4  O   UNL     1       1.318   8.796  18.887  0.00  0.00    +0.000 OA
ATOM      5  N   UNL     1       1.038   8.572  21.119  0.00  0.00    +0.000 N 
ATOM      6  H   UNL     1       2.849   6.887  20.915  0.00  0.00    +0.000 HD
ATOM      7  H   UNL     1       1.576   8.372  21.948  0.00  0.00    +0.000 HD
BRANCH   2  13
ATOM      8  C   UNL     1       3.083   5.082  18.813  0.00  0.00    +0.000 A 
ATOM      9  C   UNL     1       3.865   4.472  17.820  0.00  0.00    +0.000 A 
ATOM     10  C   UNL     1       4.532   5.239  16.865  0.00  0.00    +0.000 A 
ATOM     11  C   UNL     1       4.406   6.619  16.878  0.00  0.00    +0.000 A 
ATOM     12  C   UNL     1       3.677   7.236  17.891  0.00  0.00    +0.000 A 
ATOM     13  C   UNL     1       3.065   6.488  18.904  0.00  0.00    +0.000 A 
BRANCH   8  15
ATOM     14  C   UNL     1       1.229   3.665  19.186  0.00  0.00    +0.000 C 
ATOM     15  O   UNL     1       2.347   4.372  19.735  0.00  0.00    +0.000 OA
ENDBRANCH   8  15
ENDBRANCH   2  13
ENDBRANCH   1   5
BRANCH   1  16
ATOM     16  C   UNL     1       0.729  11.128  20.690  0.00  0.00    +0.000 C 
ATOM     17  O   UNL     1       1.686  11.641  21.278  0.00  0.00    +0.000 OA
ATOM     18  N   UNL     1       0.056  11.837  19.681  0.00  0.00    +0.000 N 
BRANCH  18  19
ATOM     19  C   UNL     1      -1.270  11.433  19.221  0.00  0.00    +0.000 C 
BRANCH  19  20
ATOM     20  C   UNL     1      -1.583  10.934  17.805  0.00  0.00    +0.000 C 
ATOM     21  O   UNL     1      -1.335   9.817  17.364  0.00  0.00    +0.000 OA
ATOM     22  N   UNL     1      -2.105  11.949  17.019  0.00  0.00    +0.000 N 
ATOM     23  H   UNL     1      -2.652  12.702  17.428  0.00  0.00    +0.000 HD
BRANCH  22  24
ATOM     24  O   UNL     1      -2.460  11.591  15.696  0.00  0.00    +0.000 OA
ATOM     25  H   UNL     1      -3.365  11.227  15.812  0.00  0.00    +0.000 HD
ENDBRANCH  22  24
ENDBRANCH  19  20
ENDBRANCH  18  19
BRANCH  18  26
ATOM     26  C   UNL     1       0.826  12.831  18.916  0.00  0.00    +0.000 C 
BRANCH  26  27
ATOM     27  C   UNL     1       0.710  14.273  19.453  0.00  0.00    +0.000 C 
ATOM     28  C   UNL     1       1.940  15.139  19.190  0.00  0.00    +0.000 C 
ATOM     29  C   UNL     1       1.444  16.573  19.258  0.00  0.00    +0.000 C 
ATOM     30  C   UNL     1      -0.015  16.529  18.826  0.00  0.00    +0.000 C 
ATOM     31  C   UNL     1      -0.411  15.056  18.760  0.00  0.00    +0.000 C 
ENDBRANCH  26  27
ENDBRANCH  18  26
ENDBRANCH   1  16
BRANCH   1  32
ATOM     32  C   UNL     1      -0.616   9.853  22.547  0.00  0.00    +0.000 C 
ATOM     33  C   UNL     1       0.266   9.399  23.718  0.00  0.00    +0.000 C 
ATOM     34  C   UNL     1      -1.192  11.237  22.866  0.00  0.00    +0.000 C 
ENDBRANCH   1  32
TORSDOF 10
ENDMDL
MODEL 7
REMARK VINA RESULT:      -7.3      1.556      1.958
REMARK  Name = 
REMARK  13 active torsions:
REMARK  status: ('A' for Active; 'I' for Inactive)
REMARK    1  A    between atoms: C_1  and  O_2
REMARK    2  A    between atoms: O_2  and  C_3
REMARK    3  A    between atoms: C_8  and  N_9
REMARK    4  A    between atoms: N_12  and  C_13
REMARK    5  A    between atoms: C_13  and  C_14
REMARK    6  A    between atoms: C_13  and  C_28
REMARK    7  A    between atoms: N_16  and  C_17
REMARK    8  A    between atoms: N_16  and  C_22
REMARK    9  A    between atoms: C_17  and  C_18
REMARK   10  A    between atoms: N_20  and  O_21
REMARK   11  A    between atoms: C_22  and  C_23
REMARK   12  A    between atoms: C_28  and  C_29
REMARK   13  A    between atoms: C_28  and  C_30
REMARK                            x       y       z     vdW  Elec       q    Type
REMARK                         _______ _______ _______ _____ _____    ______ ____
ROOT
ATOM      1  C   UNL     1       3.013   4.431  18.836  0.00  0.00    +0.000 C 
ENDROOT
BRANCH   1   5
ATOM      2  N   UNL     1       1.790   7.812  18.038  0.00  0.00    +0.000 N 
ATOM      3  C   UNL     1       2.512   6.852  18.713  0.00  0.00    +0.000 C 
ATOM      4  O   UNL     1       3.183   7.034  19.720  0.00  0.00    +0.000 OA
ATOM      5  N   UNL     1       2.308   5.579  18.227  0.00  0.00    +0.000 N 
ATOM      6  H   UNL     1       1.505   7.633  17.089  0.00  0.00    +0.000 HD
ATOM      7  H   UNL     1       2.111   5.511  17.240  0.00  0.00    +0.000 HD
BRANCH   2  13
ATOM      8  C   UNL     1       0.945   9.570  19.524  0.00  0.00    +0.000 A 
ATOM      9  C   UNL     1       0.745  10.936  19.775  0.00  0.00    +0.000 A 
ATOM     10  C   UNL     1       1.407  11.905  19.023  0.00  0.00    +0.000 A 
ATOM     11  C   UNL     1       2.291  11.521  18.027  0.00  0.00    +0.000 A 
ATOM     12  C   UNL     1       2.455  10.169  17.734  0.00  0.00    +0.000 A 
ATOM     13  C   UNL     1       1.740   9.184  18.426  0.00  0.00    +0.000 A 
BRANCH   8  15
ATOM     14  C   UNL     1       0.735   8.597  21.667  0.00  0.00    +0.000 C 
ATOM     15  O   UNL     1       0.374   8.572  20.282  0.00  0.00    +0.000 OA
ENDBRANCH   8  15
ENDBRANCH   2  13
ENDBRANCH   1   5
BRANCH   1  16
ATOM     16  C   UNL     1       3.899   3.542  17.863  0.00  0.00    +0.000 C 
ATOM     17  O   UNL     1       3.735   2.319  17.818  0.00  0.00    +0.000 OA
ATOM     18  N   UNL     1       4.972   4.138  17.180  0.00  0.00    +0.000 N 
BRANCH  18  19
ATOM     19  C   UNL     1       5.412   5.496  17.489  0.00  0.00    +0.000 C 
BRANCH  19  20
ATOM     20  C   UNL     1       6.663   5.838  18.307  0.00  0.00    +0.000 C 
ATOM     21  O   UNL     1       7.582   6.565  17.947  0.00  0.00    +0.000 OA
ATOM     22  N   UNL     1       6.690   5.136  19.501  0.00  0.00    +0.000 N 
ATOM     23  H   UNL     1       5.830   4.865  19.972  0.00  0.00    +0.000 HD
BRANCH  22  24
ATOM     24  O   UNL     1       7.790   5.398  20.353  0.00  0.00    +0.000 OA
ATOM     25  H   UNL     1       7.351   5.707  21.176  0.00  0.00    +0.000 HD
ENDBRANCH  22  24
ENDBRANCH  19  20
ENDBRANCH  18  19
BRANCH  18  26
ATOM     26  C   UNL     1       5.467   3.465  15.968  0.00  0.00    +0.000 C 
BRANCH  26  27
ATOM     27  C   UNL     1       5.874   4.426  14.830  0.00  0.00    +0.000 C 
ATOM     28  C   UNL     1       7.339   4.853  14.867  0.00  0.00    +0.000 C 
ATOM     29  C   UNL     1       7.668   5.285  13.448  0.00  0.00    +0.000 C 
ATOM     30  C   UNL     1       6.755   4.469  12.543  0.00  0.00    +0.000 C 
ATOM     31  C   UNL     1       5.745   3.769  13.450  0.00  0.00    +0.000 C 
ENDBRANCH  26  27
ENDBRANCH  18  26
ENDBRANCH   1  16
BRANCH   1  32
ATOM     32  C   UNL     1       2.103   3.585  19.774  0.00  0.00    +0.000 C 
ATOM     33  C   UNL     1       2.901   2.973  20.934  0.00  0.00    +0.000 C 
ATOM     34  C   UNL     1       0.885   4.320  20.344  0.00  0.00    +0.000 C 
ENDBRANCH   1  32
TORSDOF 10
ENDMDL
MODEL 8
REMARK VINA RESULT:      -7.3      2.234      3.477
REMARK  Name = 
REMARK  13 active torsions:
REMARK  status: ('A' for Active; 'I' for Inactive)
REMARK    1  A    between atoms: C_1  and  O_2
REMARK    2  A    between atoms: O_2  and  C_3
REMARK    3  A    between atoms: C_8  and  N_9
REMARK    4  A    between atoms: N_12  and  C_13
REMARK    5  A    between atoms: C_13  and  C_14
REMARK    6  A    between atoms: C_13  and  C_28
REMARK    7  A    between atoms: N_16  and  C_17
REMARK    8  A    between atoms: N_16  and  C_22
REMARK    9  A    between atoms: C_17  and  C_18
REMARK   10  A    between atoms: N_20  and  O_21
REMARK   11  A    between atoms: C_22  and  C_23
REMARK   12  A    between atoms: C_28  and  C_29
REMARK   13  A    between atoms: C_28  and  C_30
REMARK                            x       y       z     vdW  Elec       q    Type
REMARK                         _______ _______ _______ _____ _____    ______ ____
ROOT
ATOM      1  C   UNL     1       2.646   5.367  20.074  0.00  0.00    +0.000 C 
ENDROOT
BRANCH   1   5
ATOM      2  N   UNL     1       1.630   8.444  21.826  0.00  0.00    +0.000 N 
ATOM      3  C   UNL     1       1.496   7.363  20.982  0.00  0.00    +0.000 C 
ATOM      4  O   UNL     1       0.548   7.144  20.240  0.00  0.00    +0.000 OA
ATOM      5  N   UNL     1       2.624   6.573  20.930  0.00  0.00    +0.000 N 
ATOM      6  H   UNL     1       2.294   8.396  22.582  0.00  0.00    +0.000 HD
ATOM      7  H   UNL     1       3.172   6.533  21.775  0.00  0.00    +0.000 HD
BRANCH   2  13
ATOM      8  C   UNL     1       0.580  10.501  21.002  0.00  0.00    +0.000 A 
ATOM      9  C   UNL     1      -0.250  11.605  21.245  0.00  0.00    +0.000 A 
ATOM     10  C   UNL     1      -1.082  11.642  22.364  0.00  0.00    +0.000 A 
ATOM     11  C   UNL     1      -1.110  10.566  23.238  0.00  0.00    +0.000 A 
ATOM     12  C   UNL     1      -0.250   9.489  23.035  0.00  0.00    +0.000 A 
ATOM     13  C   UNL     1       0.648   9.469  21.960  0.00  0.00    +0.000 A 
BRANCH   8  15
ATOM     14  C   UNL     1       1.087  11.339  18.851  0.00  0.00    +0.000 C 
ATOM     15  O   UNL     1       1.366  10.380  19.878  0.00  0.00    +0.000 OA
ENDBRANCH   8  15
ENDBRANCH   2  13
ENDBRANCH   1   5
BRANCH   1  16
ATOM     16  C   UNL     1       2.992   5.589  18.541  0.00  0.00    +0.000 C 
ATOM     17  O   UNL     1       2.142   6.050  17.773  0.00  0.00    +0.000 OA
ATOM     18  N   UNL     1       4.213   5.109  18.039  0.00  0.00    +0.000 N 
BRANCH  18  19
ATOM     19  C   UNL     1       5.078   4.245  18.837  0.00  0.00    +0.000 C 
BRANCH  19  20
ATOM     20  C   UNL     1       4.748   2.795  19.212  0.00  0.00    +0.000 C 
ATOM     21  O   UNL     1       4.947   2.270  20.302  0.00  0.00    +0.000 OA
ATOM     22  N   UNL     1       4.276   2.088  18.118  0.00  0.00    +0.000 N 
ATOM     23  H   UNL     1       3.761   2.553  17.374  0.00  0.00    +0.000 HD
BRANCH  22  24
ATOM     24  O   UNL     1       3.911   0.742  18.357  0.00  0.00    +0.000 OA
ATOM     25  H   UNL     1       2.951   0.742  18.145  0.00  0.00    +0.000 HD
ENDBRANCH  22  24
ENDBRANCH  19  20
ENDBRANCH  18  19
BRANCH  18  26
ATOM     26  C   UNL     1       4.724   5.712  16.797  0.00  0.00    +0.000 C 
BRANCH  26  27
ATOM     27  C   UNL     1       5.618   4.774  15.957  0.00  0.00    +0.000 C 
ATOM     28  C   UNL     1       4.974   4.293  14.660  0.00  0.00    +0.000 C 
ATOM     29  C   UNL     1       6.132   3.895  13.760  0.00  0.00    +0.000 C 
ATOM     30  C   UNL     1       7.304   4.772  14.178  0.00  0.00    +0.000 C 
ATOM     31  C   UNL     1       6.889   5.478  15.467  0.00  0.00    +0.000 C 
ENDBRANCH  26  27
ENDBRANCH  18  26
ENDBRANCH   1  16
BRANCH   1  32
ATOM     32  C   UNL     1       1.413   4.442  20.293  0.00  0.00    +0.000 C 
ATOM     33  C   UNL     1       1.108   3.605  19.043  0.00  0.00    +0.000 C 
ATOM     34  C   UNL     1       1.499   3.509  21.506  0.00  0.00    +0.000 C 
ENDBRANCH   1  32
TORSDOF 10
ENDMDL
MODEL 9
REMARK VINA RESULT:      -7.3      3.848      7.009
REMARK  Name = 
REMARK  13 active torsions:
REMARK  status: ('A' for Active; 'I' for Inactive)
REMARK    1  A    between atoms: C_1  and  O_2
REMARK    2  A    between atoms: O_2  and  C_3
REMARK    3  A    between atoms: C_8  and  N_9
REMARK    4  A    between atoms: N_12  and  C_13
REMARK    5  A    between atoms: C_13  and  C_14
REMARK    6  A    between atoms: C_13  and  C_28
REMARK    7  A    between atoms: N_16  and  C_17
REMARK    8  A    between atoms: N_16  and  C_22
REMARK    9  A    between atoms: C_17  and  C_18
REMARK   10  A    between atoms: N_20  and  O_21
REMARK   11  A    between atoms: C_22  and  C_23
REMARK   12  A    between atoms: C_28  and  C_29
REMARK   13  A    between atoms: C_28  and  C_30
REMARK                            x       y       z     vdW  Elec       q    Type
REMARK                         _______ _______ _______ _____ _____    ______ ____
ROOT
ATOM      1  C   UNL     1       6.554   6.536  17.690  0.00  0.00    +0.000 C 
ENDROOT
BRANCH   1   5
ATOM      2  N   UNL     1       8.999   8.974  18.974  0.00  0.00    +0.000 N 
ATOM      3  C   UNL     1       7.909   8.529  18.259  0.00  0.00    +0.000 C 
ATOM      4  O   UNL     1       7.243   9.195  17.476  0.00  0.00    +0.000 OA
ATOM      5  N   UNL     1       7.689   7.175  18.390  0.00  0.00    +0.000 N 
ATOM      6  H   UNL     1       9.303   8.451  19.780  0.00  0.00    +0.000 HD
ATOM      7  H   UNL     1       7.956   6.770  19.274  0.00  0.00    +0.000 HD
BRANCH   2  13
ATOM      8  C   UNL     1       9.375  11.158  20.024  0.00  0.00    +0.000 A 
ATOM      9  C   UNL     1       9.687  12.518  19.886  0.00  0.00    +0.000 A 
ATOM     10  C   UNL     1      10.217  13.012  18.694  0.00  0.00    +0.000 A 
ATOM     11  C   UNL     1      10.461  12.149  17.637  0.00  0.00    +0.000 A 
ATOM     12  C   UNL     1      10.103  10.807  17.746  0.00  0.00    +0.000 A 
ATOM     13  C   UNL     1       9.499  10.308  18.907  0.00  0.00    +0.000 A 
BRANCH   8  15
ATOM     14  C   UNL     1       8.566  11.557  22.209  0.00  0.00    +0.000 C 
ATOM     15  O   UNL     1       8.919  10.604  21.200  0.00  0.00    +0.000 OA
ENDBRANCH   8  15
ENDBRANCH   2  13
ENDBRANCH   1   5
BRANCH   1  16
ATOM     16  C   UNL     1       5.607   5.612  18.568  0.00  0.00    +0.000 C 
ATOM     17  O   UNL     1       6.026   4.540  19.015  0.00  0.00    +0.000 OA
ATOM     18  N   UNL     1       4.249   5.949  18.694  0.00  0.00    +0.000 N 
BRANCH  18  19
ATOM     19  C   UNL     1       3.648   7.007  17.886  0.00  0.00    +0.000 C 
BRANCH  19  20
ATOM     20  C   UNL     1       2.579   7.984  18.390  0.00  0.00    +0.000 C 
ATOM     21  O   UNL     1       2.095   8.003  19.516  0.00  0.00    +0.000 OA
ATOM     22  N   UNL     1       2.132   8.808  17.370  0.00  0.00    +0.000 N 
ATOM     23  H   UNL     1       2.742   9.072  16.600  0.00  0.00    +0.000 HD
BRANCH  22  24
ATOM     24  O   UNL     1       1.161   9.774  17.731  0.00  0.00    +0.000 OA
ATOM     25  H   UNL     1       1.630  10.298  18.417  0.00  0.00    +0.000 HD
ENDBRANCH  22  24
ENDBRANCH  19  20
ENDBRANCH  18  19
BRANCH  18  26
ATOM     26  C   UNL     1       3.513   5.397  19.843  0.00  0.00    +0.000 C 
BRANCH  26  27
ATOM     27  C   UNL     1       2.236   4.618  19.464  0.00  0.00    +0.000 C 
ATOM     28  C   UNL     1       2.485   3.402  18.576  0.00  0.00    +0.000 C 
ATOM     29  C   UNL     1       1.281   2.499  18.783  0.00  0.00    +0.000 C 
ATOM     30  C   UNL     1       0.789   2.780  20.196  0.00  0.00    +0.000 C 
ATOM     31  C   UNL     1       1.548   4.009  20.692  0.00  0.00    +0.000 C 
ENDBRANCH  26  27
ENDBRANCH  18  26
ENDBRANCH   1  16
BRANCH   1  32
ATOM     32  C   UNL     1       6.962   5.881  16.338  0.00  0.00    +0.000 C 
ATOM     33  C   UNL     1       7.657   4.530  16.553  0.00  0.00    +0.000 C 
ATOM     34  C   UNL     1       5.824   5.698  15.328  0.00  0.00    +0.000 C 
ENDBRANCH   1  32
TORSDOF 10
ENDMDL
