MODEL 1
REMARK VINA RESULT:      -7.6      0.000      0.000
REMARK  Name = 
REMARK  8 active torsions:
REMARK  status: ('A' for Active; 'I' for Inactive)
REMARK    1  A    between atoms: C_1  and  O_2
REMARK    2  A    between atoms: O_2  and  C_3
REMARK    3  A    between atoms: C_6  and  O_7
REMARK    4  A    between atoms: O_7  and  C_8
REMARK    5  A    between atoms: C_8  and  C_9
REMARK    6  A    between atoms: C_9  and  C_10
REMARK    7  A    between atoms: C_10  and  O_11
REMARK    8  A    between atoms: O_11  and  N_12
REMARK                            x       y       z     vdW  Elec       q    Type
REMARK                         _______ _______ _______ _____ _____    ______ ____
ROOT
ATOM      1  N   UNL     1       3.720   4.188  19.512  0.00  0.00    +0.000 N 
ATOM      2  C   UNL     1       3.853   2.761  19.662  0.00  0.00    +0.000 C 
ATOM      3  N   UNL     1       5.097   2.195  20.090  0.00  0.00    +0.000 N 
ATOM      4  N   UNL     1       2.904   1.950  19.379  0.00  0.00    +0.000 NA
ATOM      5  C   UNL     1       1.670   2.411  18.861  0.00  0.00    +0.000 C 
ATOM      6  N   UNL     1       0.667   1.477  18.498  0.00  0.00    +0.000 N 
ATOM      7  N   UNL     1       1.455   3.657  18.731  0.00  0.00    +0.000 NA
ATOM      8  C   UNL     1       2.353   4.737  19.108  0.00  0.00    +0.000 C 
ATOM      9  C   UNL     1       2.405   5.660  17.871  0.00  0.00    +0.000 C 
ATOM     10  C   UNL     1       3.035   7.033  18.095  0.00  0.00    +0.000 C 
ATOM     11  S   UNL     1       2.188   8.009  19.420  0.00  0.00    +0.000 S 
ATOM     12  C   UNL     1       1.990   6.781  20.786  0.00  0.00    +0.000 C 
ATOM     13  C   UNL     1       1.553   5.422  20.265  0.00  0.00    +0.000 C 
ATOM     14  H   UNL     1       5.909   2.778  20.308  0.00  0.00    +0.000 HD
ATOM     15  H   UNL     1       5.196   1.181  20.179  0.00  0.00    +0.000 HD
ATOM     16  H   UNL     1       0.821   0.468  18.617  0.00  0.00    +0.000 HD
ATOM     17  H   UNL     1      -0.237   1.805  18.126  0.00  0.00    +0.000 HD
ENDROOT
BRANCH   1  18
ATOM     18  O   UNL     1       4.865   4.899  19.369  0.00  0.00    +0.000 OA
BRANCH  18  19
ATOM     19  C   UNL     1       5.567   4.425  18.230  0.00  0.00    +0.000 C 
BRANCH  19  20
ATOM     20  C   UNL     1       6.916   5.135  17.883  0.00  0.00    +0.000 C 
BRANCH  20  21
ATOM     21  C   UNL     1       6.661   6.157  16.759  0.00  0.00    +0.000 C 
BRANCH  21  22
ATOM     22  O   UNL     1       7.389   5.922  15.584  0.00  0.00    +0.000 OA
BRANCH  22  26
ATOM     23  C   UNL     1       5.902   3.415  12.538  0.00  0.00    +0.000 A 
ATOM     24  C   UNL     1       5.192   3.630  13.718  0.00  0.00    +0.000 A 
ATOM     25  C   UNL     1       5.686   4.447  14.719  0.00  0.00    +0.000 A 
ATOM     26  C   UNL     1       6.919   5.108  14.590  0.00  0.00    +0.000 A 
ATOM     27  C   UNL     1       7.654   4.903  13.393  0.00  0.00    +0.000 A 
ATOM     28  C   UNL     1       7.155   4.064  12.376  0.00  0.00    +0.000 A 
BRANCH  23  30
ATOM     29  C   UNL     1       6.024   1.399  11.173  0.00  0.00    +0.000 C 
ATOM     30  O   UNL     1       5.421   2.597  11.566  0.00  0.00    +0.000 OA
ENDBRANCH  23  30
ENDBRANCH  22  26
ENDBRANCH  21  22
ENDBRANCH  20  21
ENDBRANCH  19  20
ENDBRANCH  18  19
ENDBRANCH   1  18
TORSDOF 7
ENDMDL
MODEL 2
REMARK VINA RESULT:      -7.5      0.654      1.165
REMARK  Name = 
REMARK  8 active torsions:
REMARK  status: ('A' for Active; 'I' for Inactive)
REMARK    1  A    between atoms: C_1  and  O_2
REMARK    2  A    between atoms: O_2  and  C_3
REMARK    3  A    between atoms: C_6  and  O_7
REMARK    4  A    between atoms: O_7  and  C_8
REMARK    5  A    between atoms: C_8  and  C_9
REMARK    6  A    between atoms: C_9  and  C_10
REMARK    7  A    between atoms: C_10  and  O_11
REMARK    8  A    between atoms: O_11  and  N_12
REMARK                            x       y       z     vdW  Elec       q    Type
REMARK                         _______ _______ _______ _____ _____    ______ ____
ROOT
ATOM      1  N   UNL     1       3.625   4.342  19.558  0.00  0.00    +0.000 N 
ATOM      2  C   UNL     1       3.830   2.919  19.644  0.00  0.00    +0.000 C 
ATOM      3  N   UNL     1       5.102   2.398  20.046  0.00  0.00    +0.000 N 
ATOM      4  N   UNL     1       2.923   2.075  19.323  0.00  0.00    +0.000 NA
ATOM      5  C   UNL     1       1.666   2.495  18.826  0.00  0.00    +0.000 C 
ATOM      6  N   UNL     1       0.711   1.529  18.422  0.00  0.00    +0.000 N 
ATOM      7  N   UNL     1       1.388   3.734  18.753  0.00  0.00    +0.000 NA
ATOM      8  C   UNL     1       2.231   4.839  19.178  0.00  0.00    +0.000 C 
ATOM      9  C   UNL     1       2.234   5.819  17.984  0.00  0.00    +0.000 C 
ATOM     10  C   UNL     1       2.794   7.210  18.270  0.00  0.00    +0.000 C 
ATOM     11  S   UNL     1       1.902   8.081  19.637  0.00  0.00    +0.000 S 
ATOM     12  C   UNL     1       1.769   6.785  20.946  0.00  0.00    +0.000 C 
ATOM     13  C   UNL     1       1.399   5.431  20.364  0.00  0.00    +0.000 C 
ATOM     14  H   UNL     1       5.884   3.011  20.290  0.00  0.00    +0.000 HD
ATOM     15  H   UNL     1       5.252   1.386  20.089  0.00  0.00    +0.000 HD
ATOM     16  H   UNL     1       0.916   0.525  18.495  0.00  0.00    +0.000 HD
ATOM     17  H   UNL     1      -0.209   1.827  18.065  0.00  0.00    +0.000 HD
ENDROOT
BRANCH   1  18
ATOM     18  O   UNL     1       4.732   5.116  19.447  0.00  0.00    +0.000 OA
BRANCH  18  19
ATOM     19  C   UNL     1       5.363   4.849  18.203  0.00  0.00    +0.000 C 
BRANCH  19  20
ATOM     20  C   UNL     1       6.323   5.949  17.645  0.00  0.00    +0.000 C 
BRANCH  20  21
ATOM     21  C   UNL     1       7.449   5.265  16.848  0.00  0.00    +0.000 C 
BRANCH  21  22
ATOM     22  O   UNL     1       7.528   5.653  15.502  0.00  0.00    +0.000 OA
BRANCH  22  26
ATOM     23  C   UNL     1       5.652   3.483  12.413  0.00  0.00    +0.000 A 
ATOM     24  C   UNL     1       6.893   4.089  12.229  0.00  0.00    +0.000 A 
ATOM     25  C   UNL     1       7.503   4.807  13.242  0.00  0.00    +0.000 A 
ATOM     26  C   UNL     1       6.907   4.949  14.507  0.00  0.00    +0.000 A 
ATOM     27  C   UNL     1       5.644   4.335  14.712  0.00  0.00    +0.000 A 
ATOM     28  C   UNL     1       5.019   3.610  13.677  0.00  0.00    +0.000 A 
BRANCH  23  30
ATOM     29  C   UNL     1       3.805   3.121  10.864  0.00  0.00    +0.000 C 
ATOM     30  O   UNL     1       5.049   2.795  11.408  0.00  0.00    +0.000 OA
ENDBRANCH  23  30
ENDBRANCH  22  26
ENDBRANCH  21  22
ENDBRANCH  20  21
ENDBRANCH  19  20
ENDBRANCH  18  19
ENDBRANCH   1  18
TORSDOF 7
ENDMDL
MODEL 3
REMARK VINA RESULT:      -7.3      3.608      7.464
REMARK  Name = 
REMARK  8 active torsions:
REMARK  status: ('A' for Active; 'I' for Inactive)
REMARK    1  A    between atoms: C_1  and  O_2
REMARK    2  A    between atoms: O_2  and  C_3
REMARK    3  A    between atoms: C_6  and  O_7
REMARK    4  A    between atoms: O_7  and  C_8
REMARK    5  A    between atoms: C_8  and  C_9
REMARK    6  A    between atoms: C_9  and  C_10
REMARK    7  A    between atoms: C_10  and  O_11
REMARK    8  A    between atoms: O_11  and  N_12
REMARK                            x       y       z     vdW  Elec       q    Type
REMARK                         _______ _______ _______ _____ _____    ______ ____
ROOT
ATOM      1  N   UNL     1       7.032   5.317  18.040  0.00  0.00    +0.000 N 
ATOM      2  C   UNL     1       7.873   5.958  19.019  0.00  0.00    +0.000 C 
ATOM      3  N   UNL     1       8.269   5.254  20.200  0.00  0.00    +0.000 N 
ATOM      4  N   UNL     1       8.253   7.175  18.903  0.00  0.00    +0.000 NA
ATOM      5  C   UNL     1       7.835   7.979  17.816  0.00  0.00    +0.000 C 
ATOM      6  N   UNL     1       8.225   9.341  17.757  0.00  0.00    +0.000 N 
ATOM      7  N   UNL     1       7.121   7.482  16.888  0.00  0.00    +0.000 NA
ATOM      8  C   UNL     1       6.688   6.099  16.773  0.00  0.00    +0.000 C 
ATOM      9  C   UNL     1       5.172   6.179  16.495  0.00  0.00    +0.000 C 
ATOM     10  C   UNL     1       4.514   4.882  16.028  0.00  0.00    +0.000 C 
ATOM     11  S   UNL     1       5.276   4.199  14.487  0.00  0.00    +0.000 S 
ATOM     12  C   UNL     1       7.088   4.318  14.825  0.00  0.00    +0.000 C 
ATOM     13  C   UNL     1       7.453   5.635  15.489  0.00  0.00    +0.000 C 
ATOM     14  H   UNL     1       7.980   4.288  20.375  0.00  0.00    +0.000 HD
ATOM     15  H   UNL     1       8.851   5.717  20.903  0.00  0.00    +0.000 HD
ATOM     16  H   UNL     1       8.817   9.749  18.491  0.00  0.00    +0.000 HD
ATOM     17  H   UNL     1       7.930   9.931  16.965  0.00  0.00    +0.000 HD
ENDROOT
BRANCH   1  18
ATOM     18  O   UNL     1       6.310   4.248  18.458  0.00  0.00    +0.000 OA
BRANCH  18  19
ATOM     19  C   UNL     1       5.291   4.693  19.342  0.00  0.00    +0.000 C 
BRANCH  19  20
ATOM     20  C   UNL     1       3.920   3.946  19.274  0.00  0.00    +0.000 C 
BRANCH  20  21
ATOM     21  C   UNL     1       2.796   4.945  19.613  0.00  0.00    +0.000 C 
BRANCH  21  22
ATOM     22  O   UNL     1       3.231   6.263  19.814  0.00  0.00    +0.000 OA
BRANCH  22  26
ATOM     23  C   UNL     1       0.838   9.594  18.839  0.00  0.00    +0.000 A 
ATOM     24  C   UNL     1       0.910   9.104  20.140  0.00  0.00    +0.000 A 
ATOM     25  C   UNL     1       1.690   8.006  20.457  0.00  0.00    +0.000 A 
ATOM     26  C   UNL     1       2.456   7.341  19.484  0.00  0.00    +0.000 A 
ATOM     27  C   UNL     1       2.397   7.830  18.153  0.00  0.00    +0.000 A 
ATOM     28  C   UNL     1       1.597   8.944  17.829  0.00  0.00    +0.000 A 
BRANCH  23  30
ATOM     29  C   UNL     1       0.298  11.968  18.963  0.00  0.00    +0.000 C 
ATOM     30  O   UNL     1       0.057  10.662  18.530  0.00  0.00    +0.000 OA
ENDBRANCH  23  30
ENDBRANCH  22  26
ENDBRANCH  21  22
ENDBRANCH  20  21
ENDBRANCH  19  20
ENDBRANCH  18  19
ENDBRANCH   1  18
TORSDOF 7
ENDMDL
MODEL 4
REMARK VINA RESULT:      -7.2      1.027      1.047
REMARK  Name = 
REMARK  8 active torsions:
REMARK  status: ('A' for Active; 'I' for Inactive)
REMARK    1  A    between atoms: C_1  and  O_2
REMARK    2  A    between atoms: O_2  and  C_3
REMARK    3  A    between atoms: C_6  and  O_7
REMARK    4  A    between atoms: O_7  and  C_8
REMARK    5  A    between atoms: C_8  and  C_9
REMARK    6  A    between atoms: C_9  and  C_10
REMARK    7  A    between atoms: C_10  and  O_11
REMARK    8  A    between atoms: O_11  and  N_12
REMARK                            x       y       z     vdW  Elec       q    Type
REMARK                         _______ _______ _______ _____ _____    ______ ____
ROOT
ATOM      1  N   UNL     1       3.764   5.190  19.239  0.00  0.00    +0.000 N 
ATOM      2  C   UNL     1       4.192   3.815  19.271  0.00  0.00    +0.000 C 
ATOM      3  N   UNL     1       5.571   3.495  19.485  0.00  0.00    +0.000 N 
ATOM      4  N   UNL     1       3.387   2.842  19.064  0.00  0.00    +0.000 NA
ATOM      5  C   UNL     1       2.024   3.064  18.752  0.00  0.00    +0.000 C 
ATOM      6  N   UNL     1       1.179   1.962  18.466  0.00  0.00    +0.000 N 
ATOM      7  N   UNL     1       1.555   4.246  18.739  0.00  0.00    +0.000 NA
ATOM      8  C   UNL     1       2.272   5.468  19.063  0.00  0.00    +0.000 C 
ATOM      9  C   UNL     1       1.961   6.432  17.898  0.00  0.00    +0.000 C 
ATOM     10  C   UNL     1       2.338   7.894  18.128  0.00  0.00    +0.000 C 
ATOM     11  S   UNL     1       1.524   8.624  19.620  0.00  0.00    +0.000 S 
ATOM     12  C   UNL     1       1.771   7.328  20.912  0.00  0.00    +0.000 C 
ATOM     13  C   UNL     1       1.533   5.931  20.363  0.00  0.00    +0.000 C 
ATOM     14  H   UNL     1       6.278   4.221  19.630  0.00  0.00    +0.000 HD
ATOM     15  H   UNL     1       5.877   2.518  19.489  0.00  0.00    +0.000 HD
ATOM     16  H   UNL     1       1.542   1.001  18.493  0.00  0.00    +0.000 HD
ATOM     17  H   UNL     1       0.184   2.116  18.245  0.00  0.00    +0.000 HD
ENDROOT
BRANCH   1  18
ATOM     18  O   UNL     1       4.715   6.123  18.990  0.00  0.00    +0.000 OA
BRANCH  18  19
ATOM     19  C   UNL     1       5.324   5.843  17.738  0.00  0.00    +0.000 C 
BRANCH  19  20
ATOM     20  C   UNL     1       6.838   6.204  17.591  0.00  0.00    +0.000 C 
BRANCH  20  21
ATOM     21  C   UNL     1       7.507   5.162  16.675  0.00  0.00    +0.000 C 
BRANCH  21  22
ATOM     22  O   UNL     1       7.591   5.542  15.327  0.00  0.00    +0.000 OA
BRANCH  22  26
ATOM     23  C   UNL     1       5.538   3.439  12.304  0.00  0.00    +0.000 A 
ATOM     24  C   UNL     1       4.983   3.627  13.568  0.00  0.00    +0.000 A 
ATOM     25  C   UNL     1       5.661   4.310  14.561  0.00  0.00    +0.000 A 
ATOM     26  C   UNL     1       6.937   4.858  14.339  0.00  0.00    +0.000 A 
ATOM     27  C   UNL     1       7.515   4.679  13.055  0.00  0.00    +0.000 A 
ATOM     28  C   UNL     1       6.827   3.976  12.046  0.00  0.00    +0.000 A 
BRANCH  23  30
ATOM     29  C   UNL     1       3.626   3.113  10.828  0.00  0.00    +0.000 C 
ATOM     30  O   UNL     1       4.874   2.750  11.339  0.00  0.00    +0.000 OA
ENDBRANCH  23  30
ENDBRANCH  22  26
ENDBRANCH  21  22
ENDBRANCH  20  21
ENDBRANCH  19  20
ENDBRANCH  18  19
ENDBRANCH   1  18
TORSDOF 7
ENDMDL
MODEL 5
REMARK VINA RESULT:      -7.2      4.699      7.942
REMARK  Name = 
REMARK  8 active torsions:
REMARK  status: ('A' for Active; 'I' for Inactive)
REMARK    1  A    between atoms: C_1  and  O_2
REMARK    2  A    between atoms: O_2  and  C_3
REMARK    3  A    between atoms: C_6  and  O_7
REMARK    4  A    between atoms: O_7  and  C_8
REMARK    5  A    between atoms: C_8  and  C_9
REMARK    6  A    between atoms: C_9  and  C_10
REMARK    7  A    between atoms: C_10  and  O_11
REMARK    8  A    between atoms: O_11  and  N_12
REMARK                            x       y       z     vdW  Elec       q    Type
REMARK                         _______ _______ _______ _____ _____    ______ ____
ROOT
ATOM      1  N   UNL     1       3.531   5.307  17.907  0.00  0.00    +0.000 N 
ATOM      2  C   UNL     1       4.550   6.005  17.164  0.00  0.00    +0.000 C 
ATOM      3  N   UNL     1       4.595   7.436  17.174  0.00  0.00    +0.000 N 
ATOM      4  N   UNL     1       5.410   5.394  16.440  0.00  0.00    +0.000 NA
ATOM      5  C   UNL     1       5.387   3.986  16.295  0.00  0.00    +0.000 C 
ATOM      6  N   UNL     1       6.316   3.351  15.433  0.00  0.00    +0.000 N 
ATOM      7  N   UNL     1       4.543   3.290  16.944  0.00  0.00    +0.000 NA
ATOM      8  C   UNL     1       3.568   3.780  17.905  0.00  0.00    +0.000 C 
ATOM      9  C   UNL     1       2.232   3.135  17.480  0.00  0.00    +0.000 C 
ATOM     10  C   UNL     1       1.094   3.235  18.494  0.00  0.00    +0.000 C 
ATOM     11  S   UNL     1       1.519   2.487  20.132  0.00  0.00    +0.000 S 
ATOM     12  C   UNL     1       3.207   3.153  20.475  0.00  0.00    +0.000 C 
ATOM     13  C   UNL     1       4.085   3.135  19.234  0.00  0.00    +0.000 C 
ATOM     14  H   UNL     1       3.923   7.994  17.707  0.00  0.00    +0.000 HD
ATOM     15  H   UNL     1       5.308   7.931  16.631  0.00  0.00    +0.000 HD
ATOM     16  H   UNL     1       7.015   3.902  14.919  0.00  0.00    +0.000 HD
ATOM     17  H   UNL     1       6.309   2.326  15.328  0.00  0.00    +0.000 HD
ENDROOT
BRANCH   1  18
ATOM     18  O   UNL     1       2.420   6.011  18.233  0.00  0.00    +0.000 OA
BRANCH  18  19
ATOM     19  C   UNL     1       2.499   6.400  19.596  0.00  0.00    +0.000 C 
BRANCH  19  20
ATOM     20  C   UNL     1       1.953   7.819  19.961  0.00  0.00    +0.000 C 
BRANCH  20  21
ATOM     21  C   UNL     1       1.722   8.609  18.658  0.00  0.00    +0.000 C 
BRANCH  21  22
ATOM     22  O   UNL     1       1.351   9.948  18.848  0.00  0.00    +0.000 OA
BRANCH  22  26
ATOM     23  C   UNL     1      -2.600  11.254  18.175  0.00  0.00    +0.000 A 
ATOM     24  C   UNL     1      -2.097  10.107  17.565  0.00  0.00    +0.000 A 
ATOM     25  C   UNL     1      -0.797   9.685  17.781  0.00  0.00    +0.000 A 
ATOM     26  C   UNL     1       0.072  10.384  18.635  0.00  0.00    +0.000 A 
ATOM     27  C   UNL     1      -0.425  11.553  19.268  0.00  0.00    +0.000 A 
ATOM     28  C   UNL     1      -1.747  11.988  19.042  0.00  0.00    +0.000 A 
BRANCH  23  30
ATOM     29  C   UNL     1      -4.528  11.565  16.717  0.00  0.00    +0.000 C 
ATOM     30  O   UNL     1      -3.871  11.675  17.945  0.00  0.00    +0.000 OA
ENDBRANCH  23  30
ENDBRANCH  22  26
ENDBRANCH  21  22
ENDBRANCH  20  21
ENDBRANCH  19  20
ENDBRANCH  18  19
ENDBRANCH   1  18
TORSDOF 7
ENDMDL
MODEL 6
REMARK VINA RESULT:      -7.2      4.704      8.019
REMARK  Name = 
REMARK  8 active torsions:
REMARK  status: ('A' for Active; 'I' for Inactive)
REMARK    1  A    between atoms: C_1  and  O_2
REMARK    2  A    between atoms: O_2  and  C_3
REMARK    3  A    between atoms: C_6  and  O_7
REMARK    4  A    between atoms: O_7  and  C_8
REMARK    5  A    between atoms: C_8  and  C_9
REMARK    6  A    between atoms: C_9  and  C_10
REMARK    7  A    between atoms: C_10  and  O_11
REMARK    8  A    between atoms: O_11  and  N_12
REMARK                            x       y       z     vdW  Elec       q    Type
REMARK                         _______ _______ _______ _____ _____    ______ ____
ROOT
ATOM      1  N   UNL     1       3.410   5.312  18.096  0.00  0.00    +0.000 N 
ATOM      2  C   UNL     1       4.407   5.971  17.291  0.00  0.00    +0.000 C 
ATOM      3  N   UNL     1       4.481   7.401  17.264  0.00  0.00    +0.000 N 
ATOM      4  N   UNL     1       5.220   5.326  16.543  0.00  0.00    +0.000 NA
ATOM      5  C   UNL     1       5.163   3.916  16.433  0.00  0.00    +0.000 C 
ATOM      6  N   UNL     1       6.038   3.243  15.544  0.00  0.00    +0.000 N 
ATOM      7  N   UNL     1       4.337   3.252  17.136  0.00  0.00    +0.000 NA
ATOM      8  C   UNL     1       3.418   3.785  18.129  0.00  0.00    +0.000 C 
ATOM      9  C   UNL     1       2.050   3.158  17.781  0.00  0.00    +0.000 C 
ATOM     10  C   UNL     1       0.963   3.305  18.843  0.00  0.00    +0.000 C 
ATOM     11  S   UNL     1       1.449   2.585  20.478  0.00  0.00    +0.000 S 
ATOM     12  C   UNL     1       3.164   3.225  20.727  0.00  0.00    +0.000 C 
ATOM     13  C   UNL     1       3.982   3.160  19.448  0.00  0.00    +0.000 C 
ATOM     14  H   UNL     1       3.845   7.985  17.814  0.00  0.00    +0.000 HD
ATOM     15  H   UNL     1       5.177   7.869  16.678  0.00  0.00    +0.000 HD
ATOM     16  H   UNL     1       6.723   3.767  14.985  0.00  0.00    +0.000 HD
ATOM     17  H   UNL     1       6.006   2.216  15.464  0.00  0.00    +0.000 HD
ENDROOT
BRANCH   1  18
ATOM     18  O   UNL     1       2.329   6.046  18.456  0.00  0.00    +0.000 OA
BRANCH  18  19
ATOM     19  C   UNL     1       2.514   6.529  19.779  0.00  0.00    +0.000 C 
BRANCH  19  20
ATOM     20  C   UNL     1       1.639   7.747  20.216  0.00  0.00    +0.000 C 
BRANCH  20  21
ATOM     21  C   UNL     1       1.678   8.810  19.102  0.00  0.00    +0.000 C 
BRANCH  21  22
ATOM     22  O   UNL     1       1.063  10.025  19.435  0.00  0.00    +0.000 OA
BRANCH  22  26
ATOM     23  C   UNL     1      -2.692  11.167  17.896  0.00  0.00    +0.000 A 
ATOM     24  C   UNL     1      -2.154  11.773  19.029  0.00  0.00    +0.000 A 
ATOM     25  C   UNL     1      -0.925  11.391  19.537  0.00  0.00    +0.000 A 
ATOM     26  C   UNL     1      -0.156  10.384  18.928  0.00  0.00    +0.000 A 
ATOM     27  C   UNL     1      -0.689   9.759  17.770  0.00  0.00    +0.000 A 
ATOM     28  C   UNL     1      -1.944  10.143  17.257  0.00  0.00    +0.000 A 
BRANCH  23  30
ATOM     29  C   UNL     1      -4.993  11.910  18.207  0.00  0.00    +0.000 C 
ATOM     30  O   UNL     1      -3.908  11.533  17.412  0.00  0.00    +0.000 OA
ENDBRANCH  23  30
ENDBRANCH  22  26
ENDBRANCH  21  22
ENDBRANCH  20  21
ENDBRANCH  19  20
ENDBRANCH  18  19
ENDBRANCH   1  18
TORSDOF 7
ENDMDL
MODEL 7
REMARK VINA RESULT:      -7.1      2.355      3.568
REMARK  Name = 
REMARK  8 active torsions:
REMARK  status: ('A' for Active; 'I' for Inactive)
REMARK    1  A    between atoms: C_1  and  O_2
REMARK    2  A    between atoms: O_2  and  C_3
REMARK    3  A    between atoms: C_6  and  O_7
REMARK    4  A    between atoms: O_7  and  C_8
REMARK    5  A    between atoms: C_8  and  C_9
REMARK    6  A    between atoms: C_9  and  C_10
REMARK    7  A    between atoms: C_10  and  O_11
REMARK    8  A    between atoms: O_11  and  N_12
REMARK                            x       y       z     vdW  Elec       q    Type
REMARK                         _______ _______ _______ _____ _____    ______ ____
ROOT
ATOM      1  N   UNL     1       4.129   5.704  17.924  0.00  0.00    +0.000 N 
ATOM      2  C   UNL     1       4.375   6.990  17.322  0.00  0.00    +0.000 C 
ATOM      3  N   UNL     1       5.588   7.225  16.597  0.00  0.00    +0.000 N 
ATOM      4  N   UNL     1       3.564   7.972  17.446  0.00  0.00    +0.000 NA
ATOM      5  C   UNL     1       2.384   7.862  18.220  0.00  0.00    +0.000 C 
ATOM      6  N   UNL     1       1.544   8.992  18.387  0.00  0.00    +0.000 N 
ATOM      7  N   UNL     1       2.072   6.752  18.757  0.00  0.00    +0.000 NA
ATOM      8  C   UNL     1       2.793   5.496  18.636  0.00  0.00    +0.000 C 
ATOM      9  C   UNL     1       2.943   4.982  20.084  0.00  0.00    +0.000 C 
ATOM     10  C   UNL     1       3.395   3.531  20.229  0.00  0.00    +0.000 C 
ATOM     11  S   UNL     1       2.266   2.334  19.383  0.00  0.00    +0.000 S 
ATOM     12  C   UNL     1       1.982   3.117  17.734  0.00  0.00    +0.000 C 
ATOM     13  C   UNL     1       1.762   4.617  17.851  0.00  0.00    +0.000 C 
ATOM     14  H   UNL     1       6.297   6.496  16.480  0.00  0.00    +0.000 HD
ATOM     15  H   UNL     1       5.770   8.143  16.186  0.00  0.00    +0.000 HD
ATOM     16  H   UNL     1       1.776   9.888  17.941  0.00  0.00    +0.000 HD
ATOM     17  H   UNL     1       0.680   8.917  18.944  0.00  0.00    +0.000 HD
ENDROOT
BRANCH   1  18
ATOM     18  O   UNL     1       5.208   4.916  18.149  0.00  0.00    +0.000 OA
BRANCH  18  19
ATOM     19  C   UNL     1       6.203   5.671  18.824  0.00  0.00    +0.000 C 
BRANCH  19  20
ATOM     20  C   UNL     1       7.681   5.186  18.675  0.00  0.00    +0.000 C 
BRANCH  20  21
ATOM     21  C   UNL     1       7.829   4.455  17.327  0.00  0.00    +0.000 C 
BRANCH  21  22
ATOM     22  O   UNL     1       7.575   5.253  16.202  0.00  0.00    +0.000 OA
BRANCH  22  26
ATOM     23  C   UNL     1       5.978   3.674  12.634  0.00  0.00    +0.000 A 
ATOM     24  C   UNL     1       7.110   4.486  12.630  0.00  0.00    +0.000 A 
ATOM     25  C   UNL     1       7.628   5.009  13.802  0.00  0.00    +0.000 A 
ATOM     26  C   UNL     1       7.045   4.738  15.051  0.00  0.00    +0.000 A 
ATOM     27  C   UNL     1       5.893   3.909  15.073  0.00  0.00    +0.000 A 
ATOM     28  C   UNL     1       5.361   3.382  13.880  0.00  0.00    +0.000 A 
BRANCH  23  30
ATOM     29  C   UNL     1       4.098   3.072  11.205  0.00  0.00    +0.000 C 
ATOM     30  O   UNL     1       5.463   3.178  11.479  0.00  0.00    +0.000 OA
ENDBRANCH  23  30
ENDBRANCH  22  26
ENDBRANCH  21  22
ENDBRANCH  20  21
ENDBRANCH  19  20
ENDBRANCH  18  19
ENDBRANCH   1  18
TORSDOF 7
ENDMDL
MODEL 8
REMARK VINA RESULT:      -7.1      4.559      8.986
REMARK  Name = 
REMARK  8 active torsions:
REMARK  status: ('A' for Active; 'I' for Inactive)
REMARK    1  A    between atoms: C_1  and  O_2
REMARK    2  A    between atoms: O_2  and  C_3
REMARK    3  A    between atoms: C_6  and  O_7
REMARK    4  A    between atoms: O_7  and  C_8
REMARK    5  A    between atoms: C_8  and  C_9
REMARK    6  A    between atoms: C_9  and  C_10
REMARK    7  A    between atoms: C_10  and  O_11
REMARK    8  A    between atoms: O_11  and  N_12
REMARK                            x       y       z     vdW  Elec       q    Type
REMARK                         _______ _______ _______ _____ _____    ______ ____
ROOT
ATOM      1  N   UNL     1       3.429   5.280  17.932  0.00  0.00    +0.000 N 
ATOM      2  C   UNL     1       4.420   5.981  17.156  0.00  0.00    +0.000 C 
ATOM      3  N   UNL     1       4.417   7.412  17.108  0.00  0.00    +0.000 N 
ATOM      4  N   UNL     1       5.297   5.371  16.452  0.00  0.00    +0.000 NA
ATOM      5  C   UNL     1       5.321   3.958  16.364  0.00  0.00    +0.000 C 
ATOM      6  N   UNL     1       6.267   3.321  15.522  0.00  0.00    +0.000 N 
ATOM      7  N   UNL     1       4.504   3.261  17.045  0.00  0.00    +0.000 NA
ATOM      8  C   UNL     1       3.518   3.756  17.991  0.00  0.00    +0.000 C 
ATOM      9  C   UNL     1       2.201   3.050  17.599  0.00  0.00    +0.000 C 
ATOM     10  C   UNL     1       1.066   3.153  18.615  0.00  0.00    +0.000 C 
ATOM     11  S   UNL     1       1.523   2.485  20.279  0.00  0.00    +0.000 S 
ATOM     12  C   UNL     1       3.189   3.221  20.585  0.00  0.00    +0.000 C 
ATOM     13  C   UNL     1       4.061   3.182  19.341  0.00  0.00    +0.000 C 
ATOM     14  H   UNL     1       3.729   7.968  17.623  0.00  0.00    +0.000 HD
ATOM     15  H   UNL     1       5.110   7.909  16.542  0.00  0.00    +0.000 HD
ATOM     16  H   UNL     1       6.945   3.874  14.982  0.00  0.00    +0.000 HD
ATOM     17  H   UNL     1       6.294   2.293  15.458  0.00  0.00    +0.000 HD
ENDROOT
BRANCH   1  18
ATOM     18  O   UNL     1       2.296   5.959  18.236  0.00  0.00    +0.000 OA
BRANCH  18  19
ATOM     19  C   UNL     1       2.379   6.426  19.574  0.00  0.00    +0.000 C 
BRANCH  19  20
ATOM     20  C   UNL     1       1.879   7.882  19.848  0.00  0.00    +0.000 C 
BRANCH  20  21
ATOM     21  C   UNL     1       1.144   7.905  21.202  0.00  0.00    +0.000 C 
BRANCH  21  22
ATOM     22  O   UNL     1       1.280   9.104  21.917  0.00  0.00    +0.000 OA
BRANCH  22  26
ATOM     23  C   UNL     1      -1.768  12.013  22.042  0.00  0.00    +0.000 A 
ATOM     24  C   UNL     1      -1.501  11.189  23.133  0.00  0.00    +0.000 A 
ATOM     25  C   UNL     1      -0.506  10.230  23.087  0.00  0.00    +0.000 A 
ATOM     26  C   UNL     1       0.292  10.049  21.944  0.00  0.00    +0.000 A 
ATOM     27  C   UNL     1       0.036  10.884  20.825  0.00  0.00    +0.000 A 
ATOM     28  C   UNL     1      -0.983  11.856  20.869  0.00  0.00    +0.000 A 
BRANCH  23  30
ATOM     29  C   UNL     1      -4.022  12.776  21.511  0.00  0.00    +0.000 C 
ATOM     30  O   UNL     1      -2.759  12.942  22.086  0.00  0.00    +0.000 OA
ENDBRANCH  23  30
ENDBRANCH  22  26
ENDBRANCH  21  22
ENDBRANCH  20  21
ENDBRANCH  19  20
ENDBRANCH  18  19
ENDBRANCH   1  18
TORSDOF 7
ENDMDL
MODEL 9
REMARK VINA RESULT:      -7.0      5.317      7.532
REMARK  Name = 
REMARK  8 active torsions:
REMARK  status: ('A' for Active; 'I' for Inactive)
REMARK    1  A    between atoms: C_1  and  O_2
REMARK    2  A    between atoms: O_2  and  C_3
REMARK    3  A    between atoms: C_6  and  O_7
REMARK    4  A    between atoms: O_7  and  C_8
REMARK    5  A    between atoms: C_8  and  C_9
REMARK    6  A    between atoms: C_9  and  C_10
REMARK    7  A    between atoms: C_10  and  O_11
REMARK    8  A    between atoms: O_11  and  N_12
REMARK                            x       y       z     vdW  Elec       q    Type
REMARK                         _______ _______ _______ _____ _____    ______ ____
ROOT
ATOM      1  N   UNL     1       6.202   5.118  17.627  0.00  0.00    +0.000 N 
ATOM      2  C   UNL     1       7.331   4.380  17.120  0.00  0.00    +0.000 C 
ATOM      3  N   UNL     1       8.488   4.181  17.939  0.00  0.00    +0.000 N 
ATOM      4  N   UNL     1       7.370   3.924  15.925  0.00  0.00    +0.000 NA
ATOM      5  C   UNL     1       6.312   4.151  15.012  0.00  0.00    +0.000 C 
ATOM      6  N   UNL     1       6.421   3.685  13.678  0.00  0.00    +0.000 N 
ATOM      7  N   UNL     1       5.262   4.762  15.388  0.00  0.00    +0.000 NA
ATOM      8  C   UNL     1       4.974   5.249  16.727  0.00  0.00    +0.000 C 
ATOM      9  C   UNL     1       4.514   6.710  16.529  0.00  0.00    +0.000 C 
ATOM     10  C   UNL     1       3.858   7.369  17.740  0.00  0.00    +0.000 C 
ATOM     11  S   UNL     1       2.372   6.448  18.347  0.00  0.00    +0.000 S 
ATOM     12  C   UNL     1       2.946   4.693  18.371  0.00  0.00    +0.000 C 
ATOM     13  C   UNL     1       3.762   4.348  17.136  0.00  0.00    +0.000 C 
ATOM     14  H   UNL     1       8.541   4.541  18.895  0.00  0.00    +0.000 HD
ATOM     15  H   UNL     1       9.296   3.673  17.571  0.00  0.00    +0.000 HD
ATOM     16  H   UNL     1       7.256   3.173  13.367  0.00  0.00    +0.000 HD
ATOM     17  H   UNL     1       5.652   3.842  13.010  0.00  0.00    +0.000 HD
ENDROOT
BRANCH   1  18
ATOM     18  O   UNL     1       6.432   5.945  18.676  0.00  0.00    +0.000 OA
BRANCH  18  19
ATOM     19  C   UNL     1       7.659   6.628  18.470  0.00  0.00    +0.000 C 
BRANCH  19  20
ATOM     20  C   UNL     1       7.599   7.961  17.655  0.00  0.00    +0.000 C 
BRANCH  20  21
ATOM     21  C   UNL     1       8.677   8.919  18.196  0.00  0.00    +0.000 C 
BRANCH  21  22
ATOM     22  O   UNL     1       8.270  10.258  18.291  0.00  0.00    +0.000 OA
BRANCH  22  26
ATOM     23  C   UNL     1      11.067  13.411  18.380  0.00  0.00    +0.000 A 
ATOM     24  C   UNL     1      11.302  12.208  19.043  0.00  0.00    +0.000 A 
ATOM     25  C   UNL     1      10.379  11.177  19.018  0.00  0.00    +0.000 A 
ATOM     26  C   UNL     1       9.167  11.290  18.315  0.00  0.00    +0.000 A 
ATOM     27  C   UNL     1       8.914  12.508  17.632  0.00  0.00    +0.000 A 
ATOM     28  C   UNL     1       9.851  13.560  17.663  0.00  0.00    +0.000 A 
BRANCH  23  30
ATOM     29  C   UNL     1      12.220  15.303  17.365  0.00  0.00    +0.000 C 
ATOM     30  O   UNL     1      11.969  14.426  18.423  0.00  0.00    +0.000 OA
ENDBRANCH  23  30
ENDBRANCH  22  26
ENDBRANCH  21  22
ENDBRANCH  20  21
ENDBRANCH  19  20
ENDBRANCH  18  19
ENDBRANCH   1  18
TORSDOF 7
ENDMDL
