MODEL 1
REMARK VINA RESULT:      -7.9      0.000      0.000
REMARK  Name = 
REMARK  11 active torsions:
REMARK  status: ('A' for Active; 'I' for Inactive)
REMARK    1  A    between atoms: C_1  and  C_2
REMARK    2  A    between atoms: C_2  and  CA_3
REMARK    3  A    between atoms: CA_3  and  C_4
REMARK    4  A    between atoms: CA_3  and  N_6
REMARK    5  A    between atoms: C_4  and  O_5
REMARK    6  A    between atoms: N_10  and  C_11
REMARK    7  A    between atoms: C_11  and  C_12
REMARK    8  A    between atoms: C_20  and  S_21
REMARK    9  A    between atoms: N_22  and  C_23
REMARK   10  A    between atoms: C_23  and  C_24
REMARK   11  A    between atoms: C_23  and  C_25
REMARK                            x       y       z     vdW  Elec       q    Type
REMARK                         _______ _______ _______ _____ _____    ______ ____
ROOT
ATOM      1  N   UNL     1       2.321   8.844  18.324  0.00  0.00    +0.000 N 
ATOM      2  C   UNL     1       2.879   7.592  18.194  0.00  0.00    +0.000 A 
ATOM      3  N   UNL     1       3.910   7.553  17.334  0.00  0.00    +0.000 NA
ATOM      4  C   UNL     1       4.503   6.381  17.020  0.00  0.00    +0.000 A 
ATOM      5  N   UNL     1       5.552   6.436  16.105  0.00  0.00    +0.000 N 
ATOM      6  C   UNL     1       4.008   5.219  17.629  0.00  0.00    +0.000 A 
ATOM      7  N   UNL     1       4.366   3.900  17.498  0.00  0.00    +0.000 NA
ATOM      8  C   UNL     1       3.561   3.258  18.304  0.00  0.00    +0.000 A 
ATOM      9  N   UNL     1       2.675   4.092  18.955  0.00  0.00    +0.000 N 
ATOM     10  C   UNL     1       2.950   5.367  18.509  0.00  0.00    +0.000 A 
ATOM     11  N   UNL     1       2.344   6.530  18.820  0.00  0.00    +0.000 NA
ATOM     12  H   UNL     1       3.057   9.463  18.646  0.00  0.00    +0.000 HD
ATOM     13  H   UNL     1       5.198   6.717  15.196  0.00  0.00    +0.000 HD
ENDROOT
BRANCH   9  14
ATOM     14  C   UNL     1       1.695   3.688  19.957  0.00  0.00    +0.000 C 
ATOM     15  C   UNL     1       0.671   2.717  19.367  0.00  0.00    +0.000 C 
ATOM     16  C   UNL     1       2.288   3.137  21.255  0.00  0.00    +0.000 C 
ENDBRANCH   9  14
BRANCH   8  17
ATOM     17  S   UNL     1       3.656   1.546  18.517  0.00  0.00    +0.000 S 
ATOM     18  H   UNL     1       3.602   1.248  17.208  0.00  0.00    +0.000 HD
ENDBRANCH   8  17
BRANCH   1  19
ATOM     19  CA  UNL     1       0.984   9.069  18.879  0.00  0.00    +0.000 C 
BRANCH  19  21
ATOM     20  C   UNL     1      -0.040   8.904  21.254  0.00  0.00    +0.000 C 
ATOM     21  C   UNL     1       1.167   9.282  20.404  0.00  0.00    +0.000 C 
ENDBRANCH  19  21
BRANCH  19  22
ATOM     22  C   UNL     1       0.351  10.340  18.249  0.00  0.00    +0.000 C 
BRANCH  22  23
ATOM     23  O   UNL     1      -0.788  10.083  17.434  0.00  0.00    +0.000 OA
ATOM     24  H   UNL     1      -0.590  10.454  16.556  0.00  0.00    +0.000 HD
ENDBRANCH  22  23
ENDBRANCH  19  22
ENDBRANCH   1  19
BRANCH   5  25
ATOM     25  C   UNL     1       6.469   5.315  16.062  0.00  0.00    +0.000 C 
BRANCH  25  26
ATOM     26  C   UNL     1       6.583   4.855  14.626  0.00  0.00    +0.000 A 
ATOM     27  C   UNL     1       7.603   5.379  13.809  0.00  0.00    +0.000 A 
ATOM     28  C   UNL     1       7.724   4.969  12.482  0.00  0.00    +0.000 A 
ATOM     29  C   UNL     1       6.838   4.033  11.963  0.00  0.00    +0.000 A 
ATOM     30  C   UNL     1       5.834   3.494  12.768  0.00  0.00    +0.000 A 
ATOM     31  C   UNL     1       5.709   3.901  14.099  0.00  0.00    +0.000 A 
ENDBRANCH  25  26
ENDBRANCH   5  25
TORSDOF 8
ENDMDL
MODEL 2
REMARK VINA RESULT:      -7.8      0.483      1.048
REMARK  Name = 
REMARK  11 active torsions:
REMARK  status: ('A' for Active; 'I' for Inactive)
REMARK    1  A    between atoms: C_1  and  C_2
REMARK    2  A    between atoms: C_2  and  CA_3
REMARK    3  A    between atoms: CA_3  and  C_4
REMARK    4  A    between atoms: CA_3  and  N_6
REMARK    5  A    between atoms: C_4  and  O_5
REMARK    6  A    between atoms: N_10  and  C_11
REMARK    7  A    between atoms: C_11  and  C_12
REMARK    8  A    between atoms: C_20  and  S_21
REMARK    9  A    between atoms: N_22  and  C_23
REMARK   10  A    between atoms: C_23  and  C_24
REMARK   11  A    between atoms: C_23  and  C_25
REMARK                            x       y       z     vdW  Elec       q    Type
REMARK                         _______ _______ _______ _____ _____    ______ ____
ROOT
ATOM      1  N   UNL     1       2.333   8.792  18.336  0.00  0.00    +0.000 N 
ATOM      2  C   UNL     1       2.894   7.542  18.200  0.00  0.00    +0.000 A 
ATOM      3  N   UNL     1       3.926   7.510  17.340  0.00  0.00    +0.000 NA
ATOM      4  C   UNL     1       4.522   6.341  17.020  0.00  0.00    +0.000 A 
ATOM      5  N   UNL     1       5.572   6.403  16.106  0.00  0.00    +0.000 N 
ATOM      6  C   UNL     1       4.029   5.175  17.622  0.00  0.00    +0.000 A 
ATOM      7  N   UNL     1       4.390   3.857  17.484  0.00  0.00    +0.000 NA
ATOM      8  C   UNL     1       3.585   3.209  18.285  0.00  0.00    +0.000 A 
ATOM      9  N   UNL     1       2.697   4.037  18.941  0.00  0.00    +0.000 N 
ATOM     10  C   UNL     1       2.970   5.315  18.502  0.00  0.00    +0.000 A 
ATOM     11  N   UNL     1       2.361   6.475  18.819  0.00  0.00    +0.000 NA
ATOM     12  H   UNL     1       3.068   9.410  18.662  0.00  0.00    +0.000 HD
ATOM     13  H   UNL     1       5.217   6.689  15.198  0.00  0.00    +0.000 HD
ENDROOT
BRANCH   9  14
ATOM     14  C   UNL     1       1.717   3.625  19.939  0.00  0.00    +0.000 C 
ATOM     15  C   UNL     1       0.692   2.660  19.341  0.00  0.00    +0.000 C 
ATOM     16  C   UNL     1       2.310   3.062  21.231  0.00  0.00    +0.000 C 
ENDBRANCH   9  14
BRANCH   8  17
ATOM     17  S   UNL     1       3.685   1.496  18.489  0.00  0.00    +0.000 S 
ATOM     18  H   UNL     1       5.024   1.452  18.575  0.00  0.00    +0.000 HD
ENDBRANCH   8  17
BRANCH   1  19
ATOM     19  CA  UNL     1       0.995   9.010  18.891  0.00  0.00    +0.000 C 
BRANCH  19  21
ATOM     20  C   UNL     1      -0.052   8.913  21.260  0.00  0.00    +0.000 C 
ATOM     21  C   UNL     1       1.178   9.226  20.416  0.00  0.00    +0.000 C 
ENDBRANCH  19  21
BRANCH  19  22
ATOM     22  C   UNL     1       0.356  10.278  18.260  0.00  0.00    +0.000 C 
BRANCH  22  23
ATOM     23  O   UNL     1       1.263  11.359  18.073  0.00  0.00    +0.000 OA
ATOM     24  H   UNL     1       1.086  11.720  17.187  0.00  0.00    +0.000 HD
ENDBRANCH  22  23
ENDBRANCH  19  22
ENDBRANCH   1  19
BRANCH   5  25
ATOM     25  C   UNL     1       6.491   5.284  16.058  0.00  0.00    +0.000 C 
BRANCH  25  26
ATOM     26  C   UNL     1       6.621   4.844  14.617  0.00  0.00    +0.000 A 
ATOM     27  C   UNL     1       5.717   3.898  14.097  0.00  0.00    +0.000 A 
ATOM     28  C   UNL     1       5.821   3.477  12.772  0.00  0.00    +0.000 A 
ATOM     29  C   UNL     1       6.818   3.999  11.956  0.00  0.00    +0.000 A 
ATOM     30  C   UNL     1       7.709   4.949  12.456  0.00  0.00    +0.000 A 
ATOM     31  C   UNL     1       7.608   5.374  13.783  0.00  0.00    +0.000 A 
ENDBRANCH  25  26
ENDBRANCH   5  25
TORSDOF 8
ENDMDL
MODEL 3
REMARK VINA RESULT:      -7.5      2.744      7.454
REMARK  Name = 
REMARK  11 active torsions:
REMARK  status: ('A' for Active; 'I' for Inactive)
REMARK    1  A    between atoms: C_1  and  C_2
REMARK    2  A    between atoms: C_2  and  CA_3
REMARK    3  A    between atoms: CA_3  and  C_4
REMARK    4  A    between atoms: CA_3  and  N_6
REMARK    5  A    between atoms: C_4  and  O_5
REMARK    6  A    between atoms: N_10  and  C_11
REMARK    7  A    between atoms: C_11  and  C_12
REMARK    8  A    between atoms: C_20  and  S_21
REMARK    9  A    between atoms: N_22  and  C_23
REMARK   10  A    between atoms: C_23  and  C_24
REMARK   11  A    between atoms: C_23  and  C_25
REMARK                            x       y       z     vdW  Elec       q    Type
REMARK                         _______ _______ _______ _____ _____    ______ ____
ROOT
ATOM      1  N   UNL     1       4.671   6.809  16.648  0.00  0.00    +0.000 N 
ATOM      2  C   UNL     1       3.871   6.349  17.671  0.00  0.00    +0.000 A 
ATOM      3  N   UNL     1       3.233   7.329  18.332  0.00  0.00    +0.000 NA
ATOM      4  C   UNL     1       2.488   7.053  19.424  0.00  0.00    +0.000 A 
ATOM      5  N   UNL     1       1.877   8.135  20.055  0.00  0.00    +0.000 N 
ATOM      6  C   UNL     1       2.402   5.714  19.830  0.00  0.00    +0.000 A 
ATOM      7  N   UNL     1       1.764   5.125  20.894  0.00  0.00    +0.000 NA
ATOM      8  C   UNL     1       2.032   3.850  20.774  0.00  0.00    +0.000 A 
ATOM      9  N   UNL     1       2.830   3.568  19.685  0.00  0.00    +0.000 N 
ATOM     10  C   UNL     1       3.088   4.778  19.075  0.00  0.00    +0.000 A 
ATOM     11  N   UNL     1       3.844   5.044  17.991  0.00  0.00    +0.000 NA
ATOM     12  H   UNL     1       4.069   7.316  16.008  0.00  0.00    +0.000 HD
ATOM     13  H   UNL     1       2.587   8.738  20.459  0.00  0.00    +0.000 HD
ENDROOT
BRANCH   9  14
ATOM     14  C   UNL     1       3.252   2.242  19.251  0.00  0.00    +0.000 C 
ATOM     15  C   UNL     1       2.978   2.034  17.760  0.00  0.00    +0.000 C 
ATOM     16  C   UNL     1       4.696   1.877  19.598  0.00  0.00    +0.000 C 
ENDBRANCH   9  14
BRANCH   8  17
ATOM     17  S   UNL     1       1.402   2.678  21.876  0.00  0.00    +0.000 S 
ATOM     18  H   UNL     1       0.886   3.571  22.736  0.00  0.00    +0.000 HD
ENDBRANCH   8  17
BRANCH   1  19
ATOM     19  CA  UNL     1       5.740   6.007  16.049  0.00  0.00    +0.000 C 
BRANCH  19  21
ATOM     20  C   UNL     1       7.488   7.231  17.519  0.00  0.00    +0.000 C 
ATOM     21  C   UNL     1       6.865   5.901  17.111  0.00  0.00    +0.000 C 
ENDBRANCH  19  21
BRANCH  19  22
ATOM     22  C   UNL     1       5.213   4.586  15.706  0.00  0.00    +0.000 C 
BRANCH  22  23
ATOM     23  O   UNL     1       5.901   3.531  16.372  0.00  0.00    +0.000 OA
ATOM     24  H   UNL     1       6.769   3.886  16.631  0.00  0.00    +0.000 HD
ENDBRANCH  22  23
ENDBRANCH  19  22
ENDBRANCH   1  19
BRANCH   5  25
ATOM     25  C   UNL     1       0.762   7.860  20.938  0.00  0.00    +0.000 C 
BRANCH  25  26
ATOM     26  C   UNL     1       0.227   9.179  21.446  0.00  0.00    +0.000 A 
ATOM     27  C   UNL     1       0.345  10.330  20.644  0.00  0.00    +0.000 A 
ATOM     28  C   UNL     1      -0.141  11.557  21.096  0.00  0.00    +0.000 A 
ATOM     29  C   UNL     1      -0.751  11.644  22.341  0.00  0.00    +0.000 A 
ATOM     30  C   UNL     1      -0.888  10.506  23.137  0.00  0.00    +0.000 A 
ATOM     31  C   UNL     1      -0.404   9.274  22.688  0.00  0.00    +0.000 A 
ENDBRANCH  25  26
ENDBRANCH   5  25
TORSDOF 8
ENDMDL
MODEL 4
REMARK VINA RESULT:      -7.3      2.399      7.533
REMARK  Name = 
REMARK  11 active torsions:
REMARK  status: ('A' for Active; 'I' for Inactive)
REMARK    1  A    between atoms: C_1  and  C_2
REMARK    2  A    between atoms: C_2  and  CA_3
REMARK    3  A    between atoms: CA_3  and  C_4
REMARK    4  A    between atoms: CA_3  and  N_6
REMARK    5  A    between atoms: C_4  and  O_5
REMARK    6  A    between atoms: N_10  and  C_11
REMARK    7  A    between atoms: C_11  and  C_12
REMARK    8  A    between atoms: C_20  and  S_21
REMARK    9  A    between atoms: N_22  and  C_23
REMARK   10  A    between atoms: C_23  and  C_24
REMARK   11  A    between atoms: C_23  and  C_25
REMARK                            x       y       z     vdW  Elec       q    Type
REMARK                         _______ _______ _______ _____ _____    ______ ____
ROOT
ATOM      1  N   UNL     1       4.826   6.559  16.886  0.00  0.00    +0.000 N 
ATOM      2  C   UNL     1       3.976   6.130  17.881  0.00  0.00    +0.000 A 
ATOM      3  N   UNL     1       3.299   7.128  18.473  0.00  0.00    +0.000 NA
ATOM      4  C   UNL     1       2.499   6.885  19.533  0.00  0.00    +0.000 A 
ATOM      5  N   UNL     1       1.851   7.984  20.094  0.00  0.00    +0.000 N 
ATOM      6  C   UNL     1       2.398   5.561  19.981  0.00  0.00    +0.000 A 
ATOM      7  N   UNL     1       1.709   5.004  21.030  0.00  0.00    +0.000 NA
ATOM      8  C   UNL     1       1.988   3.728  20.969  0.00  0.00    +0.000 A 
ATOM      9  N   UNL     1       2.844   3.414  19.934  0.00  0.00    +0.000 N 
ATOM     10  C   UNL     1       3.127   4.604  19.296  0.00  0.00    +0.000 A 
ATOM     11  N   UNL     1       3.937   4.837  18.245  0.00  0.00    +0.000 NA
ATOM     12  H   UNL     1       4.255   7.040  16.198  0.00  0.00    +0.000 HD
ATOM     13  H   UNL     1       2.536   8.606  20.513  0.00  0.00    +0.000 HD
ENDROOT
BRANCH   9  14
ATOM     14  C   UNL     1       3.294   2.076  19.569  0.00  0.00    +0.000 C 
ATOM     15  C   UNL     1       3.088   1.811  18.077  0.00  0.00    +0.000 C 
ATOM     16  C   UNL     1       4.724   1.738  19.993  0.00  0.00    +0.000 C 
ENDBRANCH   9  14
BRANCH   8  17
ATOM     17  S   UNL     1       1.307   2.591  22.078  0.00  0.00    +0.000 S 
ATOM     18  H   UNL     1       0.992   3.497  23.018  0.00  0.00    +0.000 HD
ENDBRANCH   8  17
BRANCH   1  19
ATOM     19  CA  UNL     1       5.928   5.744  16.371  0.00  0.00    +0.000 C 
BRANCH  19  21
ATOM     20  C   UNL     1       6.442   4.449  14.186  0.00  0.00    +0.000 C 
ATOM     21  C   UNL     1       5.705   5.610  14.842  0.00  0.00    +0.000 C 
ENDBRANCH  19  21
BRANCH  19  22
ATOM     22  C   UNL     1       7.285   6.452  16.639  0.00  0.00    +0.000 C 
BRANCH  22  23
ATOM     23  O   UNL     1       7.167   7.820  17.015  0.00  0.00    +0.000 OA
ATOM     24  H   UNL     1       6.784   7.830  17.910  0.00  0.00    +0.000 HD
ENDBRANCH  22  23
ENDBRANCH  19  22
ENDBRANCH   1  19
BRANCH   5  25
ATOM     25  C   UNL     1       0.693   7.732  20.926  0.00  0.00    +0.000 C 
BRANCH  25  26
ATOM     26  C   UNL     1       0.147   9.064  21.389  0.00  0.00    +0.000 A 
ATOM     27  C   UNL     1       0.119  10.151  20.495  0.00  0.00    +0.000 A 
ATOM     28  C   UNL     1      -0.378  11.388  20.903  0.00  0.00    +0.000 A 
ATOM     29  C   UNL     1      -0.856  11.549  22.198  0.00  0.00    +0.000 A 
ATOM     30  C   UNL     1      -0.849  10.474  23.088  0.00  0.00    +0.000 A 
ATOM     31  C   UNL     1      -0.352   9.232  22.683  0.00  0.00    +0.000 A 
ENDBRANCH  25  26
ENDBRANCH   5  25
TORSDOF 8
ENDMDL
MODEL 5
REMARK VINA RESULT:      -7.0      2.680      7.471
REMARK  Name = 
REMARK  11 active torsions:
REMARK  status: ('A' for Active; 'I' for Inactive)
REMARK    1  A    between atoms: C_1  and  C_2
REMARK    2  A    between atoms: C_2  and  CA_3
REMARK    3  A    between atoms: CA_3  and  C_4
REMARK    4  A    between atoms: CA_3  and  N_6
REMARK    5  A    between atoms: C_4  and  O_5
REMARK    6  A    between atoms: N_10  and  C_11
REMARK    7  A    between atoms: C_11  and  C_12
REMARK    8  A    between atoms: C_20  and  S_21
REMARK    9  A    between atoms: N_22  and  C_23
REMARK   10  A    between atoms: C_23  and  C_24
REMARK   11  A    between atoms: C_23  and  C_25
REMARK                            x       y       z     vdW  Elec       q    Type
REMARK                         _______ _______ _______ _____ _____    ______ ____
ROOT
ATOM      1  N   UNL     1       4.793   7.012  16.548  0.00  0.00    +0.000 N 
ATOM      2  C   UNL     1       4.023   6.508  17.572  0.00  0.00    +0.000 A 
ATOM      3  N   UNL     1       3.300   7.444  18.208  0.00  0.00    +0.000 NA
ATOM      4  C   UNL     1       2.567   7.129  19.298  0.00  0.00    +0.000 A 
ATOM      5  N   UNL     1       1.864   8.169  19.903  0.00  0.00    +0.000 N 
ATOM      6  C   UNL     1       2.587   5.795  19.730  0.00  0.00    +0.000 A 
ATOM      7  N   UNL     1       1.988   5.176  20.799  0.00  0.00    +0.000 NA
ATOM      8  C   UNL     1       2.360   3.926  20.707  0.00  0.00    +0.000 A 
ATOM      9  N   UNL     1       3.190   3.689  19.631  0.00  0.00    +0.000 N 
ATOM     10  C   UNL     1       3.355   4.905  19.000  0.00  0.00    +0.000 A 
ATOM     11  N   UNL     1       4.098   5.212  17.918  0.00  0.00    +0.000 NA
ATOM     12  H   UNL     1       4.159   7.456  15.893  0.00  0.00    +0.000 HD
ATOM     13  H   UNL     1       2.518   8.836  20.301  0.00  0.00    +0.000 HD
ENDROOT
BRANCH   9  14
ATOM     14  C   UNL     1       3.723   2.394  19.227  0.00  0.00    +0.000 C 
ATOM     15  C   UNL     1       4.573   1.775  20.338  0.00  0.00    +0.000 C 
ATOM     16  C   UNL     1       2.682   1.398  18.715  0.00  0.00    +0.000 C 
ENDBRANCH   9  14
BRANCH   8  17
ATOM     17  S   UNL     1       1.816   2.727  21.826  0.00  0.00    +0.000 S 
ATOM     18  H   UNL     1       2.304   1.679  21.142  0.00  0.00    +0.000 HD
ENDBRANCH   8  17
BRANCH   1  19
ATOM     19  CA  UNL     1       5.930   6.289  15.975  0.00  0.00    +0.000 C 
BRANCH  19  21
ATOM     20  C   UNL     1       7.572   7.545  17.538  0.00  0.00    +0.000 C 
ATOM     21  C   UNL     1       7.008   6.204  17.086  0.00  0.00    +0.000 C 
ENDBRANCH  19  21
BRANCH  19  22
ATOM     22  C   UNL     1       5.497   4.856  15.559  0.00  0.00    +0.000 C 
BRANCH  22  23
ATOM     23  O   UNL     1       6.137   3.816  16.292  0.00  0.00    +0.000 OA
ATOM     24  H   UNL     1       6.886   4.226  16.758  0.00  0.00    +0.000 HD
ENDBRANCH  22  23
ENDBRANCH  19  22
ENDBRANCH   1  19
BRANCH   5  25
ATOM     25  C   UNL     1       0.766   7.820  20.780  0.00  0.00    +0.000 C 
BRANCH  25  26
ATOM     26  C   UNL     1       0.139   9.101  21.282  0.00  0.00    +0.000 A 
ATOM     27  C   UNL     1      -0.221   9.213  22.638  0.00  0.00    +0.000 A 
ATOM     28  C   UNL     1      -0.802  10.385  23.120  0.00  0.00    +0.000 A 
ATOM     29  C   UNL     1      -1.022  11.453  22.259  0.00  0.00    +0.000 A 
ATOM     30  C   UNL     1      -0.655  11.360  20.916  0.00  0.00    +0.000 A 
ATOM     31  C   UNL     1      -0.071  10.187  20.429  0.00  0.00    +0.000 A 
ENDBRANCH  25  26
ENDBRANCH   5  25
TORSDOF 8
ENDMDL
MODEL 6
REMARK VINA RESULT:      -7.0      2.506      7.236
REMARK  Name = 
REMARK  11 active torsions:
REMARK  status: ('A' for Active; 'I' for Inactive)
REMARK    1  A    between atoms: C_1  and  C_2
REMARK    2  A    between atoms: C_2  and  CA_3
REMARK    3  A    between atoms: CA_3  and  C_4
REMARK    4  A    between atoms: CA_3  and  N_6
REMARK    5  A    between atoms: C_4  and  O_5
REMARK    6  A    between atoms: N_10  and  C_11
REMARK    7  A    between atoms: C_11  and  C_12
REMARK    8  A    between atoms: C_20  and  S_21
REMARK    9  A    between atoms: N_22  and  C_23
REMARK   10  A    between atoms: C_23  and  C_24
REMARK   11  A    between atoms: C_23  and  C_25
REMARK                            x       y       z     vdW  Elec       q    Type
REMARK                         _______ _______ _______ _____ _____    ______ ____
ROOT
ATOM      1  N   UNL     1       5.403   5.625  15.941  0.00  0.00    +0.000 N 
ATOM      2  C   UNL     1       4.525   5.505  16.995  0.00  0.00    +0.000 A 
ATOM      3  N   UNL     1       3.951   6.667  17.348  0.00  0.00    +0.000 NA
ATOM      4  C   UNL     1       3.140   6.737  18.426  0.00  0.00    +0.000 A 
ATOM      5  N   UNL     1       2.604   7.987  18.726  0.00  0.00    +0.000 N 
ATOM      6  C   UNL     1       2.919   5.557  19.149  0.00  0.00    +0.000 A 
ATOM      7  N   UNL     1       2.188   5.309  20.286  0.00  0.00    +0.000 NA
ATOM      8  C   UNL     1       2.345   4.030  20.507  0.00  0.00    +0.000 A 
ATOM      9  N   UNL     1       3.159   3.419  19.575  0.00  0.00    +0.000 N 
ATOM     10  C   UNL     1       3.548   4.409  18.698  0.00  0.00    +0.000 A 
ATOM     11  N   UNL     1       4.368   4.331  17.631  0.00  0.00    +0.000 NA
ATOM     12  H   UNL     1       4.875   5.997  15.159  0.00  0.00    +0.000 HD
ATOM     13  H   UNL     1       3.348   8.618  19.009  0.00  0.00    +0.000 HD
ENDROOT
BRANCH   9  14
ATOM     14  C   UNL     1       3.477   1.997  19.515  0.00  0.00    +0.000 C 
ATOM     15  C   UNL     1       3.431   1.480  18.076  0.00  0.00    +0.000 C 
ATOM     16  C   UNL     1       4.786   1.599  20.198  0.00  0.00    +0.000 C 
ENDBRANCH   9  14
BRANCH   8  17
ATOM     17  S   UNL     1       1.569   3.230  21.827  0.00  0.00    +0.000 S 
ATOM     18  H   UNL     1       1.759   1.986  21.356  0.00  0.00    +0.000 HD
ENDBRANCH   8  17
BRANCH   1  19
ATOM     19  CA  UNL     1       6.419   4.618  15.629  0.00  0.00    +0.000 C 
BRANCH  19  21
ATOM     20  C   UNL     1       6.337   3.847  13.157  0.00  0.00    +0.000 C 
ATOM     21  C   UNL     1       6.856   4.867  14.162  0.00  0.00    +0.000 C 
ENDBRANCH  19  21
BRANCH  19  22
ATOM     22  C   UNL     1       7.644   4.785  16.572  0.00  0.00    +0.000 C 
BRANCH  22  23
ATOM     23  O   UNL     1       7.502   4.143  17.834  0.00  0.00    +0.000 OA
ATOM     24  H   UNL     1       8.397   3.892  18.120  0.00  0.00    +0.000 HD
ENDBRANCH  22  23
ENDBRANCH  19  22
ENDBRANCH   1  19
BRANCH   5  25
ATOM     25  C   UNL     1       1.434   8.033  19.579  0.00  0.00    +0.000 C 
BRANCH  25  26
ATOM     26  C   UNL     1       0.933   9.459  19.616  0.00  0.00    +0.000 A 
ATOM     27  C   UNL     1       0.054   9.859  20.639  0.00  0.00    +0.000 A 
ATOM     28  C   UNL     1      -0.421  11.169  20.690  0.00  0.00    +0.000 A 
ATOM     29  C   UNL     1      -0.018  12.088  19.730  0.00  0.00    +0.000 A 
ATOM     30  C   UNL     1       0.867  11.708  18.720  0.00  0.00    +0.000 A 
ATOM     31  C   UNL     1       1.346  10.396  18.666  0.00  0.00    +0.000 A 
ENDBRANCH  25  26
ENDBRANCH   5  25
TORSDOF 8
ENDMDL
MODEL 7
REMARK VINA RESULT:      -6.9      2.467      7.102
REMARK  Name = 
REMARK  11 active torsions:
REMARK  status: ('A' for Active; 'I' for Inactive)
REMARK    1  A    between atoms: C_1  and  C_2
REMARK    2  A    between atoms: C_2  and  CA_3
REMARK    3  A    between atoms: CA_3  and  C_4
REMARK    4  A    between atoms: CA_3  and  N_6
REMARK    5  A    between atoms: C_4  and  O_5
REMARK    6  A    between atoms: N_10  and  C_11
REMARK    7  A    between atoms: C_11  and  C_12
REMARK    8  A    between atoms: C_20  and  S_21
REMARK    9  A    between atoms: N_22  and  C_23
REMARK   10  A    between atoms: C_23  and  C_24
REMARK   11  A    between atoms: C_23  and  C_25
REMARK                            x       y       z     vdW  Elec       q    Type
REMARK                         _______ _______ _______ _____ _____    ______ ____
ROOT
ATOM      1  N   UNL     1       5.493   5.635  15.664  0.00  0.00    +0.000 N 
ATOM      2  C   UNL     1       4.607   5.581  16.717  0.00  0.00    +0.000 A 
ATOM      3  N   UNL     1       4.059   6.770  17.016  0.00  0.00    +0.000 NA
ATOM      4  C   UNL     1       3.245   6.906  18.085  0.00  0.00    +0.000 A 
ATOM      5  N   UNL     1       2.737   8.181  18.328  0.00  0.00    +0.000 N 
ATOM      6  C   UNL     1       2.993   5.764  18.858  0.00  0.00    +0.000 A 
ATOM      7  N   UNL     1       2.251   5.583  20.000  0.00  0.00    +0.000 NA
ATOM      8  C   UNL     1       2.377   4.312  20.278  0.00  0.00    +0.000 A 
ATOM      9  N   UNL     1       3.181   3.642  19.377  0.00  0.00    +0.000 N 
ATOM     10  C   UNL     1       3.597   4.584  18.460  0.00  0.00    +0.000 A 
ATOM     11  N   UNL     1       4.419   4.441  17.402  0.00  0.00    +0.000 NA
ATOM     12  H   UNL     1       4.977   5.984  14.863  0.00  0.00    +0.000 HD
ATOM     13  H   UNL     1       3.494   8.806  18.586  0.00  0.00    +0.000 HD
ENDROOT
BRANCH   9  14
ATOM     14  C   UNL     1       3.466   2.212  19.382  0.00  0.00    +0.000 C 
ATOM     15  C   UNL     1       3.432   1.638  17.964  0.00  0.00    +0.000 C 
ATOM     16  C   UNL     1       4.753   1.813  20.104  0.00  0.00    +0.000 C 
ENDBRANCH   9  14
BRANCH   8  17
ATOM     17  S   UNL     1       1.577   3.588  21.627  0.00  0.00    +0.000 S 
ATOM     18  H   UNL     1       2.576   2.744  21.934  0.00  0.00    +0.000 HD
ENDBRANCH   8  17
BRANCH   1  19
ATOM     19  CA  UNL     1       6.486   4.592  15.402  0.00  0.00    +0.000 C 
BRANCH  19  21
ATOM     20  C   UNL     1       6.429   3.808  12.933  0.00  0.00    +0.000 C 
ATOM     21  C   UNL     1       6.979   4.803  13.947  0.00  0.00    +0.000 C 
ENDBRANCH  19  21
BRANCH  19  22
ATOM     22  C   UNL     1       7.683   4.737  16.382  0.00  0.00    +0.000 C 
BRANCH  22  23
ATOM     23  O   UNL     1       7.461   4.161  17.665  0.00  0.00    +0.000 OA
ATOM     24  H   UNL     1       8.245   3.621  17.867  0.00  0.00    +0.000 HD
ENDBRANCH  22  23
ENDBRANCH  19  22
ENDBRANCH   1  19
BRANCH   5  25
ATOM     25  C   UNL     1       1.564   8.290  19.171  0.00  0.00    +0.000 C 
BRANCH  25  26
ATOM     26  C   UNL     1       1.064   9.715  19.099  0.00  0.00    +0.000 A 
ATOM     27  C   UNL     1       1.879  10.709  18.525  0.00  0.00    +0.000 A 
ATOM     28  C   UNL     1       1.436  12.029  18.451  0.00  0.00    +0.000 A 
ATOM     29  C   UNL     1       0.180  12.366  18.940  0.00  0.00    +0.000 A 
ATOM     30  C   UNL     1      -0.644  11.387  19.496  0.00  0.00    +0.000 A 
ATOM     31  C   UNL     1      -0.204  10.062  19.571  0.00  0.00    +0.000 A 
ENDBRANCH  25  26
ENDBRANCH   5  25
TORSDOF 8
ENDMDL
MODEL 8
REMARK VINA RESULT:      -6.7      1.798      2.711
REMARK  Name = 
REMARK  11 active torsions:
REMARK  status: ('A' for Active; 'I' for Inactive)
REMARK    1  A    between atoms: C_1  and  C_2
REMARK    2  A    between atoms: C_2  and  CA_3
REMARK    3  A    between atoms: CA_3  and  C_4
REMARK    4  A    between atoms: CA_3  and  N_6
REMARK    5  A    between atoms: C_4  and  O_5
REMARK    6  A    between atoms: N_10  and  C_11
REMARK    7  A    between atoms: C_11  and  C_12
REMARK    8  A    between atoms: C_20  and  S_21
REMARK    9  A    between atoms: N_22  and  C_23
REMARK   10  A    between atoms: C_23  and  C_24
REMARK   11  A    between atoms: C_23  and  C_25
REMARK                            x       y       z     vdW  Elec       q    Type
REMARK                         _______ _______ _______ _____ _____    ______ ____
ROOT
ATOM      1  N   UNL     1       1.716   9.332  18.685  0.00  0.00    +0.000 N 
ATOM      2  C   UNL     1       2.297   8.100  18.484  0.00  0.00    +0.000 A 
ATOM      3  N   UNL     1       3.215   8.095  17.503  0.00  0.00    +0.000 NA
ATOM      4  C   UNL     1       3.805   6.944  17.115  0.00  0.00    +0.000 A 
ATOM      5  N   UNL     1       4.732   7.033  16.079  0.00  0.00    +0.000 N 
ATOM      6  C   UNL     1       3.429   5.767  17.777  0.00  0.00    +0.000 A 
ATOM      7  N   UNL     1       3.813   4.460  17.600  0.00  0.00    +0.000 NA
ATOM      8  C   UNL     1       3.135   3.792  18.496  0.00  0.00    +0.000 A 
ATOM      9  N   UNL     1       2.308   4.596  19.254  0.00  0.00    +0.000 N 
ATOM     10  C   UNL     1       2.482   5.879  18.781  0.00  0.00    +0.000 A 
ATOM     11  N   UNL     1       1.879   7.021  19.167  0.00  0.00    +0.000 NA
ATOM     12  H   UNL     1       2.465   9.977  18.915  0.00  0.00    +0.000 HD
ATOM     13  H   UNL     1       4.259   7.301  15.221  0.00  0.00    +0.000 HD
ENDROOT
BRANCH   9  14
ATOM     14  C   UNL     1       1.473   4.160  20.367  0.00  0.00    +0.000 C 
ATOM     15  C   UNL     1       0.488   3.075  19.927  0.00  0.00    +0.000 C 
ATOM     16  C   UNL     1       2.239   3.729  21.619  0.00  0.00    +0.000 C 
ENDBRANCH   9  14
BRANCH   8  17
ATOM     17  S   UNL     1       3.315   2.085  18.691  0.00  0.00    +0.000 S 
ATOM     18  H   UNL     1       4.658   2.090  18.654  0.00  0.00    +0.000 HD
ENDBRANCH   8  17
BRANCH   1  19
ATOM     19  CA  UNL     1       0.451   9.512  19.400  0.00  0.00    +0.000 C 
BRANCH  19  21
ATOM     20  C   UNL     1       0.740   9.062  21.936  0.00  0.00    +0.000 C 
ATOM     21  C   UNL     1       0.808  10.075  20.800  0.00  0.00    +0.000 C 
ENDBRANCH  19  21
BRANCH  19  22
ATOM     22  C   UNL     1      -0.450  10.528  18.645  0.00  0.00    +0.000 C 
BRANCH  22  23
ATOM     23  O   UNL     1      -0.933  10.061  17.389  0.00  0.00    +0.000 OA
ATOM     24  H   UNL     1      -0.402  10.505  16.705  0.00  0.00    +0.000 HD
ENDBRANCH  22  23
ENDBRANCH  19  22
ENDBRANCH   1  19
BRANCH   5  25
ATOM     25  C   UNL     1       5.674   5.944  15.921  0.00  0.00    +0.000 C 
BRANCH  25  26
ATOM     26  C   UNL     1       6.666   6.011  17.059  0.00  0.00    +0.000 A 
ATOM     27  C   UNL     1       7.204   7.255  17.439  0.00  0.00    +0.000 A 
ATOM     28  C   UNL     1       8.122   7.337  18.485  0.00  0.00    +0.000 A 
ATOM     29  C   UNL     1       8.504   6.186  19.162  0.00  0.00    +0.000 A 
ATOM     30  C   UNL     1       7.965   4.950  18.807  0.00  0.00    +0.000 A 
ATOM     31  C   UNL     1       7.044   4.863  17.759  0.00  0.00    +0.000 A 
ENDBRANCH  25  26
ENDBRANCH   5  25
TORSDOF 8
ENDMDL
MODEL 9
REMARK VINA RESULT:      -6.7      1.059      1.403
REMARK  Name = 
REMARK  11 active torsions:
REMARK  status: ('A' for Active; 'I' for Inactive)
REMARK    1  A    between atoms: C_1  and  C_2
REMARK    2  A    between atoms: C_2  and  CA_3
REMARK    3  A    between atoms: CA_3  and  C_4
REMARK    4  A    between atoms: CA_3  and  N_6
REMARK    5  A    between atoms: C_4  and  O_5
REMARK    6  A    between atoms: N_10  and  C_11
REMARK    7  A    between atoms: C_11  and  C_12
REMARK    8  A    between atoms: C_20  and  S_21
REMARK    9  A    between atoms: N_22  and  C_23
REMARK   10  A    between atoms: C_23  and  C_24
REMARK   11  A    between atoms: C_23  and  C_25
REMARK                            x       y       z     vdW  Elec       q    Type
REMARK                         _______ _______ _______ _____ _____    ______ ____
ROOT
ATOM      1  N   UNL     1       2.670   9.008  18.296  0.00  0.00    +0.000 N 
ATOM      2  C   UNL     1       3.120   7.712  18.170  0.00  0.00    +0.000 A 
ATOM      3  N   UNL     1       4.098   7.571  17.261  0.00  0.00    +0.000 NA
ATOM      4  C   UNL     1       4.579   6.348  16.948  0.00  0.00    +0.000 A 
ATOM      5  N   UNL     1       5.581   6.298  15.981  0.00  0.00    +0.000 N 
ATOM      6  C   UNL     1       4.026   5.244  17.611  0.00  0.00    +0.000 A 
ATOM      7  N   UNL     1       4.270   3.897  17.496  0.00  0.00    +0.000 NA
ATOM      8  C   UNL     1       3.459   3.340  18.358  0.00  0.00    +0.000 A 
ATOM      9  N   UNL     1       2.677   4.257  19.031  0.00  0.00    +0.000 N 
ATOM     10  C   UNL     1       3.030   5.496  18.539  0.00  0.00    +0.000 A 
ATOM     11  N   UNL     1       2.535   6.710  18.849  0.00  0.00    +0.000 NA
ATOM     12  H   UNL     1       3.469   9.572  18.564  0.00  0.00    +0.000 HD
ATOM     13  H   UNL     1       5.203   6.588  15.084  0.00  0.00    +0.000 HD
ENDROOT
BRANCH   9  14
ATOM     14  C   UNL     1       1.722   3.955  20.090  0.00  0.00    +0.000 C 
ATOM     15  C   UNL     1       0.611   3.032  19.586  0.00  0.00    +0.000 C 
ATOM     16  C   UNL     1       2.338   3.416  21.381  0.00  0.00    +0.000 C 
ENDBRANCH   9  14
BRANCH   8  17
ATOM     17  S   UNL     1       3.429   1.631  18.610  0.00  0.00    +0.000 S 
ATOM     18  H   UNL     1       2.871   1.689  19.830  0.00  0.00    +0.000 HD
ENDBRANCH   8  17
BRANCH   1  19
ATOM     19  CA  UNL     1       1.386   9.351  18.911  0.00  0.00    +0.000 C 
BRANCH  19  21
ATOM     20  C   UNL     1      -0.897  10.142  17.973  0.00  0.00    +0.000 C 
ATOM     21  C   UNL     1       0.315   9.235  17.795  0.00  0.00    +0.000 C 
ENDBRANCH  19  21
BRANCH  19  22
ATOM     22  C   UNL     1       1.057   8.352  20.054  0.00  0.00    +0.000 C 
BRANCH  22  23
ATOM     23  O   UNL     1       1.774   8.588  21.261  0.00  0.00    +0.000 OA
ATOM     24  H   UNL     1       2.306   9.390  21.116  0.00  0.00    +0.000 HD
ENDBRANCH  22  23
ENDBRANCH  19  22
ENDBRANCH   1  19
BRANCH   5  25
ATOM     25  C   UNL     1       6.402   5.106  15.922  0.00  0.00    +0.000 C 
BRANCH  25  26
ATOM     26  C   UNL     1       6.566   4.720  14.469  0.00  0.00    +0.000 A 
ATOM     27  C   UNL     1       7.588   5.312  13.705  0.00  0.00    +0.000 A 
ATOM     28  C   UNL     1       7.754   4.970  12.363  0.00  0.00    +0.000 A 
ATOM     29  C   UNL     1       6.911   4.034  11.778  0.00  0.00    +0.000 A 
ATOM     30  C   UNL     1       5.904   3.428  12.530  0.00  0.00    +0.000 A 
ATOM     31  C   UNL     1       5.735   3.767  13.875  0.00  0.00    +0.000 A 
ENDBRANCH  25  26
ENDBRANCH   5  25
TORSDOF 8
ENDMDL
