MODEL 1
REMARK VINA RESULT:      -8.0      0.000      0.000
REMARK  Name = 
REMARK  7 active torsions:
REMARK  status: ('A' for Active; 'I' for Inactive)
REMARK    1  A    between atoms: C_1  and  C_2
REMARK    2  A    between atoms: C_2  and  C_3
REMARK    3  A    between atoms: C_2  and  C_9
REMARK    4  A    between atoms: C_2  and  C_23
REMARK    5  A    between atoms: C_13  and  N_14
REMARK    6  A    between atoms: N_14  and  S_15
REMARK    7  A    between atoms: S_15  and  C_16
REMARK                            x       y       z     vdW  Elec       q    Type
REMARK                         _______ _______ _______ _____ _____    ______ ____
ROOT
ATOM      1  C   UNL     1       3.929   5.589  18.888  0.00  0.00    +0.000 A 
ATOM      2  C   UNL     1       3.793   5.654  17.487  0.00  0.00    +0.000 A 
ATOM      3  N   UNL     1       4.207   4.327  17.273  0.00  0.00    +0.000 N 
ATOM      4  C   UNL     1       5.505   4.425  17.732  0.00  0.00    +0.000 A 
ATOM      5  C   UNL     1       6.693   4.144  17.055  0.00  0.00    +0.000 A 
ATOM      6  C   UNL     1       7.855   4.642  17.611  0.00  0.00    +0.000 A 
ATOM      7  C   UNL     1       7.798   5.352  18.810  0.00  0.00    +0.000 A 
ATOM      8  C   UNL     1       6.568   5.603  19.506  0.00  0.00    +0.000 A 
ATOM      9  C   UNL     1       5.350   5.149  18.929  0.00  0.00    +0.000 A 
ATOM     10  H   UNL     1       3.975   3.808  16.445  0.00  0.00    +0.000 HD
ENDROOT
BRANCH   1  12
ATOM     11  C   UNL     1       2.839   4.725  21.083  0.00  0.00    +0.000 C 
ATOM     12  C   UNL     1       2.592   5.450  19.736  0.00  0.00    +0.000 C 
BRANCH  12  13
ATOM     13  C   UNL     1       1.973   6.850  19.931  0.00  0.00    +0.000 A 
ATOM     14  C   UNL     1       2.018   7.861  18.956  0.00  0.00    +0.000 A 
ATOM     15  C   UNL     1       1.441   9.119  19.168  0.00  0.00    +0.000 A 
ATOM     16  C   UNL     1       0.760   9.398  20.353  0.00  0.00    +0.000 A 
ATOM     17  C   UNL     1       0.631   8.400  21.313  0.00  0.00    +0.000 A 
ATOM     18  C   UNL     1       1.223   7.149  21.101  0.00  0.00    +0.000 A 
ENDBRANCH  12  13
BRANCH  12  19
ATOM     19  C   UNL     1       1.613   4.485  18.945  0.00  0.00    +0.000 C 
ATOM     20  C   UNL     1       1.716   2.983  18.835  0.00  0.00    +0.000 C 
ATOM     21  C   UNL     1       0.555   3.594  19.574  0.00  0.00    +0.000 C 
ENDBRANCH  12  19
ENDBRANCH   1  12
BRANCH   5  22
ATOM     22  N   UNL     1       6.645   3.716  15.695  0.00  0.00    +0.000 N 
ATOM     23  H   UNL     1       7.282   2.955  15.459  0.00  0.00    +0.000 HD
BRANCH  22  24
ATOM     24  S   UNL     1       6.598   4.848  14.456  0.00  0.00    +0.000 S 
ATOM     25  C   UNL     1       6.180   3.790  13.086  0.00  0.00    +0.000 C 
ATOM     26  O   UNL     1       5.518   5.782  14.677  0.00  0.00    +0.000 OA
ATOM     27  O   UNL     1       7.963   5.295  14.279  0.00  0.00    +0.000 OA
ENDBRANCH  22  24
ENDBRANCH   5  22
TORSDOF 5
ENDMDL
MODEL 2
REMARK VINA RESULT:      -8.0      0.831      3.033
REMARK  Name = 
REMARK  7 active torsions:
REMARK  status: ('A' for Active; 'I' for Inactive)
REMARK    1  A    between atoms: C_1  and  C_2
REMARK    2  A    between atoms: C_2  and  C_3
REMARK    3  A    between atoms: C_2  and  C_9
REMARK    4  A    between atoms: C_2  and  C_23
REMARK    5  A    between atoms: C_13  and  N_14
REMARK    6  A    between atoms: N_14  and  S_15
REMARK    7  A    between atoms: S_15  and  C_16
REMARK                            x       y       z     vdW  Elec       q    Type
REMARK                         _______ _______ _______ _____ _____    ______ ____
ROOT
ATOM      1  C   UNL     1       3.834   6.162  18.360  0.00  0.00    +0.000 A 
ATOM      2  C   UNL     1       3.941   6.205  16.956  0.00  0.00    +0.000 A 
ATOM      3  N   UNL     1       4.162   4.822  16.819  0.00  0.00    +0.000 N 
ATOM      4  C   UNL     1       5.366   4.725  17.487  0.00  0.00    +0.000 A 
ATOM      5  C   UNL     1       6.587   4.237  17.017  0.00  0.00    +0.000 A 
ATOM      6  C   UNL     1       7.708   4.560  17.756  0.00  0.00    +0.000 A 
ATOM      7  C   UNL     1       7.573   5.307  18.926  0.00  0.00    +0.000 A 
ATOM      8  C   UNL     1       6.303   5.773  19.407  0.00  0.00    +0.000 A 
ATOM      9  C   UNL     1       5.139   5.502  18.638  0.00  0.00    +0.000 A 
ATOM     10  H   UNL     1       3.987   4.321  15.966  0.00  0.00    +0.000 HD
ENDROOT
BRANCH   1  12
ATOM     11  C   UNL     1       1.323   6.650  17.902  0.00  0.00    +0.000 C 
ATOM     12  C   UNL     1       2.372   6.265  18.975  0.00  0.00    +0.000 C 
BRANCH  12  13
ATOM     13  C   UNL     1       2.028   4.933  19.677  0.00  0.00    +0.000 A 
ATOM     14  C   UNL     1       1.366   3.869  19.042  0.00  0.00    +0.000 A 
ATOM     15  C   UNL     1       1.076   2.674  19.711  0.00  0.00    +0.000 A 
ATOM     16  C   UNL     1       1.473   2.486  21.035  0.00  0.00    +0.000 A 
ATOM     17  C   UNL     1       2.194   3.488  21.676  0.00  0.00    +0.000 A 
ATOM     18  C   UNL     1       2.469   4.686  21.005  0.00  0.00    +0.000 A 
ENDBRANCH  12  13
BRANCH  12  19
ATOM     19  C   UNL     1       2.358   7.481  19.994  0.00  0.00    +0.000 C 
ATOM     20  C   UNL     1       1.537   8.743  19.885  0.00  0.00    +0.000 C 
ATOM     21  C   UNL     1       1.260   7.772  21.003  0.00  0.00    +0.000 C 
ENDBRANCH  12  19
ENDBRANCH   1  12
BRANCH   5  22
ATOM     22  N   UNL     1       6.692   3.780  15.670  0.00  0.00    +0.000 N 
ATOM     23  H   UNL     1       7.381   3.044  15.516  0.00  0.00    +0.000 HD
BRANCH  22  24
ATOM     24  S   UNL     1       6.719   4.884  14.405  0.00  0.00    +0.000 S 
ATOM     25  C   UNL     1       6.368   3.797  13.039  0.00  0.00    +0.000 C 
ATOM     26  O   UNL     1       5.635   5.829  14.546  0.00  0.00    +0.000 OA
ATOM     27  O   UNL     1       8.095   5.319  14.292  0.00  0.00    +0.000 OA
ENDBRANCH  22  24
ENDBRANCH   5  22
TORSDOF 5
ENDMDL
MODEL 3
REMARK VINA RESULT:      -7.9      4.444      7.222
REMARK  Name = 
REMARK  7 active torsions:
REMARK  status: ('A' for Active; 'I' for Inactive)
REMARK    1  A    between atoms: C_1  and  C_2
REMARK    2  A    between atoms: C_2  and  C_3
REMARK    3  A    between atoms: C_2  and  C_9
REMARK    4  A    between atoms: C_2  and  C_23
REMARK    5  A    between atoms: C_13  and  N_14
REMARK    6  A    between atoms: N_14  and  S_15
REMARK    7  A    between atoms: S_15  and  C_16
REMARK                            x       y       z     vdW  Elec       q    Type
REMARK                         _______ _______ _______ _____ _____    ______ ____
ROOT
ATOM      1  C   UNL     1       3.389   6.039  18.542  0.00  0.00    +0.000 A 
ATOM      2  C   UNL     1       3.881   6.338  19.828  0.00  0.00    +0.000 A 
ATOM      3  N   UNL     1       2.614   6.327  20.438  0.00  0.00    +0.000 N 
ATOM      4  C   UNL     1       2.043   7.396  19.776  0.00  0.00    +0.000 A 
ATOM      5  C   UNL     1       1.496   8.562  20.314  0.00  0.00    +0.000 A 
ATOM      6  C   UNL     1       1.303   9.615  19.440  0.00  0.00    +0.000 A 
ATOM      7  C   UNL     1       1.619   9.459  18.090  0.00  0.00    +0.000 A 
ATOM      8  C   UNL     1       2.153   8.240  17.554  0.00  0.00    +0.000 A 
ATOM      9  C   UNL     1       2.412   7.158  18.440  0.00  0.00    +0.000 A 
ATOM     10  H   UNL     1       2.481   6.182  21.423  0.00  0.00    +0.000 HD
ENDROOT
BRANCH   1  12
ATOM     11  C   UNL     1       2.298   3.999  17.359  0.00  0.00    +0.000 C 
ATOM     12  C   UNL     1       3.584   4.550  18.023  0.00  0.00    +0.000 C 
BRANCH  12  13
ATOM     13  C   UNL     1       4.798   4.506  17.070  0.00  0.00    +0.000 A 
ATOM     14  C   UNL     1       6.132   4.568  17.509  0.00  0.00    +0.000 A 
ATOM     15  C   UNL     1       7.208   4.521  16.614  0.00  0.00    +0.000 A 
ATOM     16  C   UNL     1       6.987   4.370  15.245  0.00  0.00    +0.000 A 
ATOM     17  C   UNL     1       5.684   4.234  14.778  0.00  0.00    +0.000 A 
ATOM     18  C   UNL     1       4.612   4.295  15.677  0.00  0.00    +0.000 A 
ENDBRANCH  12  13
BRANCH  12  19
ATOM     19  C   UNL     1       3.804   3.619  19.288  0.00  0.00    +0.000 C 
ATOM     20  C   UNL     1       2.778   2.725  19.943  0.00  0.00    +0.000 C 
ATOM     21  C   UNL     1       3.967   2.109  19.253  0.00  0.00    +0.000 C 
ENDBRANCH  12  19
ENDBRANCH   1  12
BRANCH   5  22
ATOM     22  N   UNL     1       1.512   8.764  21.726  0.00  0.00    +0.000 N 
ATOM     23  H   UNL     1       1.987   8.037  22.260  0.00  0.00    +0.000 HD
BRANCH  22  24
ATOM     24  S   UNL     1       0.120   9.263  22.522  0.00  0.00    +0.000 S 
ATOM     25  C   UNL     1      -0.145  10.833  21.724  0.00  0.00    +0.000 C 
ATOM     26  O   UNL     1      -0.978   8.381  22.204  0.00  0.00    +0.000 OA
ATOM     27  O   UNL     1       0.519   9.515  23.890  0.00  0.00    +0.000 OA
ENDBRANCH  22  24
ENDBRANCH   5  22
TORSDOF 5
ENDMDL
MODEL 4
REMARK VINA RESULT:      -7.8      3.563      6.705
REMARK  Name = 
REMARK  7 active torsions:
REMARK  status: ('A' for Active; 'I' for Inactive)
REMARK    1  A    between atoms: C_1  and  C_2
REMARK    2  A    between atoms: C_2  and  C_3
REMARK    3  A    between atoms: C_2  and  C_9
REMARK    4  A    between atoms: C_2  and  C_23
REMARK    5  A    between atoms: C_13  and  N_14
REMARK    6  A    between atoms: N_14  and  S_15
REMARK    7  A    between atoms: S_15  and  C_16
REMARK                            x       y       z     vdW  Elec       q    Type
REMARK                         _______ _______ _______ _____ _____    ______ ____
ROOT
ATOM      1  C   UNL     1       3.709   5.923  17.380  0.00  0.00    +0.000 A 
ATOM      2  C   UNL     1       3.279   7.159  17.903  0.00  0.00    +0.000 A 
ATOM      3  N   UNL     1       3.707   6.880  19.214  0.00  0.00    +0.000 N 
ATOM      4  C   UNL     1       2.876   5.814  19.494  0.00  0.00    +0.000 A 
ATOM      5  C   UNL     1       1.955   5.677  20.535  0.00  0.00    +0.000 A 
ATOM      6  C   UNL     1       1.014   4.675  20.401  0.00  0.00    +0.000 A 
ATOM      7  C   UNL     1       1.045   3.844  19.281  0.00  0.00    +0.000 A 
ATOM      8  C   UNL     1       2.020   3.984  18.237  0.00  0.00    +0.000 A 
ATOM      9  C   UNL     1       2.967   5.041  18.322  0.00  0.00    +0.000 A 
ATOM     10  H   UNL     1       3.898   7.596  19.892  0.00  0.00    +0.000 HD
ENDROOT
BRANCH   1  12
ATOM     11  C   UNL     1       4.952   6.887  15.312  0.00  0.00    +0.000 C 
ATOM     12  C   UNL     1       5.049   5.928  16.525  0.00  0.00    +0.000 C 
BRANCH  12  13
ATOM     13  C   UNL     1       6.234   6.275  17.451  0.00  0.00    +0.000 A 
ATOM     14  C   UNL     1       6.722   5.409  18.444  0.00  0.00    +0.000 A 
ATOM     15  C   UNL     1       7.803   5.757  19.263  0.00  0.00    +0.000 A 
ATOM     16  C   UNL     1       8.462   6.975  19.090  0.00  0.00    +0.000 A 
ATOM     17  C   UNL     1       8.055   7.829  18.071  0.00  0.00    +0.000 A 
ATOM     18  C   UNL     1       6.964   7.480  17.265  0.00  0.00    +0.000 A 
ENDBRANCH  12  13
BRANCH  12  19
ATOM     19  C   UNL     1       5.217   4.490  15.878  0.00  0.00    +0.000 C 
ATOM     20  C   UNL     1       5.340   4.168  14.408  0.00  0.00    +0.000 C 
ATOM     21  C   UNL     1       6.512   3.920  15.322  0.00  0.00    +0.000 C 
ENDBRANCH  12  19
ENDBRANCH   1  12
BRANCH   5  22
ATOM     22  N   UNL     1       1.774   6.746  21.462  0.00  0.00    +0.000 N 
ATOM     23  H   UNL     1       1.588   6.458  22.422  0.00  0.00    +0.000 HD
BRANCH  22  24
ATOM     24  S   UNL     1       0.823   8.066  21.050  0.00  0.00    +0.000 S 
ATOM     25  C   UNL     1       1.333   9.219  22.307  0.00  0.00    +0.000 C 
ATOM     26  O   UNL     1       1.213   8.576  19.756  0.00  0.00    +0.000 OA
ATOM     27  O   UNL     1      -0.542   7.671  21.329  0.00  0.00    +0.000 OA
ENDBRANCH  22  24
ENDBRANCH   5  22
TORSDOF 5
ENDMDL
MODEL 5
REMARK VINA RESULT:      -7.7      4.331      7.136
REMARK  Name = 
REMARK  7 active torsions:
REMARK  status: ('A' for Active; 'I' for Inactive)
REMARK    1  A    between atoms: C_1  and  C_2
REMARK    2  A    between atoms: C_2  and  C_3
REMARK    3  A    between atoms: C_2  and  C_9
REMARK    4  A    between atoms: C_2  and  C_23
REMARK    5  A    between atoms: C_13  and  N_14
REMARK    6  A    between atoms: N_14  and  S_15
REMARK    7  A    between atoms: S_15  and  C_16
REMARK                            x       y       z     vdW  Elec       q    Type
REMARK                         _______ _______ _______ _____ _____    ______ ____
ROOT
ATOM      1  C   UNL     1       3.395   5.915  18.612  0.00  0.00    +0.000 A 
ATOM      2  C   UNL     1       3.510   6.160  19.995  0.00  0.00    +0.000 A 
ATOM      3  N   UNL     1       2.123   6.258  20.206  0.00  0.00    +0.000 N 
ATOM      4  C   UNL     1       1.862   7.377  19.442  0.00  0.00    +0.000 A 
ATOM      5  C   UNL     1       1.280   8.584  19.833  0.00  0.00    +0.000 A 
ATOM      6  C   UNL     1       1.441   9.656  18.976  0.00  0.00    +0.000 A 
ATOM      7  C   UNL     1       2.127   9.482  17.774  0.00  0.00    +0.000 A 
ATOM      8  C   UNL     1       2.691   8.223  17.378  0.00  0.00    +0.000 A 
ATOM      9  C   UNL     1       2.588   7.117  18.265  0.00  0.00    +0.000 A 
ATOM     10  H   UNL     1       1.694   6.118  21.105  0.00  0.00    +0.000 HD
ENDROOT
BRANCH   1  12
ATOM     11  C   UNL     1       2.341   3.846  17.445  0.00  0.00    +0.000 C 
ATOM     12  C   UNL     1       3.610   4.418  18.125  0.00  0.00    +0.000 C 
BRANCH  12  13
ATOM     13  C   UNL     1       4.844   4.364  17.198  0.00  0.00    +0.000 A 
ATOM     14  C   UNL     1       4.764   4.152  15.811  0.00  0.00    +0.000 A 
ATOM     15  C   UNL     1       5.905   4.114  15.002  0.00  0.00    +0.000 A 
ATOM     16  C   UNL     1       7.171   4.328  15.548  0.00  0.00    +0.000 A 
ATOM     17  C   UNL     1       7.286   4.614  16.905  0.00  0.00    +0.000 A 
ATOM     18  C   UNL     1       6.141   4.636  17.711  0.00  0.00    +0.000 A 
ENDBRANCH  12  13
BRANCH  12  19
ATOM     19  C   UNL     1       3.810   3.512  19.411  0.00  0.00    +0.000 C 
ATOM     20  C   UNL     1       2.797   2.574  20.024  0.00  0.00    +0.000 C 
ATOM     21  C   UNL     1       4.049   2.011  19.404  0.00  0.00    +0.000 C 
ENDBRANCH  12  19
ENDBRANCH   1  12
BRANCH   5  22
ATOM     22  N   UNL     1       0.896   8.774  21.194  0.00  0.00    +0.000 N 
ATOM     23  H   UNL     1       0.449   7.969  21.632  0.00  0.00    +0.000 HD
BRANCH  22  24
ATOM     24  S   UNL     1       0.140  10.196  21.666  0.00  0.00    +0.000 S 
ATOM     25  C   UNL     1      -0.376   9.741  23.308  0.00  0.00    +0.000 C 
ATOM     26  O   UNL     1       1.105  11.267  21.755  0.00  0.00    +0.000 OA
ATOM     27  O   UNL     1      -1.042  10.307  20.837  0.00  0.00    +0.000 OA
ENDBRANCH  22  24
ENDBRANCH   5  22
TORSDOF 5
ENDMDL
MODEL 6
REMARK VINA RESULT:      -7.7      7.211     10.378
REMARK  Name = 
REMARK  7 active torsions:
REMARK  status: ('A' for Active; 'I' for Inactive)
REMARK    1  A    between atoms: C_1  and  C_2
REMARK    2  A    between atoms: C_2  and  C_3
REMARK    3  A    between atoms: C_2  and  C_9
REMARK    4  A    between atoms: C_2  and  C_23
REMARK    5  A    between atoms: C_13  and  N_14
REMARK    6  A    between atoms: N_14  and  S_15
REMARK    7  A    between atoms: S_15  and  C_16
REMARK                            x       y       z     vdW  Elec       q    Type
REMARK                         _______ _______ _______ _____ _____    ______ ____
ROOT
ATOM      1  C   UNL     1      -0.908  11.336  18.413  0.00  0.00    +0.000 A 
ATOM      2  C   UNL     1      -1.426  12.633  18.231  0.00  0.00    +0.000 A 
ATOM      3  N   UNL     1      -2.710  12.308  18.705  0.00  0.00    +0.000 N 
ATOM      4  C   UNL     1      -3.078  11.399  17.734  0.00  0.00    +0.000 A 
ATOM      5  C   UNL     1      -4.186  11.432  16.885  0.00  0.00    +0.000 A 
ATOM      6  C   UNL     1      -4.148  10.598  15.785  0.00  0.00    +0.000 A 
ATOM      7  C   UNL     1      -3.052   9.755  15.595  0.00  0.00    +0.000 A 
ATOM      8  C   UNL     1      -1.937   9.716  16.498  0.00  0.00    +0.000 A 
ATOM      9  C   UNL     1      -1.925  10.603  17.609  0.00  0.00    +0.000 A 
ATOM     10  H   UNL     1      -3.352  12.994  19.061  0.00  0.00    +0.000 HD
ENDROOT
BRANCH   1  12
ATOM     11  C   UNL     1      -0.765  11.004  20.986  0.00  0.00    +0.000 C 
ATOM     12  C   UNL     1       0.041  11.106  19.667  0.00  0.00    +0.000 C 
BRANCH  12  13
ATOM     13  C   UNL     1       0.911   9.855  19.415  0.00  0.00    +0.000 A 
ATOM     14  C   UNL     1       1.108   8.843  20.369  0.00  0.00    +0.000 A 
ATOM     15  C   UNL     1       1.902   7.721  20.103  0.00  0.00    +0.000 A 
ATOM     16  C   UNL     1       2.497   7.552  18.853  0.00  0.00    +0.000 A 
ATOM     17  C   UNL     1       2.267   8.496  17.857  0.00  0.00    +0.000 A 
ATOM     18  C   UNL     1       1.484   9.623  18.135  0.00  0.00    +0.000 A 
ENDBRANCH  12  13
BRANCH  12  19
ATOM     19  C   UNL     1       0.930  12.407  19.848  0.00  0.00    +0.000 C 
ATOM     20  C   UNL     1       0.905  13.364  21.015  0.00  0.00    +0.000 C 
ATOM     21  C   UNL     1       2.134  12.530  20.766  0.00  0.00    +0.000 C 
ENDBRANCH  12  19
ENDBRANCH   1  12
BRANCH   5  22
ATOM     22  N   UNL     1      -5.093  12.531  16.951  0.00  0.00    +0.000 N 
ATOM     23  H   UNL     1      -4.660  13.452  16.892  0.00  0.00    +0.000 HD
BRANCH  22  24
ATOM     24  S   UNL     1      -6.332  12.535  18.085  0.00  0.00    +0.000 S 
ATOM     25  C   UNL     1      -7.416  13.743  17.354  0.00  0.00    +0.000 C 
ATOM     26  O   UNL     1      -6.996  11.252  18.099  0.00  0.00    +0.000 OA
ATOM     27  O   UNL     1      -5.763  13.108  19.287  0.00  0.00    +0.000 OA
ENDBRANCH  22  24
ENDBRANCH   5  22
TORSDOF 5
ENDMDL
MODEL 7
REMARK VINA RESULT:      -7.6      3.445      6.919
REMARK  Name = 
REMARK  7 active torsions:
REMARK  status: ('A' for Active; 'I' for Inactive)
REMARK    1  A    between atoms: C_1  and  C_2
REMARK    2  A    between atoms: C_2  and  C_3
REMARK    3  A    between atoms: C_2  and  C_9
REMARK    4  A    between atoms: C_2  and  C_23
REMARK    5  A    between atoms: C_13  and  N_14
REMARK    6  A    between atoms: N_14  and  S_15
REMARK    7  A    between atoms: S_15  and  C_16
REMARK                            x       y       z     vdW  Elec       q    Type
REMARK                         _______ _______ _______ _____ _____    ______ ____
ROOT
ATOM      1  C   UNL     1       5.685   5.213  17.951  0.00  0.00    +0.000 A 
ATOM      2  C   UNL     1       5.625   4.426  19.118  0.00  0.00    +0.000 A 
ATOM      3  N   UNL     1       4.877   3.397  18.519  0.00  0.00    +0.000 N 
ATOM      4  C   UNL     1       3.723   4.099  18.237  0.00  0.00    +0.000 A 
ATOM      5  C   UNL     1       2.416   3.830  18.648  0.00  0.00    +0.000 A 
ATOM      6  C   UNL     1       1.503   4.858  18.520  0.00  0.00    +0.000 A 
ATOM      7  C   UNL     1       1.905   6.075  17.968  0.00  0.00    +0.000 A 
ATOM      8  C   UNL     1       3.248   6.319  17.524  0.00  0.00    +0.000 A 
ATOM      9  C   UNL     1       4.221   5.297  17.694  0.00  0.00    +0.000 A 
ATOM     10  H   UNL     1       4.852   2.458  18.877  0.00  0.00    +0.000 HD
ENDROOT
BRANCH   1  12
ATOM     11  C   UNL     1       8.137   4.358  17.861  0.00  0.00    +0.000 C 
ATOM     12  C   UNL     1       7.059   5.214  17.152  0.00  0.00    +0.000 C 
BRANCH  12  13
ATOM     13  C   UNL     1       6.797   4.743  15.705  0.00  0.00    +0.000 A 
ATOM     14  C   UNL     1       5.789   3.828  15.357  0.00  0.00    +0.000 A 
ATOM     15  C   UNL     1       5.579   3.428  14.032  0.00  0.00    +0.000 A 
ATOM     16  C   UNL     1       6.349   3.962  12.998  0.00  0.00    +0.000 A 
ATOM     17  C   UNL     1       7.309   4.924  13.293  0.00  0.00    +0.000 A 
ATOM     18  C   UNL     1       7.523   5.309  14.622  0.00  0.00    +0.000 A 
ENDBRANCH  12  13
BRANCH  12  19
ATOM     19  C   UNL     1       7.641   6.689  17.188  0.00  0.00    +0.000 C 
ATOM     20  C   UNL     1       6.910   7.940  17.612  0.00  0.00    +0.000 C 
ATOM     21  C   UNL     1       8.064   7.439  18.440  0.00  0.00    +0.000 C 
ENDBRANCH  12  19
ENDBRANCH   1  12
BRANCH   5  22
ATOM     22  N   UNL     1       2.159   2.710  19.493  0.00  0.00    +0.000 N 
ATOM     23  H   UNL     1       1.274   2.233  19.321  0.00  0.00    +0.000 HD
BRANCH  22  24
ATOM     24  S   UNL     1       2.460   2.812  21.142  0.00  0.00    +0.000 S 
ATOM     25  C   UNL     1       2.488   4.581  21.342  0.00  0.00    +0.000 C 
ATOM     26  O   UNL     1       1.346   2.271  21.885  0.00  0.00    +0.000 OA
ATOM     27  O   UNL     1       3.807   2.316  21.327  0.00  0.00    +0.000 OA
ENDBRANCH  22  24
ENDBRANCH   5  22
TORSDOF 5
ENDMDL
MODEL 8
REMARK VINA RESULT:      -7.5      4.469      7.223
REMARK  Name = 
REMARK  7 active torsions:
REMARK  status: ('A' for Active; 'I' for Inactive)
REMARK    1  A    between atoms: C_1  and  C_2
REMARK    2  A    between atoms: C_2  and  C_3
REMARK    3  A    between atoms: C_2  and  C_9
REMARK    4  A    between atoms: C_2  and  C_23
REMARK    5  A    between atoms: C_13  and  N_14
REMARK    6  A    between atoms: N_14  and  S_15
REMARK    7  A    between atoms: S_15  and  C_16
REMARK                            x       y       z     vdW  Elec       q    Type
REMARK                         _______ _______ _______ _____ _____    ______ ____
ROOT
ATOM      1  C   UNL     1       2.510   6.782  19.380  0.00  0.00    +0.000 A 
ATOM      2  C   UNL     1       2.153   7.160  20.689  0.00  0.00    +0.000 A 
ATOM      3  N   UNL     1       0.802   7.392  20.373  0.00  0.00    +0.000 N 
ATOM      4  C   UNL     1       0.960   8.443  19.493  0.00  0.00    +0.000 A 
ATOM      5  C   UNL     1       0.418   9.728  19.563  0.00  0.00    +0.000 A 
ATOM      6  C   UNL     1       0.994  10.688  18.753  0.00  0.00    +0.000 A 
ATOM      7  C   UNL     1       2.038  10.334  17.898  0.00  0.00    +0.000 A 
ATOM      8  C   UNL     1       2.560   8.999  17.821  0.00  0.00    +0.000 A 
ATOM      9  C   UNL     1       2.022   8.003  18.682  0.00  0.00    +0.000 A 
ATOM     10  H   UNL     1       0.069   7.382  21.061  0.00  0.00    +0.000 HD
ENDROOT
BRANCH   1  12
ATOM     11  C   UNL     1       1.601   4.657  18.194  0.00  0.00    +0.000 C 
ATOM     12  C   UNL     1       2.713   5.230  19.107  0.00  0.00    +0.000 C 
BRANCH  12  13
ATOM     13  C   UNL     1       4.124   5.004  18.521  0.00  0.00    +0.000 A 
ATOM     14  C   UNL     1       4.357   4.515  17.225  0.00  0.00    +0.000 A 
ATOM     15  C   UNL     1       5.652   4.327  16.727  0.00  0.00    +0.000 A 
ATOM     16  C   UNL     1       6.765   4.660  17.499  0.00  0.00    +0.000 A 
ATOM     17  C   UNL     1       6.576   5.214  18.761  0.00  0.00    +0.000 A 
ATOM     18  C   UNL     1       5.278   5.386  19.258  0.00  0.00    +0.000 A 
ENDBRANCH  12  13
BRANCH  12  19
ATOM     19  C   UNL     1       2.525   4.465  20.484  0.00  0.00    +0.000 C 
ATOM     20  C   UNL     1       1.375   3.567  20.870  0.00  0.00    +0.000 C 
ATOM     21  C   UNL     1       2.752   2.979  20.705  0.00  0.00    +0.000 C 
ENDBRANCH  12  19
ENDBRANCH   1  12
BRANCH   5  22
ATOM     22  N   UNL     1      -0.401  10.089  20.673  0.00  0.00    +0.000 N 
ATOM     23  H   UNL     1      -1.245  10.609  20.436  0.00  0.00    +0.000 HD
BRANCH  22  24
ATOM     24  S   UNL     1       0.297  10.706  22.070  0.00  0.00    +0.000 S 
ATOM     25  C   UNL     1      -1.138  10.796  23.119  0.00  0.00    +0.000 C 
ATOM     26  O   UNL     1       1.228   9.752  22.625  0.00  0.00    +0.000 OA
ATOM     27  O   UNL     1       0.701  12.058  21.743  0.00  0.00    +0.000 OA
ENDBRANCH  22  24
ENDBRANCH   5  22
TORSDOF 5
ENDMDL
MODEL 9
REMARK VINA RESULT:      -7.5      2.919      6.674
REMARK  Name = 
REMARK  7 active torsions:
REMARK  status: ('A' for Active; 'I' for Inactive)
REMARK    1  A    between atoms: C_1  and  C_2
REMARK    2  A    between atoms: C_2  and  C_3
REMARK    3  A    between atoms: C_2  and  C_9
REMARK    4  A    between atoms: C_2  and  C_23
REMARK    5  A    between atoms: C_13  and  N_14
REMARK    6  A    between atoms: N_14  and  S_15
REMARK    7  A    between atoms: S_15  and  C_16
REMARK                            x       y       z     vdW  Elec       q    Type
REMARK                         _______ _______ _______ _____ _____    ______ ____
ROOT
ATOM      1  C   UNL     1       5.715   5.897  18.075  0.00  0.00    +0.000 A 
ATOM      2  C   UNL     1       5.380   5.122  19.203  0.00  0.00    +0.000 A 
ATOM      3  N   UNL     1       4.453   4.318  18.515  0.00  0.00    +0.000 N 
ATOM      4  C   UNL     1       3.526   5.285  18.183  0.00  0.00    +0.000 A 
ATOM      5  C   UNL     1       2.166   5.332  18.494  0.00  0.00    +0.000 A 
ATOM      6  C   UNL     1       1.539   6.554  18.345  0.00  0.00    +0.000 A 
ATOM      7  C   UNL     1       2.261   7.648  17.869  0.00  0.00    +0.000 A 
ATOM      8  C   UNL     1       3.653   7.569  17.528  0.00  0.00    +0.000 A 
ATOM      9  C   UNL     1       4.337   6.338  17.722  0.00  0.00    +0.000 A 
ATOM     10  H   UNL     1       4.177   3.406  18.833  0.00  0.00    +0.000 HD
ENDROOT
BRANCH   1  12
ATOM     11  C   UNL     1       7.987   4.646  18.235  0.00  0.00    +0.000 C 
ATOM     12  C   UNL     1       7.104   5.582  17.371  0.00  0.00    +0.000 C 
BRANCH  12  13
ATOM     13  C   UNL     1       6.835   4.999  15.967  0.00  0.00    +0.000 A 
ATOM     14  C   UNL     1       5.841   4.042  15.702  0.00  0.00    +0.000 A 
ATOM     15  C   UNL     1       5.623   3.540  14.413  0.00  0.00    +0.000 A 
ATOM     16  C   UNL     1       6.370   4.008  13.332  0.00  0.00    +0.000 A 
ATOM     17  C   UNL     1       7.315   5.007  13.542  0.00  0.00    +0.000 A 
ATOM     18  C   UNL     1       7.537   5.495  14.835  0.00  0.00    +0.000 A 
ENDBRANCH  12  13
BRANCH  12  19
ATOM     19  C   UNL     1       7.926   6.936  17.291  0.00  0.00    +0.000 C 
ATOM     20  C   UNL     1       7.383   8.335  17.452  0.00  0.00    +0.000 C 
ATOM     21  C   UNL     1       8.338   7.788  18.480  0.00  0.00    +0.000 C 
ENDBRANCH  12  19
ENDBRANCH   1  12
BRANCH   5  22
ATOM     22  N   UNL     1       1.585   4.290  19.275  0.00  0.00    +0.000 N 
ATOM     23  H   UNL     1       1.926   4.228  20.234  0.00  0.00    +0.000 HD
BRANCH  22  24
ATOM     24  S   UNL     1       1.386   2.756  18.621  0.00  0.00    +0.000 S 
ATOM     25  C   UNL     1       2.472   1.825  19.682  0.00  0.00    +0.000 C 
ATOM     26  O   UNL     1       0.029   2.302  18.819  0.00  0.00    +0.000 OA
ATOM     27  O   UNL     1       1.983   2.810  17.303  0.00  0.00    +0.000 OA
ENDBRANCH  22  24
ENDBRANCH   5  22
TORSDOF 5
ENDMDL
