MODEL 1
REMARK VINA RESULT:      -7.9      0.000      0.000
REMARK  Name = 
REMARK  15 active torsions:
REMARK  status: ('A' for Active; 'I' for Inactive)
REMARK    1  A    between atoms: C_1  and  C_2
REMARK    2  A    between atoms: C_2  and  S_3
REMARK    3  A    between atoms: C_2  and  C_24
REMARK    4  A    between atoms: C_2  and  C_30
REMARK    5  A    between atoms: S_3  and  C_4
REMARK    6  A    between atoms: C_4  and  C_5
REMARK    7  A    between atoms: C_5  and  C_6
REMARK    8  A    between atoms: C_7  and  C_8
REMARK    9  A    between atoms: C_8  and  C_9
REMARK   10  A    between atoms: C_9  and  C_10
REMARK   11  A    between atoms: C_10  and  O_11
REMARK   12  A    between atoms: C_14  and  O_15
REMARK   13  A    between atoms: O_15  and  C_16
REMARK   14  A    between atoms: C_16  and  C_17
REMARK   15  A    between atoms: C_17  and  O_19
REMARK                            x       y       z     vdW  Elec       q    Type
REMARK                         _______ _______ _______ _____ _____    ______ ____
ROOT
ATOM      1  C   UNL     1       0.036  10.011  18.413  0.00  0.00    +0.000 A 
ATOM      2  C   UNL     1      -0.112  10.640  19.644  0.00  0.00    +0.000 A 
ATOM      3  O   UNL     1      -1.369  11.151  19.776  0.00  0.00    +0.000 OA
ATOM      4  C   UNL     1      -2.062  10.837  18.641  0.00  0.00    +0.000 A 
ATOM      5  C   UNL     1      -3.405  11.159  18.377  0.00  0.00    +0.000 A 
ATOM      6  C   UNL     1      -3.906  10.743  17.133  0.00  0.00    +0.000 A 
ATOM      7  C   UNL     1      -3.115  10.031  16.228  0.00  0.00    +0.000 A 
ATOM      8  C   UNL     1      -1.785   9.730  16.527  0.00  0.00    +0.000 A 
ATOM      9  C   UNL     1      -1.237  10.133  17.763  0.00  0.00    +0.000 A 
ENDROOT
BRANCH   1  10
ATOM     10  C   UNL     1       1.320   9.401  17.930  0.00  0.00    +0.000 C 
BRANCH  10  11
ATOM     11  C   UNL     1       1.308   7.886  17.763  0.00  0.00    +0.000 C 
BRANCH  11  12
ATOM     12  S   UNL     1       2.485   7.151  18.930  0.00  0.00    +0.000 S 
BRANCH  12  14
ATOM     13  C   UNL     1       1.435   5.028  17.421  0.00  0.00    +0.000 C 
ATOM     14  C   UNL     1       2.677   5.377  18.279  0.00  0.00    +0.000 C 
BRANCH  14  15
ATOM     15  C   UNL     1       2.629   4.395  19.502  0.00  0.00    +0.000 A 
ATOM     16  C   UNL     1       3.686   3.503  19.772  0.00  0.00    +0.000 A 
ATOM     17  C   UNL     1       3.618   2.589  20.830  0.00  0.00    +0.000 A 
ATOM     18  C   UNL     1       2.485   2.523  21.635  0.00  0.00    +0.000 A 
ATOM     19  C   UNL     1       1.422   3.381  21.389  0.00  0.00    +0.000 A 
ATOM     20  C   UNL     1       1.490   4.297  20.335  0.00  0.00    +0.000 A 
ENDBRANCH  14  15
BRANCH  14  21
ATOM     21  C   UNL     1       4.002   5.264  17.467  0.00  0.00    +0.000 A 
ATOM     22  C   UNL     1       5.003   6.256  17.509  0.00  0.00    +0.000 A 
ATOM     23  C   UNL     1       6.086   6.245  16.622  0.00  0.00    +0.000 A 
ATOM     24  C   UNL     1       6.218   5.221  15.693  0.00  0.00    +0.000 A 
ATOM     25  C   UNL     1       5.286   4.185  15.680  0.00  0.00    +0.000 A 
ATOM     26  C   UNL     1       4.195   4.204  16.557  0.00  0.00    +0.000 A 
ENDBRANCH  14  21
ENDBRANCH  12  14
ENDBRANCH  11  12
ENDBRANCH  10  11
ENDBRANCH   1  10
BRANCH   2  27
ATOM     27  C   UNL     1       0.828  10.848  20.782  0.00  0.00    +0.000 C 
BRANCH  27  28
ATOM     28  C   UNL     1       0.983   9.605  21.669  0.00  0.00    +0.000 C 
BRANCH  28  29
ATOM     29  C   UNL     1      -0.165   9.412  22.653  0.00  0.00    +0.000 C 
BRANCH  29  30
ATOM     30  O   UNL     1      -0.382  10.601  23.399  0.00  0.00    +0.000 OA
ATOM     31  H   UNL     1      -1.002  11.155  22.895  0.00  0.00    +0.000 HD
ENDBRANCH  29  30
ENDBRANCH  28  29
ENDBRANCH  27  28
ENDBRANCH   2  27
BRANCH   5  32
ATOM     32  O   UNL     1      -4.121  11.895  19.292  0.00  0.00    +0.000 OA
BRANCH  32  33
ATOM     33  C   UNL     1      -5.450  12.249  18.882  0.00  0.00    +0.000 C 
BRANCH  33  34
ATOM     34  C   UNL     1      -6.455  11.345  19.567  0.00  0.00    +0.000 C 
ATOM     35  O   UNL     1      -6.653  11.322  20.777  0.00  0.00    +0.000 OA
BRANCH  34  36
ATOM     36  O   UNL     1      -7.119  10.527  18.710  0.00  0.00    +0.000 OA
ATOM     37  H   UNL     1      -7.879  11.007  18.318  0.00  0.00    +0.000 HD
ENDBRANCH  34  36
ENDBRANCH  33  34
ENDBRANCH  32  33
ENDBRANCH   5  32
TORSDOF 14
ENDMDL
MODEL 2
REMARK VINA RESULT:      -7.7      4.278      9.203
REMARK  Name = 
REMARK  15 active torsions:
REMARK  status: ('A' for Active; 'I' for Inactive)
REMARK    1  A    between atoms: C_1  and  C_2
REMARK    2  A    between atoms: C_2  and  S_3
REMARK    3  A    between atoms: C_2  and  C_24
REMARK    4  A    between atoms: C_2  and  C_30
REMARK    5  A    between atoms: S_3  and  C_4
REMARK    6  A    between atoms: C_4  and  C_5
REMARK    7  A    between atoms: C_5  and  C_6
REMARK    8  A    between atoms: C_7  and  C_8
REMARK    9  A    between atoms: C_8  and  C_9
REMARK   10  A    between atoms: C_9  and  C_10
REMARK   11  A    between atoms: C_10  and  O_11
REMARK   12  A    between atoms: C_14  and  O_15
REMARK   13  A    between atoms: O_15  and  C_16
REMARK   14  A    between atoms: C_16  and  C_17
REMARK   15  A    between atoms: C_17  and  O_19
REMARK                            x       y       z     vdW  Elec       q    Type
REMARK                         _______ _______ _______ _____ _____    ______ ____
ROOT
ATOM      1  C   UNL     1       3.167   7.391  17.959  0.00  0.00    +0.000 A 
ATOM      2  C   UNL     1       4.123   6.575  17.366  0.00  0.00    +0.000 A 
ATOM      3  O   UNL     1       4.263   5.412  18.062  0.00  0.00    +0.000 OA
ATOM      4  C   UNL     1       3.380   5.447  19.104  0.00  0.00    +0.000 A 
ATOM      5  C   UNL     1       3.186   4.433  20.059  0.00  0.00    +0.000 A 
ATOM      6  C   UNL     1       2.228   4.695  21.051  0.00  0.00    +0.000 A 
ATOM      7  C   UNL     1       1.499   5.886  21.067  0.00  0.00    +0.000 A 
ATOM      8  C   UNL     1       1.721   6.870  20.102  0.00  0.00    +0.000 A 
ATOM      9  C   UNL     1       2.678   6.653  19.087  0.00  0.00    +0.000 A 
ENDROOT
BRANCH   1  10
ATOM     10  C   UNL     1       2.822   8.770  17.475  0.00  0.00    +0.000 C 
BRANCH  10  11
ATOM     11  C   UNL     1       1.977   9.610  18.427  0.00  0.00    +0.000 C 
BRANCH  11  12
ATOM     12  S   UNL     1       0.232   9.460  17.960  0.00  0.00    +0.000 S 
BRANCH  12  14
ATOM     13  C   UNL     1       0.371  12.167  18.694  0.00  0.00    +0.000 C 
ATOM     14  C   UNL     1      -0.570  10.945  18.833  0.00  0.00    +0.000 C 
BRANCH  14  15
ATOM     15  C   UNL     1      -0.632  10.638  20.370  0.00  0.00    +0.000 A 
ATOM     16  C   UNL     1      -0.765  11.669  21.322  0.00  0.00    +0.000 A 
ATOM     17  C   UNL     1      -0.764  11.399  22.696  0.00  0.00    +0.000 A 
ATOM     18  C   UNL     1      -0.607  10.097  23.160  0.00  0.00    +0.000 A 
ATOM     19  C   UNL     1      -0.463   9.060  22.248  0.00  0.00    +0.000 A 
ATOM     20  C   UNL     1      -0.468   9.327  20.876  0.00  0.00    +0.000 A 
ENDBRANCH  14  15
BRANCH  14  21
ATOM     21  C   UNL     1      -1.975  11.212  18.215  0.00  0.00    +0.000 A 
ATOM     22  C   UNL     1      -3.033  11.778  18.956  0.00  0.00    +0.000 A 
ATOM     23  C   UNL     1      -4.340  11.820  18.457  0.00  0.00    +0.000 A 
ATOM     24  C   UNL     1      -4.619  11.331  17.186  0.00  0.00    +0.000 A 
ATOM     25  C   UNL     1      -3.579  10.838  16.400  0.00  0.00    +0.000 A 
ATOM     26  C   UNL     1      -2.275  10.783  16.906  0.00  0.00    +0.000 A 
ENDBRANCH  14  21
ENDBRANCH  12  14
ENDBRANCH  11  12
ENDBRANCH  10  11
ENDBRANCH   1  10
BRANCH   2  27
ATOM     27  C   UNL     1       4.984   6.753  16.162  0.00  0.00    +0.000 C 
BRANCH  27  28
ATOM     28  C   UNL     1       6.130   5.734  16.086  0.00  0.00    +0.000 C 
BRANCH  28  29
ATOM     29  C   UNL     1       5.828   4.545  15.181  0.00  0.00    +0.000 C 
BRANCH  29  30
ATOM     30  O   UNL     1       5.897   3.332  15.917  0.00  0.00    +0.000 OA
ATOM     31  H   UNL     1       5.052   2.867  15.795  0.00  0.00    +0.000 HD
ENDBRANCH  29  30
ENDBRANCH  28  29
ENDBRANCH  27  28
ENDBRANCH   2  27
BRANCH   5  32
ATOM     32  O   UNL     1       3.960   3.298  20.012  0.00  0.00    +0.000 OA
BRANCH  32  33
ATOM     33  C   UNL     1       3.235   2.072  19.837  0.00  0.00    +0.000 C 
BRANCH  33  34
ATOM     34  C   UNL     1       3.307   1.636  18.387  0.00  0.00    +0.000 C 
ATOM     35  O   UNL     1       2.648   2.136  17.481  0.00  0.00    +0.000 OA
BRANCH  34  36
ATOM     36  O   UNL     1       4.166   0.607  18.173  0.00  0.00    +0.000 OA
ATOM     37  H   UNL     1       3.683  -0.245  18.236  0.00  0.00    +0.000 HD
ENDBRANCH  34  36
ENDBRANCH  33  34
ENDBRANCH  32  33
ENDBRANCH   5  32
TORSDOF 14
ENDMDL
MODEL 3
REMARK VINA RESULT:      -7.7      4.398      9.555
REMARK  Name = 
REMARK  15 active torsions:
REMARK  status: ('A' for Active; 'I' for Inactive)
REMARK    1  A    between atoms: C_1  and  C_2
REMARK    2  A    between atoms: C_2  and  S_3
REMARK    3  A    between atoms: C_2  and  C_24
REMARK    4  A    between atoms: C_2  and  C_30
REMARK    5  A    between atoms: S_3  and  C_4
REMARK    6  A    between atoms: C_4  and  C_5
REMARK    7  A    between atoms: C_5  and  C_6
REMARK    8  A    between atoms: C_7  and  C_8
REMARK    9  A    between atoms: C_8  and  C_9
REMARK   10  A    between atoms: C_9  and  C_10
REMARK   11  A    between atoms: C_10  and  O_11
REMARK   12  A    between atoms: C_14  and  O_15
REMARK   13  A    between atoms: O_15  and  C_16
REMARK   14  A    between atoms: C_16  and  C_17
REMARK   15  A    between atoms: C_17  and  O_19
REMARK                            x       y       z     vdW  Elec       q    Type
REMARK                         _______ _______ _______ _____ _____    ______ ____
ROOT
ATOM      1  C   UNL     1       2.158   6.145  20.152  0.00  0.00    +0.000 A 
ATOM      2  C   UNL     1       2.601   4.858  20.432  0.00  0.00    +0.000 A 
ATOM      3  O   UNL     1       3.551   4.469  19.536  0.00  0.00    +0.000 OA
ATOM      4  C   UNL     1       3.757   5.511  18.676  0.00  0.00    +0.000 A 
ATOM      5  C   UNL     1       4.672   5.536  17.609  0.00  0.00    +0.000 A 
ATOM      6  C   UNL     1       4.702   6.714  16.848  0.00  0.00    +0.000 A 
ATOM      7  C   UNL     1       3.882   7.803  17.154  0.00  0.00    +0.000 A 
ATOM      8  C   UNL     1       2.984   7.741  18.222  0.00  0.00    +0.000 A 
ATOM      9  C   UNL     1       2.916   6.573  19.012  0.00  0.00    +0.000 A 
ENDROOT
BRANCH   1  10
ATOM     10  C   UNL     1       1.066   6.843  20.912  0.00  0.00    +0.000 C 
BRANCH  10  11
ATOM     11  C   UNL     1       1.270   8.337  21.134  0.00  0.00    +0.000 C 
BRANCH  11  12
ATOM     12  S   UNL     1      -0.319   9.094  21.568  0.00  0.00    +0.000 S 
BRANCH  12  14
ATOM     13  C   UNL     1       1.220  11.095  20.337  0.00  0.00    +0.000 C 
ATOM     14  C   UNL     1      -0.258  10.760  20.657  0.00  0.00    +0.000 C 
BRANCH  14  15
ATOM     15  C   UNL     1      -0.736  11.880  21.647  0.00  0.00    +0.000 A 
ATOM     16  C   UNL     1      -0.078  13.125  21.722  0.00  0.00    +0.000 A 
ATOM     17  C   UNL     1      -0.470  14.103  22.645  0.00  0.00    +0.000 A 
ATOM     18  C   UNL     1      -1.513  13.860  23.532  0.00  0.00    +0.000 A 
ATOM     19  C   UNL     1      -2.175  12.639  23.490  0.00  0.00    +0.000 A 
ATOM     20  C   UNL     1      -1.787  11.664  22.568  0.00  0.00    +0.000 A 
ENDBRANCH  14  15
BRANCH  14  21
ATOM     21  C   UNL     1      -1.134  10.679  19.371  0.00  0.00    +0.000 A 
ATOM     22  C   UNL     1      -0.861   9.773  18.325  0.00  0.00    +0.000 A 
ATOM     23  C   UNL     1      -1.522   9.852  17.093  0.00  0.00    +0.000 A 
ATOM     24  C   UNL     1      -2.501  10.816  16.886  0.00  0.00    +0.000 A 
ATOM     25  C   UNL     1      -2.846  11.674  17.928  0.00  0.00    +0.000 A 
ATOM     26  C   UNL     1      -2.175  11.605  19.155  0.00  0.00    +0.000 A 
ENDBRANCH  14  21
ENDBRANCH  12  14
ENDBRANCH  11  12
ENDBRANCH  10  11
ENDBRANCH   1  10
BRANCH   2  27
ATOM     27  C   UNL     1       2.224   3.876  21.489  0.00  0.00    +0.000 C 
BRANCH  27  28
ATOM     28  C   UNL     1       1.618   2.585  20.922  0.00  0.00    +0.000 C 
BRANCH  28  29
ATOM     29  C   UNL     1       0.816   2.798  19.645  0.00  0.00    +0.000 C 
BRANCH  29  30
ATOM     30  O   UNL     1       1.143   1.807  18.682  0.00  0.00    +0.000 OA
ATOM     31  H   UNL     1       0.497   1.877  17.958  0.00  0.00    +0.000 HD
ENDBRANCH  29  30
ENDBRANCH  28  29
ENDBRANCH  27  28
ENDBRANCH   2  27
BRANCH   5  32
ATOM     32  O   UNL     1       5.426   4.419  17.334  0.00  0.00    +0.000 OA
BRANCH  32  33
ATOM     33  C   UNL     1       5.467   4.036  15.952  0.00  0.00    +0.000 C 
BRANCH  33  34
ATOM     34  C   UNL     1       6.832   4.348  15.373  0.00  0.00    +0.000 C 
ATOM     35  O   UNL     1       7.058   4.503  14.178  0.00  0.00    +0.000 OA
BRANCH  34  36
ATOM     36  O   UNL     1       7.813   4.423  16.310  0.00  0.00    +0.000 OA
ATOM     37  H   UNL     1       8.683   4.251  15.891  0.00  0.00    +0.000 HD
ENDBRANCH  34  36
ENDBRANCH  33  34
ENDBRANCH  32  33
ENDBRANCH   5  32
TORSDOF 14
ENDMDL
MODEL 4
REMARK VINA RESULT:      -7.6      4.437      9.674
REMARK  Name = 
REMARK  15 active torsions:
REMARK  status: ('A' for Active; 'I' for Inactive)
REMARK    1  A    between atoms: C_1  and  C_2
REMARK    2  A    between atoms: C_2  and  S_3
REMARK    3  A    between atoms: C_2  and  C_24
REMARK    4  A    between atoms: C_2  and  C_30
REMARK    5  A    between atoms: S_3  and  C_4
REMARK    6  A    between atoms: C_4  and  C_5
REMARK    7  A    between atoms: C_5  and  C_6
REMARK    8  A    between atoms: C_7  and  C_8
REMARK    9  A    between atoms: C_8  and  C_9
REMARK   10  A    between atoms: C_9  and  C_10
REMARK   11  A    between atoms: C_10  and  O_11
REMARK   12  A    between atoms: C_14  and  O_15
REMARK   13  A    between atoms: O_15  and  C_16
REMARK   14  A    between atoms: C_16  and  C_17
REMARK   15  A    between atoms: C_17  and  O_19
REMARK                            x       y       z     vdW  Elec       q    Type
REMARK                         _______ _______ _______ _____ _____    ______ ____
ROOT
ATOM      1  C   UNL     1       3.151   6.859  18.211  0.00  0.00    +0.000 A 
ATOM      2  C   UNL     1       4.291   6.323  17.625  0.00  0.00    +0.000 A 
ATOM      3  O   UNL     1       4.649   5.161  18.242  0.00  0.00    +0.000 OA
ATOM      4  C   UNL     1       3.729   4.915  19.221  0.00  0.00    +0.000 A 
ATOM      5  C   UNL     1       3.715   3.804  20.083  0.00  0.00    +0.000 A 
ATOM      6  C   UNL     1       2.675   3.766  21.025  0.00  0.00    +0.000 A 
ATOM      7  C   UNL     1       1.702   4.767  21.080  0.00  0.00    +0.000 A 
ATOM      8  C   UNL     1       1.750   5.856  20.207  0.00  0.00    +0.000 A 
ATOM      9  C   UNL     1       2.780   5.938  19.246  0.00  0.00    +0.000 A 
ENDROOT
BRANCH   1  10
ATOM     10  C   UNL     1       2.535   8.168  17.808  0.00  0.00    +0.000 C 
BRANCH  10  11
ATOM     11  C   UNL     1       1.772   8.903  18.905  0.00  0.00    +0.000 C 
BRANCH  11  12
ATOM     12  S   UNL     1       1.405  10.588  18.346  0.00  0.00    +0.000 S 
BRANCH  12  14
ATOM     13  C   UNL     1      -0.258  10.020  20.536  0.00  0.00    +0.000 C 
ATOM     14  C   UNL     1      -0.092  11.071  19.410  0.00  0.00    +0.000 C 
BRANCH  14  15
ATOM     15  C   UNL     1      -1.384  10.947  18.529  0.00  0.00    +0.000 A 
ATOM     16  C   UNL     1      -2.567  11.640  18.855  0.00  0.00    +0.000 A 
ATOM     17  C   UNL     1      -3.736  11.485  18.100  0.00  0.00    +0.000 A 
ATOM     18  C   UNL     1      -3.765  10.619  17.012  0.00  0.00    +0.000 A 
ATOM     19  C   UNL     1      -2.619   9.913  16.671  0.00  0.00    +0.000 A 
ATOM     20  C   UNL     1      -1.450  10.070  17.421  0.00  0.00    +0.000 A 
ENDBRANCH  14  15
BRANCH  14  21
ATOM     21  C   UNL     1       0.116  12.508  19.975  0.00  0.00    +0.000 A 
ATOM     22  C   UNL     1      -0.068  12.820  21.338  0.00  0.00    +0.000 A 
ATOM     23  C   UNL     1      -0.083  14.144  21.794  0.00  0.00    +0.000 A 
ATOM     24  C   UNL     1       0.124  15.191  20.904  0.00  0.00    +0.000 A 
ATOM     25  C   UNL     1       0.386  14.909  19.565  0.00  0.00    +0.000 A 
ATOM     26  C   UNL     1       0.386  13.586  19.107  0.00  0.00    +0.000 A 
ENDBRANCH  14  21
ENDBRANCH  12  14
ENDBRANCH  11  12
ENDBRANCH  10  11
ENDBRANCH   1  10
BRANCH   2  27
ATOM     27  C   UNL     1       5.151   6.786  16.498  0.00  0.00    +0.000 C 
BRANCH  27  28
ATOM     28  C   UNL     1       5.310   5.734  15.391  0.00  0.00    +0.000 C 
BRANCH  28  29
ATOM     29  C   UNL     1       6.517   4.825  15.584  0.00  0.00    +0.000 C 
BRANCH  29  30
ATOM     30  O   UNL     1       6.146   3.651  16.292  0.00  0.00    +0.000 OA
ATOM     31  H   UNL     1       5.724   3.931  17.122  0.00  0.00    +0.000 HD
ENDBRANCH  29  30
ENDBRANCH  28  29
ENDBRANCH  27  28
ENDBRANCH   2  27
BRANCH   5  32
ATOM     32  O   UNL     1       4.722   2.871  20.005  0.00  0.00    +0.000 OA
BRANCH  32  33
ATOM     33  C   UNL     1       4.305   1.556  19.608  0.00  0.00    +0.000 C 
BRANCH  33  34
ATOM     34  C   UNL     1       3.474   1.642  18.344  0.00  0.00    +0.000 C 
ATOM     35  O   UNL     1       3.910   1.988  17.251  0.00  0.00    +0.000 OA
BRANCH  34  36
ATOM     36  O   UNL     1       2.169   1.316  18.531  0.00  0.00    +0.000 OA
ATOM     37  H   UNL     1       2.003   1.152  19.483  0.00  0.00    +0.000 HD
ENDBRANCH  34  36
ENDBRANCH  33  34
ENDBRANCH  32  33
ENDBRANCH   5  32
TORSDOF 14
ENDMDL
MODEL 5
REMARK VINA RESULT:      -7.6      4.280      9.556
REMARK  Name = 
REMARK  15 active torsions:
REMARK  status: ('A' for Active; 'I' for Inactive)
REMARK    1  A    between atoms: C_1  and  C_2
REMARK    2  A    between atoms: C_2  and  S_3
REMARK    3  A    between atoms: C_2  and  C_24
REMARK    4  A    between atoms: C_2  and  C_30
REMARK    5  A    between atoms: S_3  and  C_4
REMARK    6  A    between atoms: C_4  and  C_5
REMARK    7  A    between atoms: C_5  and  C_6
REMARK    8  A    between atoms: C_7  and  C_8
REMARK    9  A    between atoms: C_8  and  C_9
REMARK   10  A    between atoms: C_9  and  C_10
REMARK   11  A    between atoms: C_10  and  O_11
REMARK   12  A    between atoms: C_14  and  O_15
REMARK   13  A    between atoms: O_15  and  C_16
REMARK   14  A    between atoms: C_16  and  C_17
REMARK   15  A    between atoms: C_17  and  O_19
REMARK                            x       y       z     vdW  Elec       q    Type
REMARK                         _______ _______ _______ _____ _____    ______ ____
ROOT
ATOM      1  C   UNL     1       2.170   6.130  20.034  0.00  0.00    +0.000 A 
ATOM      2  C   UNL     1       2.645   4.884  20.425  0.00  0.00    +0.000 A 
ATOM      3  O   UNL     1       3.659   4.476  19.609  0.00  0.00    +0.000 OA
ATOM      4  C   UNL     1       3.872   5.467  18.692  0.00  0.00    +0.000 A 
ATOM      5  C   UNL     1       4.845   5.458  17.677  0.00  0.00    +0.000 A 
ATOM      6  C   UNL     1       4.872   6.584  16.839  0.00  0.00    +0.000 A 
ATOM      7  C   UNL     1       3.996   7.656  17.026  0.00  0.00    +0.000 A 
ATOM      8  C   UNL     1       3.042   7.627  18.046  0.00  0.00    +0.000 A 
ATOM      9  C   UNL     1       2.974   6.513  18.909  0.00  0.00    +0.000 A 
ENDROOT
BRANCH   1  10
ATOM     10  C   UNL     1       1.013   6.830  20.685  0.00  0.00    +0.000 C 
BRANCH  10  11
ATOM     11  C   UNL     1       1.276   8.266  21.127  0.00  0.00    +0.000 C 
BRANCH  11  12
ATOM     12  S   UNL     1      -0.304   9.144  21.262  0.00  0.00    +0.000 S 
BRANCH  12  14
ATOM     13  C   UNL     1       1.324  10.508  19.426  0.00  0.00    +0.000 C 
ATOM     14  C   UNL     1      -0.081  10.606  20.070  0.00  0.00    +0.000 C 
BRANCH  14  15
ATOM     15  C   UNL     1      -0.063  11.930  20.912  0.00  0.00    +0.000 A 
ATOM     16  C   UNL     1      -0.780  12.043  22.121  0.00  0.00    +0.000 A 
ATOM     17  C   UNL     1      -0.809  13.243  22.842  0.00  0.00    +0.000 A 
ATOM     18  C   UNL     1      -0.143  14.369  22.368  0.00  0.00    +0.000 A 
ATOM     19  C   UNL     1       0.564  14.292  21.175  0.00  0.00    +0.000 A 
ATOM     20  C   UNL     1       0.597  13.094  20.456  0.00  0.00    +0.000 A 
ENDBRANCH  14  15
BRANCH  14  21
ATOM     21  C   UNL     1      -1.218  10.584  19.005  0.00  0.00    +0.000 A 
ATOM     22  C   UNL     1      -1.118   9.849  17.806  0.00  0.00    +0.000 A 
ATOM     23  C   UNL     1      -2.047  10.002  16.770  0.00  0.00    +0.000 A 
ATOM     24  C   UNL     1      -3.124  10.867  16.920  0.00  0.00    +0.000 A 
ATOM     25  C   UNL     1      -3.292  11.547  18.125  0.00  0.00    +0.000 A 
ATOM     26  C   UNL     1      -2.354  11.405  19.154  0.00  0.00    +0.000 A 
ENDBRANCH  14  21
ENDBRANCH  12  14
ENDBRANCH  11  12
ENDBRANCH  10  11
ENDBRANCH   1  10
BRANCH   2  27
ATOM     27  C   UNL     1       2.247   3.959  21.525  0.00  0.00    +0.000 C 
BRANCH  27  28
ATOM     28  C   UNL     1       1.612   2.658  21.017  0.00  0.00    +0.000 C 
BRANCH  28  29
ATOM     29  C   UNL     1       0.760   2.844  19.767  0.00  0.00    +0.000 C 
BRANCH  29  30
ATOM     30  O   UNL     1       1.445   2.356  18.623  0.00  0.00    +0.000 OA
ATOM     31  H   UNL     1       0.954   1.584  18.294  0.00  0.00    +0.000 HD
ENDBRANCH  29  30
ENDBRANCH  28  29
ENDBRANCH  27  28
ENDBRANCH   2  27
BRANCH   5  32
ATOM     32  O   UNL     1       5.654   4.358  17.519  0.00  0.00    +0.000 OA
BRANCH  32  33
ATOM     33  C   UNL     1       6.939   4.625  16.939  0.00  0.00    +0.000 C 
BRANCH  33  34
ATOM     34  C   UNL     1       6.862   4.479  15.432  0.00  0.00    +0.000 C 
ATOM     35  O   UNL     1       6.215   3.613  14.853  0.00  0.00    +0.000 OA
BRANCH  34  36
ATOM     36  O   UNL     1       7.603   5.398  14.761  0.00  0.00    +0.000 OA
ATOM     37  H   UNL     1       8.286   5.772  15.358  0.00  0.00    +0.000 HD
ENDBRANCH  34  36
ENDBRANCH  33  34
ENDBRANCH  32  33
ENDBRANCH   5  32
TORSDOF 14
ENDMDL
MODEL 6
REMARK VINA RESULT:      -7.6      0.989      1.139
REMARK  Name = 
REMARK  15 active torsions:
REMARK  status: ('A' for Active; 'I' for Inactive)
REMARK    1  A    between atoms: C_1  and  C_2
REMARK    2  A    between atoms: C_2  and  S_3
REMARK    3  A    between atoms: C_2  and  C_24
REMARK    4  A    between atoms: C_2  and  C_30
REMARK    5  A    between atoms: S_3  and  C_4
REMARK    6  A    between atoms: C_4  and  C_5
REMARK    7  A    between atoms: C_5  and  C_6
REMARK    8  A    between atoms: C_7  and  C_8
REMARK    9  A    between atoms: C_8  and  C_9
REMARK   10  A    between atoms: C_9  and  C_10
REMARK   11  A    between atoms: C_10  and  O_11
REMARK   12  A    between atoms: C_14  and  O_15
REMARK   13  A    between atoms: O_15  and  C_16
REMARK   14  A    between atoms: C_16  and  C_17
REMARK   15  A    between atoms: C_17  and  O_19
REMARK                            x       y       z     vdW  Elec       q    Type
REMARK                         _______ _______ _______ _____ _____    ______ ____
ROOT
ATOM      1  C   UNL     1      -0.013  10.242  18.574  0.00  0.00    +0.000 A 
ATOM      2  C   UNL     1      -0.208  10.913  19.775  0.00  0.00    +0.000 A 
ATOM      3  O   UNL     1      -1.470  11.425  19.842  0.00  0.00    +0.000 OA
ATOM      4  C   UNL     1      -2.119  11.070  18.693  0.00  0.00    +0.000 A 
ATOM      5  C   UNL     1      -3.451  11.380  18.367  0.00  0.00    +0.000 A 
ATOM      6  C   UNL     1      -3.904  10.920  17.120  0.00  0.00    +0.000 A 
ATOM      7  C   UNL     1      -3.079  10.179  16.271  0.00  0.00    +0.000 A 
ATOM      8  C   UNL     1      -1.761   9.892  16.630  0.00  0.00    +0.000 A 
ATOM      9  C   UNL     1      -1.260  10.339  17.872  0.00  0.00    +0.000 A 
ENDROOT
BRANCH   1  10
ATOM     10  C   UNL     1       1.289   9.619  18.161  0.00  0.00    +0.000 C 
BRANCH  10  11
ATOM     11  C   UNL     1       1.277   8.102  18.016  0.00  0.00    +0.000 C 
BRANCH  11  12
ATOM     12  S   UNL     1       2.222   7.368  19.378  0.00  0.00    +0.000 S 
BRANCH  12  14
ATOM     13  C   UNL     1       2.162   5.503  17.279  0.00  0.00    +0.000 C 
ATOM     14  C   UNL     1       2.916   5.778  18.604  0.00  0.00    +0.000 C 
BRANCH  14  15
ATOM     15  C   UNL     1       2.558   4.575  19.546  0.00  0.00    +0.000 A 
ATOM     16  C   UNL     1       2.326   3.282  19.033  0.00  0.00    +0.000 A 
ATOM     17  C   UNL     1       1.952   2.222  19.868  0.00  0.00    +0.000 A 
ATOM     18  C   UNL     1       1.777   2.425  21.233  0.00  0.00    +0.000 A 
ATOM     19  C   UNL     1       1.987   3.689  21.767  0.00  0.00    +0.000 A 
ATOM     20  C   UNL     1       2.365   4.748  20.936  0.00  0.00    +0.000 A 
ENDBRANCH  14  15
BRANCH  14  21
ATOM     21  C   UNL     1       4.450   5.935  18.385  0.00  0.00    +0.000 A 
ATOM     22  C   UNL     1       4.990   6.630  17.283  0.00  0.00    +0.000 A 
ATOM     23  C   UNL     1       6.357   6.586  16.984  0.00  0.00    +0.000 A 
ATOM     24  C   UNL     1       7.228   5.877  17.802  0.00  0.00    +0.000 A 
ATOM     25  C   UNL     1       6.735   5.246  18.942  0.00  0.00    +0.000 A 
ATOM     26  C   UNL     1       5.366   5.277  19.231  0.00  0.00    +0.000 A 
ENDBRANCH  14  21
ENDBRANCH  12  14
ENDBRANCH  11  12
ENDBRANCH  10  11
ENDBRANCH   1  10
BRANCH   2  27
ATOM     27  C   UNL     1       0.687  11.162  20.941  0.00  0.00    +0.000 C 
BRANCH  27  28
ATOM     28  C   UNL     1       0.922   9.910  21.798  0.00  0.00    +0.000 C 
BRANCH  28  29
ATOM     29  C   UNL     1      -0.354   9.137  22.108  0.00  0.00    +0.000 C 
BRANCH  29  30
ATOM     30  O   UNL     1      -0.820   9.454  23.412  0.00  0.00    +0.000 OA
ATOM     31  H   UNL     1      -0.755   8.648  23.951  0.00  0.00    +0.000 HD
ENDBRANCH  29  30
ENDBRANCH  28  29
ENDBRANCH  27  28
ENDBRANCH   2  27
BRANCH   5  32
ATOM     32  O   UNL     1      -4.203  12.145  19.228  0.00  0.00    +0.000 OA
BRANCH  32  33
ATOM     33  C   UNL     1      -5.606  12.195  18.932  0.00  0.00    +0.000 C 
BRANCH  33  34
ATOM     34  C   UNL     1      -6.360  11.266  19.862  0.00  0.00    +0.000 C 
ATOM     35  O   UNL     1      -6.479  11.443  21.070  0.00  0.00    +0.000 OA
BRANCH  34  36
ATOM     36  O   UNL     1      -6.888  10.184  19.235  0.00  0.00    +0.000 OA
ATOM     37  H   UNL     1      -6.197   9.747  18.692  0.00  0.00    +0.000 HD
ENDBRANCH  34  36
ENDBRANCH  33  34
ENDBRANCH  32  33
ENDBRANCH   5  32
TORSDOF 14
ENDMDL
MODEL 7
REMARK VINA RESULT:      -7.5      4.209      9.573
REMARK  Name = 
REMARK  15 active torsions:
REMARK  status: ('A' for Active; 'I' for Inactive)
REMARK    1  A    between atoms: C_1  and  C_2
REMARK    2  A    between atoms: C_2  and  S_3
REMARK    3  A    between atoms: C_2  and  C_24
REMARK    4  A    between atoms: C_2  and  C_30
REMARK    5  A    between atoms: S_3  and  C_4
REMARK    6  A    between atoms: C_4  and  C_5
REMARK    7  A    between atoms: C_5  and  C_6
REMARK    8  A    between atoms: C_7  and  C_8
REMARK    9  A    between atoms: C_8  and  C_9
REMARK   10  A    between atoms: C_9  and  C_10
REMARK   11  A    between atoms: C_10  and  O_11
REMARK   12  A    between atoms: C_14  and  O_15
REMARK   13  A    between atoms: O_15  and  C_16
REMARK   14  A    between atoms: C_16  and  C_17
REMARK   15  A    between atoms: C_17  and  O_19
REMARK                            x       y       z     vdW  Elec       q    Type
REMARK                         _______ _______ _______ _____ _____    ______ ____
ROOT
ATOM      1  C   UNL     1       2.390   6.344  19.678  0.00  0.00    +0.000 A 
ATOM      2  C   UNL     1       2.856   5.162  20.239  0.00  0.00    +0.000 A 
ATOM      3  O   UNL     1       3.960   4.716  19.575  0.00  0.00    +0.000 OA
ATOM      4  C   UNL     1       4.239   5.619  18.588  0.00  0.00    +0.000 A 
ATOM      5  C   UNL     1       5.312   5.548  17.682  0.00  0.00    +0.000 A 
ATOM      6  C   UNL     1       5.394   6.587  16.741  0.00  0.00    +0.000 A 
ATOM      7  C   UNL     1       4.473   7.638  16.730  0.00  0.00    +0.000 A 
ATOM      8  C   UNL     1       3.420   7.672  17.646  0.00  0.00    +0.000 A 
ATOM      9  C   UNL     1       3.295   6.646  18.607  0.00  0.00    +0.000 A 
ENDROOT
BRANCH   1  10
ATOM     10  C   UNL     1       1.151   7.060  20.136  0.00  0.00    +0.000 C 
BRANCH  10  11
ATOM     11  C   UNL     1       1.386   8.341  20.929  0.00  0.00    +0.000 C 
BRANCH  11  12
ATOM     12  S   UNL     1      -0.213   9.111  21.298  0.00  0.00    +0.000 S 
BRANCH  12  14
ATOM     13  C   UNL     1       1.290  10.907  19.748  0.00  0.00    +0.000 C 
ATOM     14  C   UNL     1      -0.145  10.728  20.303  0.00  0.00    +0.000 C 
BRANCH  14  15
ATOM     15  C   UNL     1      -0.362  11.926  21.293  0.00  0.00    +0.000 A 
ATOM     16  C   UNL     1      -1.217  11.813  22.408  0.00  0.00    +0.000 A 
ATOM     17  C   UNL     1      -1.453  12.900  23.259  0.00  0.00    +0.000 A 
ATOM     18  C   UNL     1      -0.862  14.134  23.011  0.00  0.00    +0.000 A 
ATOM     19  C   UNL     1      -0.022  14.281  21.914  0.00  0.00    +0.000 A 
ATOM     20  C   UNL     1       0.218  13.196  21.066  0.00  0.00    +0.000 A 
ENDBRANCH  14  15
BRANCH  14  21
ATOM     21  C   UNL     1      -1.211  10.683  19.169  0.00  0.00    +0.000 A 
ATOM     22  C   UNL     1      -1.078   9.853  18.036  0.00  0.00    +0.000 A 
ATOM     23  C   UNL     1      -1.930   9.974  16.932  0.00  0.00    +0.000 A 
ATOM     24  C   UNL     1      -2.963  10.903  16.945  0.00  0.00    +0.000 A 
ATOM     25  C   UNL     1      -3.167  11.683  18.082  0.00  0.00    +0.000 A 
ATOM     26  C   UNL     1      -2.306  11.572  19.180  0.00  0.00    +0.000 A 
ENDBRANCH  14  21
ENDBRANCH  12  14
ENDBRANCH  11  12
ENDBRANCH  10  11
ENDBRANCH   1  10
BRANCH   2  27
ATOM     27  C   UNL     1       2.373   4.335  21.382  0.00  0.00    +0.000 C 
BRANCH  27  28
ATOM     28  C   UNL     1       1.231   3.384  20.996  0.00  0.00    +0.000 C 
BRANCH  28  29
ATOM     29  C   UNL     1       1.629   2.350  19.950  0.00  0.00    +0.000 C 
BRANCH  29  30
ATOM     30  O   UNL     1       0.724   2.379  18.855  0.00  0.00    +0.000 OA
ATOM     31  H   UNL     1       1.219   2.681  18.074  0.00  0.00    +0.000 HD
ENDBRANCH  29  30
ENDBRANCH  28  29
ENDBRANCH  27  28
ENDBRANCH   2  27
BRANCH   5  32
ATOM     32  O   UNL     1       6.164   4.470  17.719  0.00  0.00    +0.000 OA
BRANCH  32  33
ATOM     33  C   UNL     1       7.557   4.798  17.826  0.00  0.00    +0.000 C 
BRANCH  33  34
ATOM     34  C   UNL     1       7.802   5.589  19.095  0.00  0.00    +0.000 C 
ATOM     35  O   UNL     1       7.568   5.174  20.225  0.00  0.00    +0.000 OA
BRANCH  34  36
ATOM     36  O   UNL     1       8.294   6.835  18.870  0.00  0.00    +0.000 OA
ATOM     37  H   UNL     1       7.888   7.469  19.498  0.00  0.00    +0.000 HD
ENDBRANCH  34  36
ENDBRANCH  33  34
ENDBRANCH  32  33
ENDBRANCH   5  32
TORSDOF 14
ENDMDL
MODEL 8
REMARK VINA RESULT:      -7.5      4.563      9.690
REMARK  Name = 
REMARK  15 active torsions:
REMARK  status: ('A' for Active; 'I' for Inactive)
REMARK    1  A    between atoms: C_1  and  C_2
REMARK    2  A    between atoms: C_2  and  S_3
REMARK    3  A    between atoms: C_2  and  C_24
REMARK    4  A    between atoms: C_2  and  C_30
REMARK    5  A    between atoms: S_3  and  C_4
REMARK    6  A    between atoms: C_4  and  C_5
REMARK    7  A    between atoms: C_5  and  C_6
REMARK    8  A    between atoms: C_7  and  C_8
REMARK    9  A    between atoms: C_8  and  C_9
REMARK   10  A    between atoms: C_9  and  C_10
REMARK   11  A    between atoms: C_10  and  O_11
REMARK   12  A    between atoms: C_14  and  O_15
REMARK   13  A    between atoms: O_15  and  C_16
REMARK   14  A    between atoms: C_16  and  C_17
REMARK   15  A    between atoms: C_17  and  O_19
REMARK                            x       y       z     vdW  Elec       q    Type
REMARK                         _______ _______ _______ _____ _____    ______ ____
ROOT
ATOM      1  C   UNL     1       3.450   6.081  18.205  0.00  0.00    +0.000 A 
ATOM      2  C   UNL     1       2.854   4.957  17.644  0.00  0.00    +0.000 A 
ATOM      3  O   UNL     1       3.686   4.373  16.736  0.00  0.00    +0.000 OA
ATOM      4  C   UNL     1       4.845   5.097  16.715  0.00  0.00    +0.000 A 
ATOM      5  C   UNL     1       5.977   4.822  15.928  0.00  0.00    +0.000 A 
ATOM      6  C   UNL     1       7.053   5.714  16.062  0.00  0.00    +0.000 A 
ATOM      7  C   UNL     1       7.001   6.794  16.946  0.00  0.00    +0.000 A 
ATOM      8  C   UNL     1       5.858   7.035  17.711  0.00  0.00    +0.000 A 
ATOM      9  C   UNL     1       4.749   6.167  17.605  0.00  0.00    +0.000 A 
ENDROOT
BRANCH   1  10
ATOM     10  C   UNL     1       2.772   6.987  19.192  0.00  0.00    +0.000 C 
BRANCH  10  11
ATOM     11  C   UNL     1       1.484   7.642  18.708  0.00  0.00    +0.000 C 
BRANCH  11  12
ATOM     12  S   UNL     1       1.868   9.285  18.044  0.00  0.00    +0.000 S 
BRANCH  12  14
ATOM     13  C   UNL     1       0.587   9.758  20.498  0.00  0.00    +0.000 C 
ATOM     14  C   UNL     1       0.811  10.437  19.124  0.00  0.00    +0.000 C 
BRANCH  14  15
ATOM     15  C   UNL     1      -0.614  10.549  18.477  0.00  0.00    +0.000 A 
ATOM     16  C   UNL     1      -1.609  11.382  19.028  0.00  0.00    +0.000 A 
ATOM     17  C   UNL     1      -2.897  11.439  18.482  0.00  0.00    +0.000 A 
ATOM     18  C   UNL     1      -3.236  10.652  17.386  0.00  0.00    +0.000 A 
ATOM     19  C   UNL     1      -2.281   9.813  16.827  0.00  0.00    +0.000 A 
ATOM     20  C   UNL     1      -0.994   9.758  17.368  0.00  0.00    +0.000 A 
ENDBRANCH  14  15
BRANCH  14  21
ATOM     21  C   UNL     1       1.522  11.816  19.260  0.00  0.00    +0.000 A 
ATOM     22  C   UNL     1       2.224  12.415  18.194  0.00  0.00    +0.000 A 
ATOM     23  C   UNL     1       3.029  13.544  18.385  0.00  0.00    +0.000 A 
ATOM     24  C   UNL     1       3.124  14.129  19.642  0.00  0.00    +0.000 A 
ATOM     25  C   UNL     1       2.379  13.606  20.697  0.00  0.00    +0.000 A 
ATOM     26  C   UNL     1       1.586  12.468  20.509  0.00  0.00    +0.000 A 
ENDBRANCH  14  21
ENDBRANCH  12  14
ENDBRANCH  11  12
ENDBRANCH  10  11
ENDBRANCH   1  10
BRANCH   2  27
ATOM     27  C   UNL     1       1.522   4.321  17.851  0.00  0.00    +0.000 C 
BRANCH  27  28
ATOM     28  C   UNL     1       1.618   2.864  18.325  0.00  0.00    +0.000 C 
BRANCH  28  29
ATOM     29  C   UNL     1       1.594   2.715  19.841  0.00  0.00    +0.000 C 
BRANCH  29  30
ATOM     30  O   UNL     1       0.518   3.458  20.395  0.00  0.00    +0.000 OA
ATOM     31  H   UNL     1      -0.306   2.996  20.167  0.00  0.00    +0.000 HD
ENDBRANCH  29  30
ENDBRANCH  28  29
ENDBRANCH  27  28
ENDBRANCH   2  27
BRANCH   5  32
ATOM     32  O   UNL     1       5.954   3.765  15.049  0.00  0.00    +0.000 OA
BRANCH  32  33
ATOM     33  C   UNL     1       6.636   3.991  13.806  0.00  0.00    +0.000 C 
BRANCH  33  34
ATOM     34  C   UNL     1       5.864   3.345  12.673  0.00  0.00    +0.000 C 
ATOM     35  O   UNL     1       4.697   3.602  12.396  0.00  0.00    +0.000 OA
BRANCH  34  36
ATOM     36  O   UNL     1       6.582   2.420  11.987  0.00  0.00    +0.000 OA
ATOM     37  H   UNL     1       6.334   1.520  12.287  0.00  0.00    +0.000 HD
ENDBRANCH  34  36
ENDBRANCH  33  34
ENDBRANCH  32  33
ENDBRANCH   5  32
TORSDOF 14
ENDMDL
MODEL 9
REMARK VINA RESULT:      -7.5      4.302      9.046
REMARK  Name = 
REMARK  15 active torsions:
REMARK  status: ('A' for Active; 'I' for Inactive)
REMARK    1  A    between atoms: C_1  and  C_2
REMARK    2  A    between atoms: C_2  and  S_3
REMARK    3  A    between atoms: C_2  and  C_24
REMARK    4  A    between atoms: C_2  and  C_30
REMARK    5  A    between atoms: S_3  and  C_4
REMARK    6  A    between atoms: C_4  and  C_5
REMARK    7  A    between atoms: C_5  and  C_6
REMARK    8  A    between atoms: C_7  and  C_8
REMARK    9  A    between atoms: C_8  and  C_9
REMARK   10  A    between atoms: C_9  and  C_10
REMARK   11  A    between atoms: C_10  and  O_11
REMARK   12  A    between atoms: C_14  and  O_15
REMARK   13  A    between atoms: O_15  and  C_16
REMARK   14  A    between atoms: C_16  and  C_17
REMARK   15  A    between atoms: C_17  and  O_19
REMARK                            x       y       z     vdW  Elec       q    Type
REMARK                         _______ _______ _______ _____ _____    ______ ____
ROOT
ATOM      1  C   UNL     1       2.984   7.277  18.069  0.00  0.00    +0.000 A 
ATOM      2  C   UNL     1       3.987   6.555  17.435  0.00  0.00    +0.000 A 
ATOM      3  O   UNL     1       4.226   5.384  18.091  0.00  0.00    +0.000 OA
ATOM      4  C   UNL     1       3.360   5.319  19.146  0.00  0.00    +0.000 A 
ATOM      5  C   UNL     1       3.258   4.264  20.070  0.00  0.00    +0.000 A 
ATOM      6  C   UNL     1       2.301   4.422  21.084  0.00  0.00    +0.000 A 
ATOM      7  C   UNL     1       1.485   5.554  21.150  0.00  0.00    +0.000 A 
ATOM      8  C   UNL     1       1.617   6.582  20.214  0.00  0.00    +0.000 A 
ATOM      9  C   UNL     1       2.570   6.470  19.179  0.00  0.00    +0.000 A 
ENDROOT
BRANCH   1  10
ATOM     10  C   UNL     1       2.528   8.641  17.635  0.00  0.00    +0.000 C 
BRANCH  10  11
ATOM     11  C   UNL     1       1.306   9.189  18.363  0.00  0.00    +0.000 C 
BRANCH  11  12
ATOM     12  S   UNL     1       1.411  10.998  18.421  0.00  0.00    +0.000 S 
BRANCH  12  14
ATOM     13  C   UNL     1      -0.283  13.035  19.352  0.00  0.00    +0.000 C 
ATOM     14  C   UNL     1      -0.262  11.497  19.169  0.00  0.00    +0.000 C 
BRANCH  14  15
ATOM     15  C   UNL     1      -0.350  10.903  20.619  0.00  0.00    +0.000 A 
ATOM     16  C   UNL     1      -0.140   9.532  20.866  0.00  0.00    +0.000 A 
ATOM     17  C   UNL     1      -0.274   8.993  22.152  0.00  0.00    +0.000 A 
ATOM     18  C   UNL     1      -0.643   9.802  23.222  0.00  0.00    +0.000 A 
ATOM     19  C   UNL     1      -0.867  11.156  23.009  0.00  0.00    +0.000 A 
ATOM     20  C   UNL     1      -0.730  11.695  21.727  0.00  0.00    +0.000 A 
ENDBRANCH  14  15
BRANCH  14  21
ATOM     21  C   UNL     1      -1.412  11.001  18.243  0.00  0.00    +0.000 A 
ATOM     22  C   UNL     1      -1.227   9.984  17.284  0.00  0.00    +0.000 A 
ATOM     23  C   UNL     1      -2.202   9.694  16.322  0.00  0.00    +0.000 A 
ATOM     24  C   UNL     1      -3.406  10.387  16.317  0.00  0.00    +0.000 A 
ATOM     25  C   UNL     1      -3.648  11.342  17.302  0.00  0.00    +0.000 A 
ATOM     26  C   UNL     1      -2.667  11.643  18.254  0.00  0.00    +0.000 A 
ENDBRANCH  14  21
ENDBRANCH  12  14
ENDBRANCH  11  12
ENDBRANCH  10  11
ENDBRANCH   1  10
BRANCH   2  27
ATOM     27  C   UNL     1       4.812   6.834  16.225  0.00  0.00    +0.000 C 
BRANCH  27  28
ATOM     28  C   UNL     1       6.017   5.892  16.088  0.00  0.00    +0.000 C 
BRANCH  28  29
ATOM     29  C   UNL     1       5.698   4.602  15.342  0.00  0.00    +0.000 C 
BRANCH  29  30
ATOM     30  O   UNL     1       5.560   3.523  16.256  0.00  0.00    +0.000 OA
ATOM     31  H   UNL     1       6.104   3.728  17.036  0.00  0.00    +0.000 HD
ENDBRANCH  29  30
ENDBRANCH  28  29
ENDBRANCH  27  28
ENDBRANCH   2  27
BRANCH   5  32
ATOM     32  O   UNL     1       4.114   3.192  19.975  0.00  0.00    +0.000 OA
BRANCH  32  33
ATOM     33  C   UNL     1       3.480   1.924  19.755  0.00  0.00    +0.000 C 
BRANCH  33  34
ATOM     34  C   UNL     1       3.488   1.596  18.276  0.00  0.00    +0.000 C 
ATOM     35  O   UNL     1       2.852   2.213  17.427  0.00  0.00    +0.000 OA
BRANCH  34  36
ATOM     36  O   UNL     1       4.258   0.522  17.963  0.00  0.00    +0.000 OA
ATOM     37  H   UNL     1       4.899   0.768  17.263  0.00  0.00    +0.000 HD
ENDBRANCH  34  36
ENDBRANCH  33  34
ENDBRANCH  32  33
ENDBRANCH   5  32
TORSDOF 14
ENDMDL
