MODEL 1
REMARK VINA RESULT:      -9.8      0.000      0.000
REMARK  Name = 
REMARK  6 active torsions:
REMARK  status: ('A' for Active; 'I' for Inactive)
REMARK    1  A    between atoms: C_1  and  O_2
REMARK    2  A    between atoms: O_2  and  C_3
REMARK    3  A    between atoms: C_6  and  C_7
REMARK    4  A    between atoms: C_21  and  C_22
REMARK    5  A    between atoms: C_22  and  S_23
REMARK    6  A    between atoms: S_23  and  C_24
REMARK                            x       y       z     vdW  Elec       q    Type
REMARK                         _______ _______ _______ _____ _____    ______ ____
ROOT
ATOM      1  C   UNL     1       3.326   3.879  19.716  0.00  0.00    +0.000 A 
ATOM      2  C   UNL     1       2.039   4.294  20.045  0.00  0.00    +0.000 A 
ATOM      3  C   UNL     1       1.681   5.634  19.932  0.00  0.00    +0.000 A 
ATOM      4  C   UNL     1       2.588   6.664  19.517  0.00  0.00    +0.000 A 
ATOM      5  C   UNL     1       3.862   6.234  19.088  0.00  0.00    +0.000 A 
ATOM      6  C   UNL     1       4.235   4.846  19.194  0.00  0.00    +0.000 A 
ENDROOT
BRANCH   4   7
ATOM      7  C   UNL     1       2.071   8.122  19.842  0.00  0.00    +0.000 C 
ATOM      8  N   UNL     1       1.944   8.542  18.422  0.00  0.00    +0.000 NA
ATOM      9  C   UNL     1       1.640   9.921  18.109  0.00  0.00    +0.000 C 
ATOM     10  C   UNL     1       0.219  10.154  18.518  0.00  0.00    +0.000 C 
ATOM     11  C   UNL     1       0.155   9.880  19.960  0.00  0.00    +0.000 A 
ATOM     12  C   UNL     1       0.899   8.902  20.639  0.00  0.00    +0.000 A 
ATOM     13  N   UNL     1       0.552   8.999  21.977  0.00  0.00    +0.000 N 
ATOM     14  C   UNL     1      -0.356  10.037  22.067  0.00  0.00    +0.000 A 
ATOM     15  C   UNL     1      -1.025  10.589  23.197  0.00  0.00    +0.000 A 
ATOM     16  C   UNL     1      -1.876  11.724  22.996  0.00  0.00    +0.000 A 
ATOM     17  C   UNL     1      -2.024  12.286  21.721  0.00  0.00    +0.000 A 
ATOM     18  C   UNL     1      -1.372  11.722  20.631  0.00  0.00    +0.000 A 
ATOM     19  C   UNL     1      -0.567  10.600  20.852  0.00  0.00    +0.000 A 
ATOM     20  H   UNL     1       1.229   7.926  17.952  0.00  0.00    +0.000 HD
ATOM     21  H   UNL     1       0.929   8.452  22.781  0.00  0.00    +0.000 HD
ENDBRANCH   4   7
BRANCH   1  23
ATOM     22  C   UNL     1       3.587   1.506  19.036  0.00  0.00    +0.000 C 
ATOM     23  O   UNL     1       3.726   2.580  19.911  0.00  0.00    +0.000 OA
ENDBRANCH   1  23
BRANCH   6  24
ATOM     24  C   UNL     1       5.626   4.400  18.801  0.00  0.00    +0.000 C 
BRANCH  24  25
ATOM     25  S   UNL     1       6.617   5.731  18.025  0.00  0.00    +0.000 S 
BRANCH  25  26
ATOM     26  C   UNL     1       6.587   5.104  16.347  0.00  0.00    +0.000 A 
ATOM     27  N   UNL     1       7.426   5.539  15.377  0.00  0.00    +0.000 NA
ATOM     28  C   UNL     1       7.143   4.949  14.190  0.00  0.00    +0.000 A 
ATOM     29  C   UNL     1       7.844   5.186  13.011  0.00  0.00    +0.000 A 
ATOM     30  C   UNL     1       7.451   4.509  11.843  0.00  0.00    +0.000 A 
ATOM     31  C   UNL     1       6.362   3.616  11.869  0.00  0.00    +0.000 A 
ATOM     32  C   UNL     1       5.657   3.389  13.063  0.00  0.00    +0.000 A 
ATOM     33  C   UNL     1       6.073   4.066  14.210  0.00  0.00    +0.000 A 
ATOM     34  S   UNL     1       5.445   3.996  15.766  0.00  0.00    +0.000 S 
ENDBRANCH  25  26
ENDBRANCH  24  25
ENDBRANCH   6  24
TORSDOF 5
ENDMDL
MODEL 2
REMARK VINA RESULT:      -8.7      4.533      9.927
REMARK  Name = 
REMARK  6 active torsions:
REMARK  status: ('A' for Active; 'I' for Inactive)
REMARK    1  A    between atoms: C_1  and  O_2
REMARK    2  A    between atoms: O_2  and  C_3
REMARK    3  A    between atoms: C_6  and  C_7
REMARK    4  A    between atoms: C_21  and  C_22
REMARK    5  A    between atoms: C_22  and  S_23
REMARK    6  A    between atoms: S_23  and  C_24
REMARK                            x       y       z     vdW  Elec       q    Type
REMARK                         _______ _______ _______ _____ _____    ______ ____
ROOT
ATOM      1  C   UNL     1      -0.818  11.305  22.735  0.00  0.00    +0.000 A 
ATOM      2  C   UNL     1      -0.855   9.932  22.961  0.00  0.00    +0.000 A 
ATOM      3  C   UNL     1      -0.119   9.067  22.157  0.00  0.00    +0.000 A 
ATOM      4  C   UNL     1       0.679   9.501  21.048  0.00  0.00    +0.000 A 
ATOM      5  C   UNL     1       0.798  10.897  20.878  0.00  0.00    +0.000 A 
ATOM      6  C   UNL     1       0.046  11.799  21.714  0.00  0.00    +0.000 A 
ENDROOT
BRANCH   4   7
ATOM      7  C   UNL     1       1.089   8.326  20.074  0.00  0.00    +0.000 C 
ATOM      8  N   UNL     1       1.461   9.213  18.940  0.00  0.00    +0.000 NA
ATOM      9  C   UNL     1       1.780   8.632  17.654  0.00  0.00    +0.000 C 
ATOM     10  C   UNL     1       3.095   7.934  17.809  0.00  0.00    +0.000 C 
ATOM     11  C   UNL     1       2.902   6.916  18.850  0.00  0.00    +0.000 A 
ATOM     12  C   UNL     1       2.073   7.047  19.976  0.00  0.00    +0.000 A 
ATOM     13  N   UNL     1       2.167   5.855  20.677  0.00  0.00    +0.000 N 
ATOM     14  C   UNL     1       3.015   5.043  19.947  0.00  0.00    +0.000 A 
ATOM     15  C   UNL     1       3.451   3.707  20.182  0.00  0.00    +0.000 A 
ATOM     16  C   UNL     1       4.294   3.085  19.205  0.00  0.00    +0.000 A 
ATOM     17  C   UNL     1       4.657   3.770  18.038  0.00  0.00    +0.000 A 
ATOM     18  C   UNL     1       4.230   5.077  17.836  0.00  0.00    +0.000 A 
ATOM     19  C   UNL     1       3.429   5.668  18.817  0.00  0.00    +0.000 A 
ATOM     20  H   UNL     1       2.266   9.823  19.241  0.00  0.00    +0.000 HD
ATOM     21  H   UNL     1       1.665   5.579  21.548  0.00  0.00    +0.000 HD
ENDBRANCH   4   7
BRANCH   1  23
ATOM     22  C   UNL     1      -2.999  12.171  23.546  0.00  0.00    +0.000 C 
ATOM     23  O   UNL     1      -1.609  12.165  23.456  0.00  0.00    +0.000 OA
ENDBRANCH   1  23
BRANCH   6  24
ATOM     24  C   UNL     1       0.121  13.292  21.482  0.00  0.00    +0.000 C 
BRANCH  24  25
ATOM     25  S   UNL     1       0.048  13.750  19.710  0.00  0.00    +0.000 S 
BRANCH  25  26
ATOM     26  C   UNL     1      -1.536  13.001  19.334  0.00  0.00    +0.000 A 
ATOM     27  N   UNL     1      -2.651  13.212  20.072  0.00  0.00    +0.000 NA
ATOM     28  C   UNL     1      -3.687  12.473  19.608  0.00  0.00    +0.000 A 
ATOM     29  C   UNL     1      -4.968  12.489  20.155  0.00  0.00    +0.000 A 
ATOM     30  C   UNL     1      -5.959  11.675  19.580  0.00  0.00    +0.000 A 
ATOM     31  C   UNL     1      -5.655  10.853  18.476  0.00  0.00    +0.000 A 
ATOM     32  C   UNL     1      -4.358  10.840  17.936  0.00  0.00    +0.000 A 
ATOM     33  C   UNL     1      -3.395  11.663  18.519  0.00  0.00    +0.000 A 
ATOM     34  S   UNL     1      -1.783  11.870  18.096  0.00  0.00    +0.000 S 
ENDBRANCH  25  26
ENDBRANCH  24  25
ENDBRANCH   6  24
TORSDOF 5
ENDMDL
MODEL 3
REMARK VINA RESULT:      -8.7      1.016      1.340
REMARK  Name = 
REMARK  6 active torsions:
REMARK  status: ('A' for Active; 'I' for Inactive)
REMARK    1  A    between atoms: C_1  and  O_2
REMARK    2  A    between atoms: O_2  and  C_3
REMARK    3  A    between atoms: C_6  and  C_7
REMARK    4  A    between atoms: C_21  and  C_22
REMARK    5  A    between atoms: C_22  and  S_23
REMARK    6  A    between atoms: S_23  and  C_24
REMARK                            x       y       z     vdW  Elec       q    Type
REMARK                         _______ _______ _______ _____ _____    ______ ____
ROOT
ATOM      1  C   UNL     1       2.750   3.719  19.949  0.00  0.00    +0.000 A 
ATOM      2  C   UNL     1       1.946   4.279  20.937  0.00  0.00    +0.000 A 
ATOM      3  C   UNL     1       1.539   5.607  20.846  0.00  0.00    +0.000 A 
ATOM      4  C   UNL     1       1.932   6.485  19.783  0.00  0.00    +0.000 A 
ATOM      5  C   UNL     1       2.664   5.896  18.730  0.00  0.00    +0.000 A 
ATOM      6  C   UNL     1       3.079   4.518  18.815  0.00  0.00    +0.000 A 
ENDROOT
BRANCH   4   7
ATOM      7  C   UNL     1       1.675   8.011  20.104  0.00  0.00    +0.000 C 
ATOM      8  N   UNL     1       1.767   8.465  18.692  0.00  0.00    +0.000 NA
ATOM      9  C   UNL     1       1.763   9.881  18.395  0.00  0.00    +0.000 C 
ATOM     10  C   UNL     1       0.381  10.379  18.681  0.00  0.00    +0.000 C 
ATOM     11  C   UNL     1       0.129  10.105  20.102  0.00  0.00    +0.000 A 
ATOM     12  C   UNL     1       0.604   8.993  20.815  0.00  0.00    +0.000 A 
ATOM     13  N   UNL     1       0.157   9.138  22.119  0.00  0.00    +0.000 N 
ATOM     14  C   UNL     1      -0.540  10.331  22.157  0.00  0.00    +0.000 A 
ATOM     15  C   UNL     1      -1.195  10.988  23.239  0.00  0.00    +0.000 A 
ATOM     16  C   UNL     1      -1.791  12.268  22.996  0.00  0.00    +0.000 A 
ATOM     17  C   UNL     1      -1.707  12.865  21.730  0.00  0.00    +0.000 A 
ATOM     18  C   UNL     1      -1.074  12.199  20.688  0.00  0.00    +0.000 A 
ATOM     19  C   UNL     1      -0.523  10.940  20.946  0.00  0.00    +0.000 A 
ATOM     20  H   UNL     1       0.995   8.005  18.140  0.00  0.00    +0.000 HD
ATOM     21  H   UNL     1       0.344   8.519  22.937  0.00  0.00    +0.000 HD
ENDBRANCH   4   7
BRANCH   1  23
ATOM     22  C   UNL     1       4.339   2.017  20.808  0.00  0.00    +0.000 C 
ATOM     23  O   UNL     1       3.238   2.442  20.068  0.00  0.00    +0.000 OA
ENDBRANCH   1  23
BRANCH   6  24
ATOM     24  C   UNL     1       3.925   3.910  17.717  0.00  0.00    +0.000 C 
BRANCH  24  25
ATOM     25  S   UNL     1       5.722   4.160  17.969  0.00  0.00    +0.000 S 
BRANCH  25  26
ATOM     26  C   UNL     1       6.178   4.373  16.249  0.00  0.00    +0.000 A 
ATOM     27  N   UNL     1       5.707   3.587  15.253  0.00  0.00    +0.000 NA
ATOM     28  C   UNL     1       6.264   3.922  14.065  0.00  0.00    +0.000 A 
ATOM     29  C   UNL     1       5.965   3.300  12.855  0.00  0.00    +0.000 A 
ATOM     30  C   UNL     1       6.612   3.742  11.689  0.00  0.00    +0.000 A 
ATOM     31  C   UNL     1       7.552   4.790  11.748  0.00  0.00    +0.000 A 
ATOM     32  C   UNL     1       7.851   5.407  12.975  0.00  0.00    +0.000 A 
ATOM     33  C   UNL     1       7.189   4.956  14.116  0.00  0.00    +0.000 A 
ATOM     34  S   UNL     1       7.324   5.495  15.702  0.00  0.00    +0.000 S 
ENDBRANCH  25  26
ENDBRANCH  24  25
ENDBRANCH   6  24
TORSDOF 5
ENDMDL
MODEL 4
REMARK VINA RESULT:      -8.5      2.839      3.870
REMARK  Name = 
REMARK  6 active torsions:
REMARK  status: ('A' for Active; 'I' for Inactive)
REMARK    1  A    between atoms: C_1  and  O_2
REMARK    2  A    between atoms: O_2  and  C_3
REMARK    3  A    between atoms: C_6  and  C_7
REMARK    4  A    between atoms: C_21  and  C_22
REMARK    5  A    between atoms: C_22  and  S_23
REMARK    6  A    between atoms: S_23  and  C_24
REMARK                            x       y       z     vdW  Elec       q    Type
REMARK                         _______ _______ _______ _____ _____    ______ ____
ROOT
ATOM      1  C   UNL     1       2.420   6.648  19.909  0.00  0.00    +0.000 A 
ATOM      2  C   UNL     1       1.663   7.593  20.596  0.00  0.00    +0.000 A 
ATOM      3  C   UNL     1       1.244   8.757  19.960  0.00  0.00    +0.000 A 
ATOM      4  C   UNL     1       1.578   9.083  18.604  0.00  0.00    +0.000 A 
ATOM      5  C   UNL     1       2.259   8.085  17.875  0.00  0.00    +0.000 A 
ATOM      6  C   UNL     1       2.687   6.872  18.527  0.00  0.00    +0.000 A 
ENDROOT
BRANCH   4   7
ATOM      7  C   UNL     1       1.328  10.602  18.246  0.00  0.00    +0.000 C 
ATOM      8  N   UNL     1       0.015  10.690  18.935  0.00  0.00    +0.000 NA
ATOM      9  C   UNL     1      -0.790  11.884  18.789  0.00  0.00    +0.000 C 
ATOM     10  C   UNL     1      -0.090  12.972  19.542  0.00  0.00    +0.000 C 
ATOM     11  C   UNL     1       1.237  13.113  18.926  0.00  0.00    +0.000 A 
ATOM     12  C   UNL     1       2.002  12.065  18.390  0.00  0.00    +0.000 A 
ATOM     13  N   UNL     1       3.164  12.637  17.896  0.00  0.00    +0.000 N 
ATOM     14  C   UNL     1       3.051  13.996  18.121  0.00  0.00    +0.000 A 
ATOM     15  C   UNL     1       3.936  15.066  17.800  0.00  0.00    +0.000 A 
ATOM     16  C   UNL     1       3.521  16.404  18.100  0.00  0.00    +0.000 A 
ATOM     17  C   UNL     1       2.266  16.650  18.672  0.00  0.00    +0.000 A 
ATOM     18  C   UNL     1       1.425  15.589  18.988  0.00  0.00    +0.000 A 
ATOM     19  C   UNL     1       1.865  14.292  18.707  0.00  0.00    +0.000 A 
ATOM     20  H   UNL     1       0.162  10.510  19.963  0.00  0.00    +0.000 HD
ATOM     21  H   UNL     1       3.951  12.168  17.398  0.00  0.00    +0.000 HD
ENDBRANCH   4   7
BRANCH   1  23
ATOM     22  C   UNL     1       2.216   4.435  21.015  0.00  0.00    +0.000 C 
ATOM     23  O   UNL     1       2.922   5.540  20.546  0.00  0.00    +0.000 OA
ENDBRANCH   1  23
BRANCH   6  24
ATOM     24  C   UNL     1       3.480   5.836  17.761  0.00  0.00    +0.000 C 
BRANCH  24  25
ATOM     25  S   UNL     1       5.292   6.069  17.899  0.00  0.00    +0.000 S 
BRANCH  25  26
ATOM     26  C   UNL     1       5.745   5.366  16.314  0.00  0.00    +0.000 A 
ATOM     27  N   UNL     1       6.733   5.865  15.535  0.00  0.00    +0.000 NA
ATOM     28  C   UNL     1       6.819   5.188  14.365  0.00  0.00    +0.000 A 
ATOM     29  C   UNL     1       7.750   5.462  13.367  0.00  0.00    +0.000 A 
ATOM     30  C   UNL     1       7.736   4.685  12.196  0.00  0.00    +0.000 A 
ATOM     31  C   UNL     1       6.790   3.653  12.037  0.00  0.00    +0.000 A 
ATOM     32  C   UNL     1       5.850   3.388  13.048  0.00  0.00    +0.000 A 
ATOM     33  C   UNL     1       5.891   4.168  14.203  0.00  0.00    +0.000 A 
ATOM     34  S   UNL     1       4.920   4.086  15.571  0.00  0.00    +0.000 S 
ENDBRANCH  25  26
ENDBRANCH  24  25
ENDBRANCH   6  24
TORSDOF 5
ENDMDL
MODEL 5
REMARK VINA RESULT:      -8.4      1.369      2.227
REMARK  Name = 
REMARK  6 active torsions:
REMARK  status: ('A' for Active; 'I' for Inactive)
REMARK    1  A    between atoms: C_1  and  O_2
REMARK    2  A    between atoms: O_2  and  C_3
REMARK    3  A    between atoms: C_6  and  C_7
REMARK    4  A    between atoms: C_21  and  C_22
REMARK    5  A    between atoms: C_22  and  S_23
REMARK    6  A    between atoms: S_23  and  C_24
REMARK                            x       y       z     vdW  Elec       q    Type
REMARK                         _______ _______ _______ _____ _____    ______ ____
ROOT
ATOM      1  C   UNL     1       4.078   4.085  19.624  0.00  0.00    +0.000 A 
ATOM      2  C   UNL     1       2.704   4.103  19.847  0.00  0.00    +0.000 A 
ATOM      3  C   UNL     1       1.979   5.279  19.678  0.00  0.00    +0.000 A 
ATOM      4  C   UNL     1       2.573   6.530  19.309  0.00  0.00    +0.000 A 
ATOM      5  C   UNL     1       3.946   6.494  18.986  0.00  0.00    +0.000 A 
ATOM      6  C   UNL     1       4.700   5.276  19.149  0.00  0.00    +0.000 A 
ENDROOT
BRANCH   4   7
ATOM      7  C   UNL     1       1.628   7.771  19.563  0.00  0.00    +0.000 C 
ATOM      8  N   UNL     1       1.352   7.443  20.986  0.00  0.00    +0.000 NA
ATOM      9  C   UNL     1       0.360   8.204  21.716  0.00  0.00    +0.000 C 
ATOM     10  C   UNL     1       0.933   9.570  21.928  0.00  0.00    +0.000 C 
ATOM     11  C   UNL     1       1.190  10.123  20.591  0.00  0.00    +0.000 A 
ATOM     12  C   UNL     1       1.604   9.386  19.469  0.00  0.00    +0.000 A 
ATOM     13  N   UNL     1       1.704  10.285  18.420  0.00  0.00    +0.000 N 
ATOM     14  C   UNL     1       1.324  11.514  18.927  0.00  0.00    +0.000 A 
ATOM     15  C   UNL     1       1.217  12.786  18.294  0.00  0.00    +0.000 A 
ATOM     16  C   UNL     1       0.728  13.890  19.064  0.00  0.00    +0.000 A 
ATOM     17  C   UNL     1       0.343  13.712  20.400  0.00  0.00    +0.000 A 
ATOM     18  C   UNL     1       0.468  12.465  21.000  0.00  0.00    +0.000 A 
ATOM     19  C   UNL     1       0.972  11.410  20.232  0.00  0.00    +0.000 A 
ATOM     20  H   UNL     1       2.259   7.477  21.522  0.00  0.00    +0.000 HD
ATOM     21  H   UNL     1       1.954  10.091  17.427  0.00  0.00    +0.000 HD
ENDBRANCH   4   7
BRANCH   1  23
ATOM     22  C   UNL     1       4.456   1.632  19.676  0.00  0.00    +0.000 C 
ATOM     23  O   UNL     1       4.824   2.961  19.876  0.00  0.00    +0.000 OA
ENDBRANCH   1  23
BRANCH   6  24
ATOM     24  C   UNL     1       6.187   5.259  18.870  0.00  0.00    +0.000 C 
BRANCH  24  25
ATOM     25  S   UNL     1       6.716   6.569  17.703  0.00  0.00    +0.000 S 
BRANCH  25  26
ATOM     26  C   UNL     1       6.546   5.623  16.190  0.00  0.00    +0.000 A 
ATOM     27  N   UNL     1       7.413   5.716  15.155  0.00  0.00    +0.000 NA
ATOM     28  C   UNL     1       7.012   4.947  14.114  0.00  0.00    +0.000 A 
ATOM     29  C   UNL     1       7.708   4.826  12.914  0.00  0.00    +0.000 A 
ATOM     30  C   UNL     1       7.185   3.993  11.910  0.00  0.00    +0.000 A 
ATOM     31  C   UNL     1       5.975   3.301  12.115  0.00  0.00    +0.000 A 
ATOM     32  C   UNL     1       5.277   3.435  13.328  0.00  0.00    +0.000 A 
ATOM     33  C   UNL     1       5.822   4.261  14.311  0.00  0.00    +0.000 A 
ATOM     34  S   UNL     1       5.234   4.608  15.846  0.00  0.00    +0.000 S 
ENDBRANCH  25  26
ENDBRANCH  24  25
ENDBRANCH   6  24
TORSDOF 5
ENDMDL
MODEL 6
REMARK VINA RESULT:      -8.4      4.641     10.145
REMARK  Name = 
REMARK  6 active torsions:
REMARK  status: ('A' for Active; 'I' for Inactive)
REMARK    1  A    between atoms: C_1  and  O_2
REMARK    2  A    between atoms: O_2  and  C_3
REMARK    3  A    between atoms: C_6  and  C_7
REMARK    4  A    between atoms: C_21  and  C_22
REMARK    5  A    between atoms: C_22  and  S_23
REMARK    6  A    between atoms: S_23  and  C_24
REMARK                            x       y       z     vdW  Elec       q    Type
REMARK                         _______ _______ _______ _____ _____    ______ ____
ROOT
ATOM      1  C   UNL     1      -0.589  11.035  22.722  0.00  0.00    +0.000 A 
ATOM      2  C   UNL     1      -0.479   9.698  23.093  0.00  0.00    +0.000 A 
ATOM      3  C   UNL     1       0.213   8.798  22.289  0.00  0.00    +0.000 A 
ATOM      4  C   UNL     1       0.817   9.156  21.038  0.00  0.00    +0.000 A 
ATOM      5  C   UNL     1       0.794  10.528  20.708  0.00  0.00    +0.000 A 
ATOM      6  C   UNL     1       0.087  11.466  21.543  0.00  0.00    +0.000 A 
ENDROOT
BRANCH   4   7
ATOM      7  C   UNL     1       1.190   7.907  20.144  0.00  0.00    +0.000 C 
ATOM      8  N   UNL     1       1.743   8.706  19.019  0.00  0.00    +0.000 NA
ATOM      9  C   UNL     1       2.112   8.044  17.786  0.00  0.00    +0.000 C 
ATOM     10  C   UNL     1       3.334   7.231  18.081  0.00  0.00    +0.000 C 
ATOM     11  C   UNL     1       2.953   6.280  19.134  0.00  0.00    +0.000 A 
ATOM     12  C   UNL     1       2.048   6.537  20.177  0.00  0.00    +0.000 A 
ATOM     13  N   UNL     1       1.963   5.372  20.923  0.00  0.00    +0.000 N 
ATOM     14  C   UNL     1       2.786   4.453  20.299  0.00  0.00    +0.000 A 
ATOM     15  C   UNL     1       3.066   3.093  20.616  0.00  0.00    +0.000 A 
ATOM     16  C   UNL     1       3.924   2.352  19.740  0.00  0.00    +0.000 A 
ATOM     17  C   UNL     1       4.451   2.950  18.587  0.00  0.00    +0.000 A 
ATOM     18  C   UNL     1       4.174   4.282  18.305  0.00  0.00    +0.000 A 
ATOM     19  C   UNL     1       3.354   4.988  19.190  0.00  0.00    +0.000 A 
ATOM     20  H   UNL     1       2.577   9.248  19.370  0.00  0.00    +0.000 HD
ATOM     21  H   UNL     1       1.364   5.182  21.754  0.00  0.00    +0.000 HD
ENDBRANCH   4   7
BRANCH   1  23
ATOM     22  C   UNL     1      -2.729  11.918  23.617  0.00  0.00    +0.000 C 
ATOM     23  O   UNL     1      -1.346  11.916  23.453  0.00  0.00    +0.000 OA
ENDBRANCH   1  23
BRANCH   6  24
ATOM     24  C   UNL     1       0.004  12.924  21.147  0.00  0.00    +0.000 C 
BRANCH  24  25
ATOM     25  S   UNL     1      -0.369  13.168  19.370  0.00  0.00    +0.000 S 
BRANCH  25  26
ATOM     26  C   UNL     1      -2.098  12.702  19.422  0.00  0.00    +0.000 A 
ATOM     27  N   UNL     1      -2.681  11.909  18.493  0.00  0.00    +0.000 NA
ATOM     28  C   UNL     1      -4.007  11.772  18.734  0.00  0.00    +0.000 A 
ATOM     29  C   UNL     1      -4.871  11.004  17.956  0.00  0.00    +0.000 A 
ATOM     30  C   UNL     1      -6.228  10.943  18.313  0.00  0.00    +0.000 A 
ATOM     31  C   UNL     1      -6.705  11.654  19.432  0.00  0.00    +0.000 A 
ATOM     32  C   UNL     1      -5.826  12.431  20.207  0.00  0.00    +0.000 A 
ATOM     33  C   UNL     1      -4.482  12.468  19.837  0.00  0.00    +0.000 A 
ATOM     34  S   UNL     1      -3.207  13.288  20.561  0.00  0.00    +0.000 S 
ENDBRANCH  25  26
ENDBRANCH  24  25
ENDBRANCH   6  24
TORSDOF 5
ENDMDL
MODEL 7
REMARK VINA RESULT:      -8.3      4.227     10.584
REMARK  Name = 
REMARK  6 active torsions:
REMARK  status: ('A' for Active; 'I' for Inactive)
REMARK    1  A    between atoms: C_1  and  O_2
REMARK    2  A    between atoms: O_2  and  C_3
REMARK    3  A    between atoms: C_6  and  C_7
REMARK    4  A    between atoms: C_21  and  C_22
REMARK    5  A    between atoms: C_22  and  S_23
REMARK    6  A    between atoms: S_23  and  C_24
REMARK                            x       y       z     vdW  Elec       q    Type
REMARK                         _______ _______ _______ _____ _____    ______ ____
ROOT
ATOM      1  C   UNL     1      -0.083   9.711  21.053  0.00  0.00    +0.000 A 
ATOM      2  C   UNL     1       0.608   8.771  21.811  0.00  0.00    +0.000 A 
ATOM      3  C   UNL     1       1.613   8.000  21.233  0.00  0.00    +0.000 A 
ATOM      4  C   UNL     1       1.978   8.084  19.849  0.00  0.00    +0.000 A 
ATOM      5  C   UNL     1       1.350   9.104  19.102  0.00  0.00    +0.000 A 
ATOM      6  C   UNL     1       0.316   9.912  19.699  0.00  0.00    +0.000 A 
ENDROOT
BRANCH   4   7
ATOM      7  C   UNL     1       2.847   6.860  19.355  0.00  0.00    +0.000 C 
ATOM      8  N   UNL     1       1.725   5.886  19.358  0.00  0.00    +0.000 NA
ATOM      9  C   UNL     1       1.995   4.484  19.126  0.00  0.00    +0.000 C 
ATOM     10  C   UNL     1       2.378   4.350  17.685  0.00  0.00    +0.000 C 
ATOM     11  C   UNL     1       3.570   5.189  17.496  0.00  0.00    +0.000 A 
ATOM     12  C   UNL     1       3.824   6.405  18.150  0.00  0.00    +0.000 A 
ATOM     13  N   UNL     1       5.058   6.846  17.699  0.00  0.00    +0.000 N 
ATOM     14  C   UNL     1       5.516   5.881  16.821  0.00  0.00    +0.000 A 
ATOM     15  C   UNL     1       6.731   5.801  16.082  0.00  0.00    +0.000 A 
ATOM     16  C   UNL     1       6.969   4.633  15.287  0.00  0.00    +0.000 A 
ATOM     17  C   UNL     1       6.036   3.587  15.261  0.00  0.00    +0.000 A 
ATOM     18  C   UNL     1       4.852   3.693  15.981  0.00  0.00    +0.000 A 
ATOM     19  C   UNL     1       4.635   4.855  16.728  0.00  0.00    +0.000 A 
ATOM     20  H   UNL     1       0.999   6.207  18.663  0.00  0.00    +0.000 HD
ATOM     21  H   UNL     1       5.584   7.698  17.991  0.00  0.00    +0.000 HD
ENDBRANCH   4   7
BRANCH   1  23
ATOM     22  C   UNL     1      -1.123  11.290  22.662  0.00  0.00    +0.000 C 
ATOM     23  O   UNL     1      -1.138  10.413  21.580  0.00  0.00    +0.000 OA
ENDBRANCH   1  23
BRANCH   6  24
ATOM     24  C   UNL     1      -0.405  10.955  18.874  0.00  0.00    +0.000 C 
BRANCH  24  25
ATOM     25  S   UNL     1      -1.567  10.234  17.655  0.00  0.00    +0.000 S 
BRANCH  25  26
ATOM     26  C   UNL     1      -3.067  10.996  18.274  0.00  0.00    +0.000 A 
ATOM     27  N   UNL     1      -4.303  10.675  17.825  0.00  0.00    +0.000 NA
ATOM     28  C   UNL     1      -5.248  11.448  18.412  0.00  0.00    +0.000 A 
ATOM     29  C   UNL     1      -6.614  11.341  18.162  0.00  0.00    +0.000 A 
ATOM     30  C   UNL     1      -7.495  12.203  18.837  0.00  0.00    +0.000 A 
ATOM     31  C   UNL     1      -7.000  13.162  19.743  0.00  0.00    +0.000 A 
ATOM     32  C   UNL     1      -5.619  13.266  19.983  0.00  0.00    +0.000 A 
ATOM     33  C   UNL     1      -4.767  12.393  19.308  0.00  0.00    +0.000 A 
ATOM     34  S   UNL     1      -3.094  12.269  19.393  0.00  0.00    +0.000 S 
ENDBRANCH  25  26
ENDBRANCH  24  25
ENDBRANCH   6  24
TORSDOF 5
ENDMDL
MODEL 8
REMARK VINA RESULT:      -8.2      1.134      1.421
REMARK  Name = 
REMARK  6 active torsions:
REMARK  status: ('A' for Active; 'I' for Inactive)
REMARK    1  A    between atoms: C_1  and  O_2
REMARK    2  A    between atoms: O_2  and  C_3
REMARK    3  A    between atoms: C_6  and  C_7
REMARK    4  A    between atoms: C_21  and  C_22
REMARK    5  A    between atoms: C_22  and  S_23
REMARK    6  A    between atoms: S_23  and  C_24
REMARK                            x       y       z     vdW  Elec       q    Type
REMARK                         _______ _______ _______ _____ _____    ______ ____
ROOT
ATOM      1  C   UNL     1       2.861   3.835  17.918  0.00  0.00    +0.000 A 
ATOM      2  C   UNL     1       1.673   4.537  17.736  0.00  0.00    +0.000 A 
ATOM      3  C   UNL     1       1.600   5.891  18.048  0.00  0.00    +0.000 A 
ATOM      4  C   UNL     1       2.694   6.638  18.598  0.00  0.00    +0.000 A 
ATOM      5  C   UNL     1       3.926   5.956  18.690  0.00  0.00    +0.000 A 
ATOM      6  C   UNL     1       4.009   4.556  18.359  0.00  0.00    +0.000 A 
ENDROOT
BRANCH   4   7
ATOM      7  C   UNL     1       2.256   8.022  19.222  0.00  0.00    +0.000 C 
ATOM      8  N   UNL     1       2.090   8.714  17.917  0.00  0.00    +0.000 NA
ATOM      9  C   UNL     1       1.835  10.138  17.890  0.00  0.00    +0.000 C 
ATOM     10  C   UNL     1       0.444  10.337  18.406  0.00  0.00    +0.000 C 
ATOM     11  C   UNL     1       0.427   9.791  19.770  0.00  0.00    +0.000 A 
ATOM     12  C   UNL     1       1.154   8.674  20.211  0.00  0.00    +0.000 A 
ATOM     13  N   UNL     1       0.867   8.521  21.558  0.00  0.00    +0.000 N 
ATOM     14  C   UNL     1       0.011   9.554  21.890  0.00  0.00    +0.000 A 
ATOM     15  C   UNL     1      -0.586   9.900  23.137  0.00  0.00    +0.000 A 
ATOM     16  C   UNL     1      -1.394  11.082  23.199  0.00  0.00    +0.000 A 
ATOM     17  C   UNL     1      -1.569  11.886  22.065  0.00  0.00    +0.000 A 
ATOM     18  C   UNL     1      -0.987  11.521  20.857  0.00  0.00    +0.000 A 
ATOM     19  C   UNL     1      -0.224  10.350  20.818  0.00  0.00    +0.000 A 
ATOM     20  H   UNL     1       1.329   8.227  17.373  0.00  0.00    +0.000 HD
ATOM     21  H   UNL     1       1.252   7.816  22.222  0.00  0.00    +0.000 HD
ENDBRANCH   4   7
BRANCH   1  23
ATOM     22  C   UNL     1       2.683   1.462  18.623  0.00  0.00    +0.000 C 
ATOM     23  O   UNL     1       2.926   2.481  17.705  0.00  0.00    +0.000 OA
ENDBRANCH   1  23
BRANCH   6  24
ATOM     24  C   UNL     1       5.316   3.811  18.528  0.00  0.00    +0.000 C 
BRANCH  24  25
ATOM     25  S   UNL     1       6.787   4.855  18.213  0.00  0.00    +0.000 S 
BRANCH  25  26
ATOM     26  C   UNL     1       6.787   4.736  16.425  0.00  0.00    +0.000 A 
ATOM     27  N   UNL     1       6.028   3.849  15.740  0.00  0.00    +0.000 NA
ATOM     28  C   UNL     1       6.271   3.927  14.410  0.00  0.00    +0.000 A 
ATOM     29  C   UNL     1       5.630   3.148  13.449  0.00  0.00    +0.000 A 
ATOM     30  C   UNL     1       5.973   3.325  12.098  0.00  0.00    +0.000 A 
ATOM     31  C   UNL     1       6.951   4.268  11.727  0.00  0.00    +0.000 A 
ATOM     32  C   UNL     1       7.596   5.045  12.705  0.00  0.00    +0.000 A 
ATOM     33  C   UNL     1       7.232   4.856  14.038  0.00  0.00    +0.000 A 
ATOM     34  S   UNL     1       7.809   5.631  15.413  0.00  0.00    +0.000 S 
ENDBRANCH  25  26
ENDBRANCH  24  25
ENDBRANCH   6  24
TORSDOF 5
ENDMDL
MODEL 9
REMARK VINA RESULT:      -8.2      4.608      9.169
REMARK  Name = 
REMARK  6 active torsions:
REMARK  status: ('A' for Active; 'I' for Inactive)
REMARK    1  A    between atoms: C_1  and  O_2
REMARK    2  A    between atoms: O_2  and  C_3
REMARK    3  A    between atoms: C_6  and  C_7
REMARK    4  A    between atoms: C_21  and  C_22
REMARK    5  A    between atoms: C_22  and  S_23
REMARK    6  A    between atoms: S_23  and  C_24
REMARK                            x       y       z     vdW  Elec       q    Type
REMARK                         _______ _______ _______ _____ _____    ______ ____
ROOT
ATOM      1  C   UNL     1      -0.710  11.371  22.766  0.00  0.00    +0.000 A 
ATOM      2  C   UNL     1      -0.580  10.016  23.057  0.00  0.00    +0.000 A 
ATOM      3  C   UNL     1       0.119   9.174  22.197  0.00  0.00    +0.000 A 
ATOM      4  C   UNL     1       0.709   9.613  20.966  0.00  0.00    +0.000 A 
ATOM      5  C   UNL     1       0.665  11.001  20.716  0.00  0.00    +0.000 A 
ATOM      6  C   UNL     1      -0.049  11.879  21.610  0.00  0.00    +0.000 A 
ENDROOT
BRANCH   4   7
ATOM      7  C   UNL     1       1.092   8.425  19.997  0.00  0.00    +0.000 C 
ATOM      8  N   UNL     1       1.500   9.297  18.865  0.00  0.00    +0.000 NA
ATOM      9  C   UNL     1       1.813   8.705  17.583  0.00  0.00    +0.000 C 
ATOM     10  C   UNL     1       3.106   7.969  17.751  0.00  0.00    +0.000 C 
ATOM     11  C   UNL     1       2.874   6.959  18.792  0.00  0.00    +0.000 A 
ATOM     12  C   UNL     1       2.040   7.117  19.910  0.00  0.00    +0.000 A 
ATOM     13  N   UNL     1       2.092   5.924  20.614  0.00  0.00    +0.000 N 
ATOM     14  C   UNL     1       2.923   5.086  19.893  0.00  0.00    +0.000 A 
ATOM     15  C   UNL     1       3.317   3.739  20.135  0.00  0.00    +0.000 A 
ATOM     16  C   UNL     1       4.151   3.090  19.167  0.00  0.00    +0.000 A 
ATOM     17  C   UNL     1       4.544   3.761  18.002  0.00  0.00    +0.000 A 
ATOM     18  C   UNL     1       4.157   5.080  17.794  0.00  0.00    +0.000 A 
ATOM     19  C   UNL     1       3.364   5.697  18.767  0.00  0.00    +0.000 A 
ATOM     20  H   UNL     1       2.321   9.884  19.172  0.00  0.00    +0.000 HD
ATOM     21  H   UNL     1       1.575   5.665  21.481  0.00  0.00    +0.000 HD
ENDBRANCH   4   7
BRANCH   1  23
ATOM     22  C   UNL     1      -2.858  12.353  23.530  0.00  0.00    +0.000 C 
ATOM     23  O   UNL     1      -1.474  12.196  23.552  0.00  0.00    +0.000 OA
ENDBRANCH   1  23
BRANCH   6  24
ATOM     24  C   UNL     1      -0.154  13.357  21.301  0.00  0.00    +0.000 C 
BRANCH  24  25
ATOM     25  S   UNL     1       0.045  13.737  19.520  0.00  0.00    +0.000 S 
BRANCH  25  26
ATOM     26  C   UNL     1       1.773  14.212  19.570  0.00  0.00    +0.000 A 
ATOM     27  N   UNL     1       2.532  14.368  18.460  0.00  0.00    +0.000 NA
ATOM     28  C   UNL     1       3.814  14.662  18.786  0.00  0.00    +0.000 A 
ATOM     29  C   UNL     1       4.826  14.892  17.856  0.00  0.00    +0.000 A 
ATOM     30  C   UNL     1       6.117  15.189  18.323  0.00  0.00    +0.000 A 
ATOM     31  C   UNL     1       6.381  15.243  19.706  0.00  0.00    +0.000 A 
ATOM     32  C   UNL     1       5.354  15.003  20.636  0.00  0.00    +0.000 A 
ATOM     33  C   UNL     1       4.079  14.719  20.146  0.00  0.00    +0.000 A 
ATOM     34  S   UNL     1       2.666  14.403  20.997  0.00  0.00    +0.000 S 
ENDBRANCH  25  26
ENDBRANCH  24  25
ENDBRANCH   6  24
TORSDOF 5
ENDMDL
