MODEL 1
REMARK VINA RESULT:      -8.2      0.000      0.000
REMARK  Name = 
REMARK  7 active torsions:
REMARK  status: ('A' for Active; 'I' for Inactive)
REMARK    1  A    between atoms: C_1  and  N_2
REMARK    2  A    between atoms: N_2  and  C_3
REMARK    3  A    between atoms: C_4  and  C_6
REMARK    4  A    between atoms: C_9  and  N_10
REMARK    5  A    between atoms: N_11  and  C_12
REMARK    6  A    between atoms: C_13  and  O_14
REMARK    7  A    between atoms: C_22  and  O_23
REMARK                            x       y       z     vdW  Elec       q    Type
REMARK                         _______ _______ _______ _____ _____    ______ ____
ROOT
ATOM      1  C   UNL     1       7.167   6.572  17.589  0.00  0.00    +0.000 A 
ATOM      2  C   UNL     1       7.402   5.616  18.579  0.00  0.00    +0.000 A 
ATOM      3  N   UNL     1       6.680   4.493  18.768  0.00  0.00    +0.000 NA
ATOM      4  C   UNL     1       5.433   4.529  18.300  0.00  0.00    +0.000 A 
ATOM      5  C   UNL     1       4.538   3.539  18.675  0.00  0.00    +0.000 A 
ATOM      6  C   UNL     1       3.166   3.785  18.653  0.00  0.00    +0.000 A 
ATOM      7  C   UNL     1       2.692   5.004  18.199  0.00  0.00    +0.000 A 
ATOM      8  C   UNL     1       3.570   5.884  17.562  0.00  0.00    +0.000 A 
ATOM      9  C   UNL     1       4.952   5.614  17.553  0.00  0.00    +0.000 A 
ATOM     10  C   UNL     1       5.929   6.448  16.978  0.00  0.00    +0.000 A 
ENDROOT
BRANCH   1  12
ATOM     11  N   UNL     1       8.345   8.220  18.505  0.00  0.00    +0.000 NA
ATOM     12  N   UNL     1       7.919   7.763  17.422  0.00  0.00    +0.000 NA
BRANCH  11  16
ATOM     13  C   UNL     1       9.276  12.380  18.447  0.00  0.00    +0.000 A 
ATOM     14  C   UNL     1       9.888  11.506  19.347  0.00  0.00    +0.000 A 
ATOM     15  C   UNL     1       9.591  10.139  19.326  0.00  0.00    +0.000 A 
ATOM     16  C   UNL     1       8.638   9.602  18.432  0.00  0.00    +0.000 A 
ATOM     17  C   UNL     1       8.012  10.490  17.547  0.00  0.00    +0.000 A 
ATOM     18  C   UNL     1       8.317  11.862  17.566  0.00  0.00    +0.000 A 
BRANCH  13  22
ATOM     19  C   UNL     1      10.663  15.906  17.914  0.00  0.00    +0.000 C 
ATOM     20  N   UNL     1      10.536  14.462  17.783  0.00  0.00    +0.000 N 
ATOM     21  C   UNL     1      11.363  13.814  16.778  0.00  0.00    +0.000 C 
ATOM     22  C   UNL     1       9.485  13.858  18.479  0.00  0.00    +0.000 C 
ATOM     23  O   UNL     1       8.678  14.516  19.137  0.00  0.00    +0.000 OA
ENDBRANCH  13  22
ENDBRANCH  11  16
ENDBRANCH   1  12
BRANCH   2  24
ATOM     24  O   UNL     1       8.185   5.943  19.659  0.00  0.00    +0.000 OA
ATOM     25  H   UNL     1       9.013   6.249  19.245  0.00  0.00    +0.000 HD
ENDBRANCH   2  24
BRANCH  10  26
ATOM     26  O   UNL     1       5.636   7.129  15.827  0.00  0.00    +0.000 OA
ATOM     27  H   UNL     1       5.548   6.437  15.138  0.00  0.00    +0.000 HD
ENDBRANCH  10  26
TORSDOF 5
ENDMDL
MODEL 2
REMARK VINA RESULT:      -8.0      0.865      1.542
REMARK  Name = 
REMARK  7 active torsions:
REMARK  status: ('A' for Active; 'I' for Inactive)
REMARK    1  A    between atoms: C_1  and  N_2
REMARK    2  A    between atoms: N_2  and  C_3
REMARK    3  A    between atoms: C_4  and  C_6
REMARK    4  A    between atoms: C_9  and  N_10
REMARK    5  A    between atoms: N_11  and  C_12
REMARK    6  A    between atoms: C_13  and  O_14
REMARK    7  A    between atoms: C_22  and  O_23
REMARK                            x       y       z     vdW  Elec       q    Type
REMARK                         _______ _______ _______ _____ _____    ______ ____
ROOT
ATOM      1  C   UNL     1       7.127   6.644  17.619  0.00  0.00    +0.000 A 
ATOM      2  C   UNL     1       7.408   5.671  18.580  0.00  0.00    +0.000 A 
ATOM      3  N   UNL     1       6.717   4.528  18.761  0.00  0.00    +0.000 NA
ATOM      4  C   UNL     1       5.458   4.546  18.325  0.00  0.00    +0.000 A 
ATOM      5  C   UNL     1       4.594   3.527  18.699  0.00  0.00    +0.000 A 
ATOM      6  C   UNL     1       3.218   3.742  18.716  0.00  0.00    +0.000 A 
ATOM      7  C   UNL     1       2.705   4.960  18.302  0.00  0.00    +0.000 A 
ATOM      8  C   UNL     1       3.547   5.874  17.665  0.00  0.00    +0.000 A 
ATOM      9  C   UNL     1       4.933   5.636  17.615  0.00  0.00    +0.000 A 
ATOM     10  C   UNL     1       5.877   6.506  17.036  0.00  0.00    +0.000 A 
ENDROOT
BRANCH   1  12
ATOM     11  N   UNL     1       8.411   8.222  18.515  0.00  0.00    +0.000 NA
ATOM     12  N   UNL     1       7.848   7.856  17.461  0.00  0.00    +0.000 NA
BRANCH  11  16
ATOM     13  C   UNL     1       9.202  12.410  18.389  0.00  0.00    +0.000 A 
ATOM     14  C   UNL     1       8.316  11.805  17.496  0.00  0.00    +0.000 A 
ATOM     15  C   UNL     1       8.048  10.435  17.577  0.00  0.00    +0.000 A 
ATOM     16  C   UNL     1       8.688   9.609  18.528  0.00  0.00    +0.000 A 
ATOM     17  C   UNL     1       9.593  10.220  19.406  0.00  0.00    +0.000 A 
ATOM     18  C   UNL     1       9.857  11.599  19.327  0.00  0.00    +0.000 A 
BRANCH  13  22
ATOM     19  C   UNL     1       9.294  16.221  18.712  0.00  0.00    +0.000 C 
ATOM     20  N   UNL     1       8.833  14.853  18.896  0.00  0.00    +0.000 N 
ATOM     21  C   UNL     1       7.764  14.639  19.858  0.00  0.00    +0.000 C 
ATOM     22  C   UNL     1       9.596  13.846  18.297  0.00  0.00    +0.000 C 
ATOM     23  O   UNL     1      10.632  14.097  17.678  0.00  0.00    +0.000 OA
ENDBRANCH  13  22
ENDBRANCH  11  16
ENDBRANCH   1  12
BRANCH   2  24
ATOM     24  O   UNL     1       8.210   5.992  19.648  0.00  0.00    +0.000 OA
ATOM     25  H   UNL     1       8.312   6.958  19.563  0.00  0.00    +0.000 HD
ENDBRANCH   2  24
BRANCH  10  26
ATOM     26  O   UNL     1       5.540   7.206  15.908  0.00  0.00    +0.000 OA
ATOM     27  H   UNL     1       5.346   8.113  16.222  0.00  0.00    +0.000 HD
ENDBRANCH  10  26
TORSDOF 5
ENDMDL
MODEL 3
REMARK VINA RESULT:      -7.7      7.223     10.200
REMARK  Name = 
REMARK  7 active torsions:
REMARK  status: ('A' for Active; 'I' for Inactive)
REMARK    1  A    between atoms: C_1  and  N_2
REMARK    2  A    between atoms: N_2  and  C_3
REMARK    3  A    between atoms: C_4  and  C_6
REMARK    4  A    between atoms: C_9  and  N_10
REMARK    5  A    between atoms: N_11  and  C_12
REMARK    6  A    between atoms: C_13  and  O_14
REMARK    7  A    between atoms: C_22  and  O_23
REMARK                            x       y       z     vdW  Elec       q    Type
REMARK                         _______ _______ _______ _____ _____    ______ ____
ROOT
ATOM      1  C   UNL     1       0.137  10.599  21.473  0.00  0.00    +0.000 A 
ATOM      2  C   UNL     1       0.508  11.867  21.022  0.00  0.00    +0.000 A 
ATOM      3  N   UNL     1       0.341  13.019  21.702  0.00  0.00    +0.000 NA
ATOM      4  C   UNL     1      -0.623  13.005  22.622  0.00  0.00    +0.000 A 
ATOM      5  C   UNL     1      -1.047  14.201  23.180  0.00  0.00    +0.000 A 
ATOM      6  C   UNL     1      -2.326  14.312  23.721  0.00  0.00    +0.000 A 
ATOM      7  C   UNL     1      -3.158  13.205  23.755  0.00  0.00    +0.000 A 
ATOM      8  C   UNL     1      -2.633  11.947  23.455  0.00  0.00    +0.000 A 
ATOM      9  C   UNL     1      -1.326  11.835  22.943  0.00  0.00    +0.000 A 
ATOM     10  C   UNL     1      -0.711  10.624  22.570  0.00  0.00    +0.000 A 
ENDROOT
BRANCH   1  12
ATOM     11  N   UNL     1       1.125   8.620  21.248  0.00  0.00    +0.000 NA
ATOM     12  N   UNL     1       0.295   9.399  20.732  0.00  0.00    +0.000 NA
BRANCH  11  16
ATOM     13  C   UNL     1       2.782   5.754  18.561  0.00  0.00    +0.000 A 
ATOM     14  C   UNL     1       2.399   5.406  19.857  0.00  0.00    +0.000 A 
ATOM     15  C   UNL     1       1.827   6.356  20.711  0.00  0.00    +0.000 A 
ATOM     16  C   UNL     1       1.657   7.701  20.313  0.00  0.00    +0.000 A 
ATOM     17  C   UNL     1       2.065   8.047  19.019  0.00  0.00    +0.000 A 
ATOM     18  C   UNL     1       2.633   7.089  18.160  0.00  0.00    +0.000 A 
BRANCH  13  22
ATOM     19  C   UNL     1       5.415   3.951  16.451  0.00  0.00    +0.000 C 
ATOM     20  N   UNL     1       4.851   4.903  17.397  0.00  0.00    +0.000 N 
ATOM     21  C   UNL     1       5.788   5.708  18.164  0.00  0.00    +0.000 C 
ATOM     22  C   UNL     1       3.477   4.810  17.637  0.00  0.00    +0.000 C 
ATOM     23  O   UNL     1       2.782   3.940  17.111  0.00  0.00    +0.000 OA
ENDBRANCH  13  22
ENDBRANCH  11  16
ENDBRANCH   1  12
BRANCH   2  24
ATOM     24  O   UNL     1       0.754  12.060  19.684  0.00  0.00    +0.000 OA
ATOM     25  H   UNL     1      -0.126  12.284  19.330  0.00  0.00    +0.000 HD
ENDBRANCH   2  24
BRANCH  10  26
ATOM     26  O   UNL     1      -0.967   9.491  23.294  0.00  0.00    +0.000 OA
ATOM     27  H   UNL     1      -0.085   9.123  23.510  0.00  0.00    +0.000 HD
ENDBRANCH  10  26
TORSDOF 5
ENDMDL
MODEL 4
REMARK VINA RESULT:      -7.6      7.019     10.691
REMARK  Name = 
REMARK  7 active torsions:
REMARK  status: ('A' for Active; 'I' for Inactive)
REMARK    1  A    between atoms: C_1  and  N_2
REMARK    2  A    between atoms: N_2  and  C_3
REMARK    3  A    between atoms: C_4  and  C_6
REMARK    4  A    between atoms: C_9  and  N_10
REMARK    5  A    between atoms: N_11  and  C_12
REMARK    6  A    between atoms: C_13  and  O_14
REMARK    7  A    between atoms: C_22  and  O_23
REMARK                            x       y       z     vdW  Elec       q    Type
REMARK                         _______ _______ _______ _____ _____    ______ ____
ROOT
ATOM      1  C   UNL     1       0.317  10.052  21.299  0.00  0.00    +0.000 A 
ATOM      2  C   UNL     1       0.092  10.915  20.225  0.00  0.00    +0.000 A 
ATOM      3  N   UNL     1      -0.325  12.193  20.322  0.00  0.00    +0.000 NA
ATOM      4  C   UNL     1      -0.987  12.494  21.437  0.00  0.00    +0.000 A 
ATOM      5  C   UNL     1      -1.680  13.693  21.513  0.00  0.00    +0.000 A 
ATOM      6  C   UNL     1      -2.758  13.830  22.386  0.00  0.00    +0.000 A 
ATOM      7  C   UNL     1      -3.102  12.783  23.225  0.00  0.00    +0.000 A 
ATOM      8  C   UNL     1      -2.237  11.694  23.348  0.00  0.00    +0.000 A 
ATOM      9  C   UNL     1      -1.128  11.577  22.489  0.00  0.00    +0.000 A 
ATOM     10  C   UNL     1      -0.216  10.504  22.497  0.00  0.00    +0.000 A 
ENDROOT
BRANCH   1  12
ATOM     11  N   UNL     1       1.734   8.566  20.447  0.00  0.00    +0.000 NA
ATOM     12  N   UNL     1       0.729   8.700  21.177  0.00  0.00    +0.000 NA
BRANCH  11  16
ATOM     13  C   UNL     1       2.088   4.568  19.010  0.00  0.00    +0.000 A 
ATOM     14  C   UNL     1       1.577   4.847  20.279  0.00  0.00    +0.000 A 
ATOM     15  C   UNL     1       1.441   6.169  20.717  0.00  0.00    +0.000 A 
ATOM     16  C   UNL     1       1.849   7.259  19.918  0.00  0.00    +0.000 A 
ATOM     17  C   UNL     1       2.382   6.970  18.655  0.00  0.00    +0.000 A 
ATOM     18  C   UNL     1       2.512   5.641  18.214  0.00  0.00    +0.000 A 
BRANCH  13  22
ATOM     19  C   UNL     1       3.710   1.200  18.194  0.00  0.00    +0.000 C 
ATOM     20  N   UNL     1       3.564   2.540  18.744  0.00  0.00    +0.000 N 
ATOM     21  C   UNL     1       4.603   2.999  19.651  0.00  0.00    +0.000 C 
ATOM     22  C   UNL     1       2.341   3.180  18.523  0.00  0.00    +0.000 C 
ATOM     23  O   UNL     1       1.415   2.625  17.930  0.00  0.00    +0.000 OA
ENDBRANCH  13  22
ENDBRANCH  11  16
ENDBRANCH   1  12
BRANCH   2  24
ATOM     24  O   UNL     1      -0.053  10.393  18.962  0.00  0.00    +0.000 OA
ATOM     25  H   UNL     1      -0.795   9.768  19.067  0.00  0.00    +0.000 HD
ENDBRANCH   2  24
BRANCH  10  26
ATOM     26  O   UNL     1       0.124   9.922  23.688  0.00  0.00    +0.000 OA
ATOM     27  H   UNL     1       0.831  10.492  24.056  0.00  0.00    +0.000 HD
ENDBRANCH  10  26
TORSDOF 5
ENDMDL
MODEL 5
REMARK VINA RESULT:      -7.6      6.734     10.410
REMARK  Name = 
REMARK  7 active torsions:
REMARK  status: ('A' for Active; 'I' for Inactive)
REMARK    1  A    between atoms: C_1  and  N_2
REMARK    2  A    between atoms: N_2  and  C_3
REMARK    3  A    between atoms: C_4  and  C_6
REMARK    4  A    between atoms: C_9  and  N_10
REMARK    5  A    between atoms: N_11  and  C_12
REMARK    6  A    between atoms: C_13  and  O_14
REMARK    7  A    between atoms: C_22  and  O_23
REMARK                            x       y       z     vdW  Elec       q    Type
REMARK                         _______ _______ _______ _____ _____    ______ ____
ROOT
ATOM      1  C   UNL     1       0.062   9.667  21.524  0.00  0.00    +0.000 A 
ATOM      2  C   UNL     1      -0.203  10.230  22.774  0.00  0.00    +0.000 A 
ATOM      3  N   UNL     1      -0.615  11.495  22.991  0.00  0.00    +0.000 NA
ATOM      4  C   UNL     1      -0.313  12.367  22.030  0.00  0.00    +0.000 A 
ATOM      5  C   UNL     1      -0.455  13.725  22.276  0.00  0.00    +0.000 A 
ATOM      6  C   UNL     1       0.293  14.653  21.554  0.00  0.00    +0.000 A 
ATOM      7  C   UNL     1       1.138  14.222  20.545  0.00  0.00    +0.000 A 
ATOM      8  C   UNL     1       1.066  12.895  20.114  0.00  0.00    +0.000 A 
ATOM      9  C   UNL     1       0.280  11.968  20.824  0.00  0.00    +0.000 A 
ATOM     10  C   UNL     1       0.166  10.601  20.504  0.00  0.00    +0.000 A 
ENDROOT
BRANCH   1  12
ATOM     11  N   UNL     1       1.628   8.303  20.733  0.00  0.00    +0.000 NA
ATOM     12  N   UNL     1       0.523   8.342  21.315  0.00  0.00    +0.000 NA
BRANCH  11  16
ATOM     13  C   UNL     1       2.293   4.498  18.927  0.00  0.00    +0.000 A 
ATOM     14  C   UNL     1       1.577   4.628  20.119  0.00  0.00    +0.000 A 
ATOM     15  C   UNL     1       1.344   5.889  20.676  0.00  0.00    +0.000 A 
ATOM     16  C   UNL     1       1.854   7.066  20.084  0.00  0.00    +0.000 A 
ATOM     17  C   UNL     1       2.590   6.926  18.900  0.00  0.00    +0.000 A 
ATOM     18  C   UNL     1       2.818   5.657  18.338  0.00  0.00    +0.000 A 
BRANCH  13  22
ATOM     19  C   UNL     1       3.937   1.120  18.203  0.00  0.00    +0.000 C 
ATOM     20  N   UNL     1       3.651   2.373  18.887  0.00  0.00    +0.000 N 
ATOM     21  C   UNL     1       4.264   2.571  20.190  0.00  0.00    +0.000 C 
ATOM     22  C   UNL     1       2.650   3.177  18.332  0.00  0.00    +0.000 C 
ATOM     23  O   UNL     1       2.010   2.826  17.340  0.00  0.00    +0.000 OA
ENDBRANCH  13  22
ENDBRANCH  11  16
ENDBRANCH   1  12
BRANCH   2  24
ATOM     24  O   UNL     1       0.287   9.620  23.903  0.00  0.00    +0.000 OA
ATOM     25  H   UNL     1       0.954  10.254  24.225  0.00  0.00    +0.000 HD
ENDBRANCH   2  24
BRANCH  10  26
ATOM     26  O   UNL     1       0.167  10.218  19.190  0.00  0.00    +0.000 OA
ATOM     27  H   UNL     1      -0.567   9.574  19.113  0.00  0.00    +0.000 HD
ENDBRANCH  10  26
TORSDOF 5
ENDMDL
MODEL 6
REMARK VINA RESULT:      -7.6      7.004     10.542
REMARK  Name = 
REMARK  7 active torsions:
REMARK  status: ('A' for Active; 'I' for Inactive)
REMARK    1  A    between atoms: C_1  and  N_2
REMARK    2  A    between atoms: N_2  and  C_3
REMARK    3  A    between atoms: C_4  and  C_6
REMARK    4  A    between atoms: C_9  and  N_10
REMARK    5  A    between atoms: N_11  and  C_12
REMARK    6  A    between atoms: C_13  and  O_14
REMARK    7  A    between atoms: C_22  and  O_23
REMARK                            x       y       z     vdW  Elec       q    Type
REMARK                         _______ _______ _______ _____ _____    ______ ____
ROOT
ATOM      1  C   UNL     1       0.366  10.239  21.708  0.00  0.00    +0.000 A 
ATOM      2  C   UNL     1      -0.378  10.198  22.888  0.00  0.00    +0.000 A 
ATOM      3  N   UNL     1      -1.255  11.138  23.292  0.00  0.00    +0.000 NA
ATOM      4  C   UNL     1      -1.062  12.356  22.787  0.00  0.00    +0.000 A 
ATOM      5  C   UNL     1      -1.736  13.435  23.338  0.00  0.00    +0.000 A 
ATOM      6  C   UNL     1      -1.218  14.724  23.219  0.00  0.00    +0.000 A 
ATOM      7  C   UNL     1      -0.056  14.935  22.497  0.00  0.00    +0.000 A 
ATOM      8  C   UNL     1       0.459  13.900  21.713  0.00  0.00    +0.000 A 
ATOM      9  C   UNL     1      -0.090  12.608  21.808  0.00  0.00    +0.000 A 
ATOM     10  C   UNL     1       0.375  11.484  21.097  0.00  0.00    +0.000 A 
ENDROOT
BRANCH   1  12
ATOM     11  N   UNL     1       1.233   8.978  20.094  0.00  0.00    +0.000 NA
ATOM     12  N   UNL     1       1.308   9.254  21.311  0.00  0.00    +0.000 NA
BRANCH  11  16
ATOM     13  C   UNL     1       2.858   5.107  19.354  0.00  0.00    +0.000 A 
ATOM     14  C   UNL     1       2.168   5.398  20.532  0.00  0.00    +0.000 A 
ATOM     15  C   UNL     1       1.615   6.666  20.739  0.00  0.00    +0.000 A 
ATOM     16  C   UNL     1       1.769   7.704  19.794  0.00  0.00    +0.000 A 
ATOM     17  C   UNL     1       2.483   7.411  18.624  0.00  0.00    +0.000 A 
ATOM     18  C   UNL     1       3.032   6.133  18.415  0.00  0.00    +0.000 A 
BRANCH  13  22
ATOM     19  C   UNL     1       3.599   1.429  18.603  0.00  0.00    +0.000 C 
ATOM     20  N   UNL     1       2.828   2.651  18.780  0.00  0.00    +0.000 N 
ATOM     21  C   UNL     1       1.431   2.616  18.380  0.00  0.00    +0.000 C 
ATOM     22  C   UNL     1       3.545   3.804  19.115  0.00  0.00    +0.000 C 
ATOM     23  O   UNL     1       4.773   3.799  19.215  0.00  0.00    +0.000 OA
ENDBRANCH  13  22
ENDBRANCH  11  16
ENDBRANCH   1  12
BRANCH   2  24
ATOM     24  O   UNL     1       0.006   9.348  23.896  0.00  0.00    +0.000 OA
ATOM     25  H   UNL     1       0.080   9.941  24.667  0.00  0.00    +0.000 HD
ENDBRANCH   2  24
BRANCH  10  26
ATOM     26  O   UNL     1       0.833  11.643  19.817  0.00  0.00    +0.000 OA
ATOM     27  H   UNL     1       0.807  12.609  19.657  0.00  0.00    +0.000 HD
ENDBRANCH  10  26
TORSDOF 5
ENDMDL
MODEL 7
REMARK VINA RESULT:      -7.6      7.065     10.774
REMARK  Name = 
REMARK  7 active torsions:
REMARK  status: ('A' for Active; 'I' for Inactive)
REMARK    1  A    between atoms: C_1  and  N_2
REMARK    2  A    between atoms: N_2  and  C_3
REMARK    3  A    between atoms: C_4  and  C_6
REMARK    4  A    between atoms: C_9  and  N_10
REMARK    5  A    between atoms: N_11  and  C_12
REMARK    6  A    between atoms: C_13  and  O_14
REMARK    7  A    between atoms: C_22  and  O_23
REMARK                            x       y       z     vdW  Elec       q    Type
REMARK                         _______ _______ _______ _____ _____    ______ ____
ROOT
ATOM      1  C   UNL     1      -0.151  10.158  21.114  0.00  0.00    +0.000 A 
ATOM      2  C   UNL     1      -0.524  10.918  20.004  0.00  0.00    +0.000 A 
ATOM      3  N   UNL     1      -0.960  12.193  20.041  0.00  0.00    +0.000 NA
ATOM      4  C   UNL     1      -1.491  12.583  21.198  0.00  0.00    +0.000 A 
ATOM      5  C   UNL     1      -2.201  13.773  21.254  0.00  0.00    +0.000 A 
ATOM      6  C   UNL     1      -3.169  13.971  22.237  0.00  0.00    +0.000 A 
ATOM      7  C   UNL     1      -3.383  12.997  23.199  0.00  0.00    +0.000 A 
ATOM      8  C   UNL     1      -2.481  11.936  23.309  0.00  0.00    +0.000 A 
ATOM      9  C   UNL     1      -1.481  11.760  22.334  0.00  0.00    +0.000 A 
ATOM     10  C   UNL     1      -0.547  10.707  22.324  0.00  0.00    +0.000 A 
ENDROOT
BRANCH   1  12
ATOM     11  N   UNL     1       1.478   8.695  20.725  0.00  0.00    +0.000 NA
ATOM     12  N   UNL     1       0.279   8.806  21.060  0.00  0.00    +0.000 NA
BRANCH  11  16
ATOM     13  C   UNL     1       2.367   4.919  18.955  0.00  0.00    +0.000 A 
ATOM     14  C   UNL     1       2.680   6.119  18.315  0.00  0.00    +0.000 A 
ATOM     15  C   UNL     1       2.408   7.346  18.929  0.00  0.00    +0.000 A 
ATOM     16  C   UNL     1       1.773   7.419  20.189  0.00  0.00    +0.000 A 
ATOM     17  C   UNL     1       1.442   6.210  20.815  0.00  0.00    +0.000 A 
ATOM     18  C   UNL     1       1.722   4.978  20.198  0.00  0.00    +0.000 A 
BRANCH  13  22
ATOM     19  C   UNL     1       3.658   1.441  18.019  0.00  0.00    +0.000 C 
ATOM     20  N   UNL     1       3.549   2.702  18.738  0.00  0.00    +0.000 N 
ATOM     21  C   UNL     1       4.329   2.836  19.958  0.00  0.00    +0.000 C 
ATOM     22  C   UNL     1       2.551   3.584  18.314  0.00  0.00    +0.000 C 
ATOM     23  O   UNL     1       1.771   3.295  17.405  0.00  0.00    +0.000 OA
ENDBRANCH  13  22
ENDBRANCH  11  16
ENDBRANCH   1  12
BRANCH   2  24
ATOM     24  O   UNL     1      -0.807  10.284  18.819  0.00  0.00    +0.000 OA
ATOM     25  H   UNL     1      -1.562  10.793  18.471  0.00  0.00    +0.000 HD
ENDBRANCH   2  24
BRANCH  10  26
ATOM     26  O   UNL     1      -0.052  10.237  23.511  0.00  0.00    +0.000 OA
ATOM     27  H   UNL     1      -0.227   9.274  23.495  0.00  0.00    +0.000 HD
ENDBRANCH  10  26
TORSDOF 5
ENDMDL
MODEL 8
REMARK VINA RESULT:      -7.6      1.393      1.478
REMARK  Name = 
REMARK  7 active torsions:
REMARK  status: ('A' for Active; 'I' for Inactive)
REMARK    1  A    between atoms: C_1  and  N_2
REMARK    2  A    between atoms: N_2  and  C_3
REMARK    3  A    between atoms: C_4  and  C_6
REMARK    4  A    between atoms: C_9  and  N_10
REMARK    5  A    between atoms: N_11  and  C_12
REMARK    6  A    between atoms: C_13  and  O_14
REMARK    7  A    between atoms: C_22  and  O_23
REMARK                            x       y       z     vdW  Elec       q    Type
REMARK                         _______ _______ _______ _____ _____    ______ ____
ROOT
ATOM      1  C   UNL     1       6.271   6.318  16.772  0.00  0.00    +0.000 A 
ATOM      2  C   UNL     1       6.627   4.997  16.496  0.00  0.00    +0.000 A 
ATOM      3  N   UNL     1       5.783   3.946  16.486  0.00  0.00    +0.000 NA
ATOM      4  C   UNL     1       4.677   4.094  17.214  0.00  0.00    +0.000 A 
ATOM      5  C   UNL     1       3.886   2.987  17.481  0.00  0.00    +0.000 A 
ATOM      6  C   UNL     1       3.056   2.967  18.601  0.00  0.00    +0.000 A 
ATOM      7  C   UNL     1       2.977   4.081  19.419  0.00  0.00    +0.000 A 
ATOM      8  C   UNL     1       3.550   5.282  18.995  0.00  0.00    +0.000 A 
ATOM      9  C   UNL     1       4.358   5.307  17.841  0.00  0.00    +0.000 A 
ATOM     10  C   UNL     1       5.016   6.449  17.346  0.00  0.00    +0.000 A 
ENDROOT
BRANCH   1  12
ATOM     11  N   UNL     1       7.708   7.559  17.928  0.00  0.00    +0.000 NA
ATOM     12  N   UNL     1       7.178   7.409  16.807  0.00  0.00    +0.000 NA
BRANCH  11  16
ATOM     13  C   UNL     1       9.188  11.485  18.691  0.00  0.00    +0.000 A 
ATOM     14  C   UNL     1       9.533  10.402  19.502  0.00  0.00    +0.000 A 
ATOM     15  C   UNL     1       9.061   9.117  19.213  0.00  0.00    +0.000 A 
ATOM     16  C   UNL     1       8.192   8.874  18.127  0.00  0.00    +0.000 A 
ATOM     17  C   UNL     1       7.832   9.970  17.332  0.00  0.00    +0.000 A 
ATOM     18  C   UNL     1       8.312  11.259  17.620  0.00  0.00    +0.000 A 
BRANCH  13  22
ATOM     19  C   UNL     1      11.017  14.843  18.801  0.00  0.00    +0.000 C 
ATOM     20  N   UNL     1      10.705  13.479  18.401  0.00  0.00    +0.000 N 
ATOM     21  C   UNL     1      11.439  12.936  17.270  0.00  0.00    +0.000 C 
ATOM     22  C   UNL     1       9.585  12.890  18.998  0.00  0.00    +0.000 C 
ATOM     23  O   UNL     1       8.872  13.506  19.791  0.00  0.00    +0.000 OA
ENDBRANCH  13  22
ENDBRANCH  11  16
ENDBRANCH   1  12
BRANCH   2  24
ATOM     24  O   UNL     1       7.948   4.629  16.561  0.00  0.00    +0.000 OA
ATOM     25  H   UNL     1       8.264   5.083  17.363  0.00  0.00    +0.000 HD
ENDBRANCH   2  24
BRANCH  10  26
ATOM     26  O   UNL     1       4.406   7.671  17.447  0.00  0.00    +0.000 OA
ATOM     27  H   UNL     1       3.831   7.602  18.237  0.00  0.00    +0.000 HD
ENDBRANCH  10  26
TORSDOF 5
ENDMDL
MODEL 9
REMARK VINA RESULT:      -7.5      7.759     10.580
REMARK  Name = 
REMARK  7 active torsions:
REMARK  status: ('A' for Active; 'I' for Inactive)
REMARK    1  A    between atoms: C_1  and  N_2
REMARK    2  A    between atoms: N_2  and  C_3
REMARK    3  A    between atoms: C_4  and  C_6
REMARK    4  A    between atoms: C_9  and  N_10
REMARK    5  A    between atoms: N_11  and  C_12
REMARK    6  A    between atoms: C_13  and  O_14
REMARK    7  A    between atoms: C_22  and  O_23
REMARK                            x       y       z     vdW  Elec       q    Type
REMARK                         _______ _______ _______ _____ _____    ______ ____
ROOT
ATOM      1  C   UNL     1      -0.194  11.293  21.695  0.00  0.00    +0.000 A 
ATOM      2  C   UNL     1      -1.034  10.862  22.723  0.00  0.00    +0.000 A 
ATOM      3  N   UNL     1      -1.999  11.601  23.306  0.00  0.00    +0.000 NA
ATOM      4  C   UNL     1      -1.837  12.920  23.224  0.00  0.00    +0.000 A 
ATOM      5  C   UNL     1      -2.621  13.751  24.011  0.00  0.00    +0.000 A 
ATOM      6  C   UNL     1      -2.175  15.028  24.349  0.00  0.00    +0.000 A 
ATOM      7  C   UNL     1      -0.969  15.491  23.849  0.00  0.00    +0.000 A 
ATOM      8  C   UNL     1      -0.326  14.770  22.841  0.00  0.00    +0.000 A 
ATOM      9  C   UNL     1      -0.801  13.496  22.475  0.00  0.00    +0.000 A 
ATOM     10  C   UNL     1      -0.209  12.667  21.504  0.00  0.00    +0.000 A 
ENDROOT
BRANCH   1  12
ATOM     11  N   UNL     1       0.652  10.304  19.893  0.00  0.00    +0.000 NA
ATOM     12  N   UNL     1       0.837  10.512  21.112  0.00  0.00    +0.000 NA
BRANCH  11  16
ATOM     13  C   UNL     1       2.787   6.829  18.650  0.00  0.00    +0.000 A 
ATOM     14  C   UNL     1       2.271   6.948  19.942  0.00  0.00    +0.000 A 
ATOM     15  C   UNL     1       1.546   8.084  20.318  0.00  0.00    +0.000 A 
ATOM     16  C   UNL     1       1.347   9.162  19.428  0.00  0.00    +0.000 A 
ATOM     17  C   UNL     1       1.887   9.045  18.141  0.00  0.00    +0.000 A 
ATOM     18  C   UNL     1       2.610   7.899  17.763  0.00  0.00    +0.000 A 
BRANCH  13  22
ATOM     19  C   UNL     1       4.024   3.387  17.526  0.00  0.00    +0.000 C 
ATOM     20  N   UNL     1       3.091   4.439  17.903  0.00  0.00    +0.000 N 
ATOM     21  C   UNL     1       1.676   4.171  17.703  0.00  0.00    +0.000 C 
ATOM     22  C   UNL     1       3.643   5.685  18.219  0.00  0.00    +0.000 C 
ATOM     23  O   UNL     1       4.854   5.898  18.143  0.00  0.00    +0.000 OA
ENDBRANCH  13  22
ENDBRANCH  11  16
ENDBRANCH   1  12
BRANCH   2  24
ATOM     24  O   UNL     1      -0.688   9.751  23.453  0.00  0.00    +0.000 OA
ATOM     25  H   UNL     1       0.018  10.083  24.038  0.00  0.00    +0.000 HD
ENDBRANCH   2  24
BRANCH  10  26
ATOM     26  O   UNL     1       0.349  13.233  20.389  0.00  0.00    +0.000 OA
ATOM     27  H   UNL     1      -0.393  13.682  19.934  0.00  0.00    +0.000 HD
ENDBRANCH  10  26
TORSDOF 5
ENDMDL
