MODEL 1
REMARK VINA RESULT:      -7.5      0.000      0.000
REMARK  Name = 
REMARK  8 active torsions:
REMARK  status: ('A' for Active; 'I' for Inactive)
REMARK    1  A    between atoms: C_2  and  O_3
REMARK    2  A    between atoms: C_2  and  C_12
REMARK    3  A    between atoms: O_3  and  C_4
REMARK    4  A    between atoms: C_4  and  C_5
REMARK    5  A    between atoms: C_5  and  N_6
REMARK    6  A    between atoms: N_20  and  O_21
REMARK    7  A    between atoms: O_21  and  S_22
REMARK    8  A    between atoms: S_22  and  O_25
REMARK                            x       y       z     vdW  Elec       q    Type
REMARK                         _______ _______ _______ _____ _____    ______ ____
ROOT
ATOM      1  C   UNL     1       5.631   4.858  17.184  0.00  0.00    +0.000 C 
ATOM      2  C   UNL     1       5.310   6.166  17.922  0.00  0.00    +0.000 C 
ATOM      3  C   UNL     1       3.802   6.426  17.937  0.00  0.00    +0.000 C 
ATOM      4  C   UNL     1       2.935   5.208  18.313  0.00  0.00    +0.000 C 
ATOM      5  C   UNL     1       3.262   4.223  17.190  0.00  0.00    +0.000 C 
ATOM      6  N   UNL     1       4.646   3.829  17.558  0.00  0.00    +0.000 N 
ATOM      7  C   UNL     1       4.540   3.576  18.965  0.00  0.00    +0.000 C 
ATOM      8  O   UNL     1       5.352   3.085  19.718  0.00  0.00    +0.000 OA
ATOM      9  N   UNL     1       3.315   4.128  19.305  0.00  0.00    +0.000 N 
ENDROOT
BRANCH   1  11
ATOM     10  O   UNL     1       7.885   4.504  18.032  0.00  0.00    +0.000 OA
ATOM     11  C   UNL     1       7.140   4.590  17.065  0.00  0.00    +0.000 C 
BRANCH  11  12
ATOM     12  O   UNL     1       7.566   4.763  15.783  0.00  0.00    +0.000 OA
BRANCH  12  13
ATOM     13  C   UNL     1       6.608   4.366  14.787  0.00  0.00    +0.000 C 
BRANCH  13  14
ATOM     14  C   UNL     1       7.159   4.788  13.408  0.00  0.00    +0.000 C 
BRANCH  14  15
ATOM     15  N   UNL     1       6.710   3.938  12.277  0.00  0.00    +0.000 NA
ATOM     16  C   UNL     1       7.621   2.805  12.049  0.00  0.00    +0.000 C 
ATOM     17  C   UNL     1       7.167   1.955  10.861  0.00  0.00    +0.000 C 
ATOM     18  C   UNL     1       5.738   1.461  11.044  0.00  0.00    +0.000 C 
ATOM     19  C   UNL     1       4.813   2.633  11.345  0.00  0.00    +0.000 C 
ATOM     20  C   UNL     1       5.335   3.464  12.519  0.00  0.00    +0.000 C 
ENDBRANCH  14  15
ENDBRANCH  13  14
ENDBRANCH  12  13
ENDBRANCH  11  12
ENDBRANCH   1  11
BRANCH   9  21
ATOM     21  O   UNL     1       2.770   4.063  20.626  0.00  0.00    +0.000 OA
BRANCH  21  22
ATOM     22  S   UNL     1       1.580   2.926  20.820  0.00  0.00    +0.000 S 
ATOM     23  O   UNL     1       1.751   1.901  19.851  0.00  0.00    +0.000 OA
ATOM     24  O   UNL     1       1.352   2.655  22.191  0.00  0.00    +0.000 OA
BRANCH  22  25
ATOM     25  O   UNL     1       0.206   3.722  20.284  0.00  0.00    +0.000 OA
ATOM     26  H   UNL     1       0.457   4.624  20.093  0.00  0.00    +0.000 HD
ENDBRANCH  22  25
ENDBRANCH  21  22
ENDBRANCH   9  21
TORSDOF 8
ENDMDL
MODEL 2
REMARK VINA RESULT:      -7.3      4.714      6.958
REMARK  Name = 
REMARK  8 active torsions:
REMARK  status: ('A' for Active; 'I' for Inactive)
REMARK    1  A    between atoms: C_2  and  O_3
REMARK    2  A    between atoms: C_2  and  C_12
REMARK    3  A    between atoms: O_3  and  C_4
REMARK    4  A    between atoms: C_4  and  C_5
REMARK    5  A    between atoms: C_5  and  N_6
REMARK    6  A    between atoms: N_20  and  O_21
REMARK    7  A    between atoms: O_21  and  S_22
REMARK    8  A    between atoms: S_22  and  O_25
REMARK                            x       y       z     vdW  Elec       q    Type
REMARK                         _______ _______ _______ _____ _____    ______ ____
ROOT
ATOM      1  C   UNL     1       7.010   6.029  17.164  0.00  0.00    +0.000 C 
ATOM      2  C   UNL     1       5.807   6.794  16.594  0.00  0.00    +0.000 C 
ATOM      3  C   UNL     1       5.045   5.933  15.584  0.00  0.00    +0.000 C 
ATOM      4  C   UNL     1       4.770   4.485  16.039  0.00  0.00    +0.000 C 
ATOM      5  C   UNL     1       6.185   3.928  16.206  0.00  0.00    +0.000 C 
ATOM      6  N   UNL     1       6.620   4.635  17.436  0.00  0.00    +0.000 N 
ATOM      7  C   UNL     1       5.492   4.480  18.307  0.00  0.00    +0.000 C 
ATOM      8  O   UNL     1       5.391   4.747  19.484  0.00  0.00    +0.000 OA
ATOM      9  N   UNL     1       4.483   4.047  17.461  0.00  0.00    +0.000 N 
ENDROOT
BRANCH   1  11
ATOM     10  O   UNL     1       8.243   6.481  19.214  0.00  0.00    +0.000 OA
ATOM     11  C   UNL     1       7.862   6.878  18.122  0.00  0.00    +0.000 C 
BRANCH  11  12
ATOM     12  O   UNL     1       7.871   8.185  17.736  0.00  0.00    +0.000 OA
BRANCH  12  13
ATOM     13  C   UNL     1       8.644   9.045  18.589  0.00  0.00    +0.000 C 
BRANCH  13  14
ATOM     14  C   UNL     1       8.596  10.468  17.994  0.00  0.00    +0.000 C 
BRANCH  14  15
ATOM     15  N   UNL     1       9.557  11.424  18.598  0.00  0.00    +0.000 NA
ATOM     16  C   UNL     1       9.873  11.075  19.992  0.00  0.00    +0.000 C 
ATOM     17  C   UNL     1      10.838  12.086  20.615  0.00  0.00    +0.000 C 
ATOM     18  C   UNL     1      12.115  12.213  19.795  0.00  0.00    +0.000 C 
ATOM     19  C   UNL     1      11.776  12.508  18.340  0.00  0.00    +0.000 C 
ATOM     20  C   UNL     1      10.783  11.486  17.782  0.00  0.00    +0.000 C 
ENDBRANCH  14  15
ENDBRANCH  13  14
ENDBRANCH  12  13
ENDBRANCH  11  12
ENDBRANCH   1  11
BRANCH   9  21
ATOM     21  O   UNL     1       3.170   3.716  17.920  0.00  0.00    +0.000 OA
BRANCH  21  22
ATOM     22  S   UNL     1       3.072   2.275  18.731  0.00  0.00    +0.000 S 
ATOM     23  O   UNL     1       3.856   1.302  18.053  0.00  0.00    +0.000 OA
ATOM     24  O   UNL     1       3.137   2.472  20.132  0.00  0.00    +0.000 OA
BRANCH  22  25
ATOM     25  O   UNL     1       1.504   1.772  18.421  0.00  0.00    +0.000 OA
ATOM     26  H   UNL     1       0.922   2.317  18.948  0.00  0.00    +0.000 HD
ENDBRANCH  22  25
ENDBRANCH  21  22
ENDBRANCH   9  21
TORSDOF 8
ENDMDL
MODEL 3
REMARK VINA RESULT:      -7.1      5.028      7.237
REMARK  Name = 
REMARK  8 active torsions:
REMARK  status: ('A' for Active; 'I' for Inactive)
REMARK    1  A    between atoms: C_2  and  O_3
REMARK    2  A    between atoms: C_2  and  C_12
REMARK    3  A    between atoms: O_3  and  C_4
REMARK    4  A    between atoms: C_4  and  C_5
REMARK    5  A    between atoms: C_5  and  N_6
REMARK    6  A    between atoms: N_20  and  O_21
REMARK    7  A    between atoms: O_21  and  S_22
REMARK    8  A    between atoms: S_22  and  O_25
REMARK                            x       y       z     vdW  Elec       q    Type
REMARK                         _______ _______ _______ _____ _____    ______ ____
ROOT
ATOM      1  C   UNL     1       7.153   6.402  17.147  0.00  0.00    +0.000 C 
ATOM      2  C   UNL     1       5.743   6.966  16.918  0.00  0.00    +0.000 C 
ATOM      3  C   UNL     1       4.985   6.129  15.885  0.00  0.00    +0.000 C 
ATOM      4  C   UNL     1       5.078   4.603  16.087  0.00  0.00    +0.000 C 
ATOM      5  C   UNL     1       6.578   4.350  15.933  0.00  0.00    +0.000 C 
ATOM      6  N   UNL     1       7.091   4.931  17.199  0.00  0.00    +0.000 N 
ATOM      7  C   UNL     1       6.192   4.398  18.180  0.00  0.00    +0.000 C 
ATOM      8  O   UNL     1       6.260   4.446  19.389  0.00  0.00    +0.000 OA
ATOM      9  N   UNL     1       5.145   3.894  17.424  0.00  0.00    +0.000 N 
ENDROOT
BRANCH   1  11
ATOM     10  O   UNL     1       8.312   6.881  19.234  0.00  0.00    +0.000 OA
ATOM     11  C   UNL     1       7.990   7.254  18.114  0.00  0.00    +0.000 C 
BRANCH  11  12
ATOM     12  O   UNL     1       8.058   8.547  17.689  0.00  0.00    +0.000 OA
BRANCH  12  13
ATOM     13  C   UNL     1       8.737   9.430  18.598  0.00  0.00    +0.000 C 
BRANCH  13  14
ATOM     14  C   UNL     1       8.791  10.828  17.946  0.00  0.00    +0.000 C 
BRANCH  14  15
ATOM     15  N   UNL     1      10.080  11.542  18.121  0.00  0.00    +0.000 NA
ATOM     16  C   UNL     1       9.934  12.992  17.925  0.00  0.00    +0.000 C 
ATOM     17  C   UNL     1      11.275  13.714  18.075  0.00  0.00    +0.000 C 
ATOM     18  C   UNL     1      11.915  13.421  19.425  0.00  0.00    +0.000 C 
ATOM     19  C   UNL     1      12.003  11.917  19.648  0.00  0.00    +0.000 C 
ATOM     20  C   UNL     1      10.641  11.247  19.452  0.00  0.00    +0.000 C 
ENDBRANCH  14  15
ENDBRANCH  13  14
ENDBRANCH  12  13
ENDBRANCH  11  12
ENDBRANCH   1  11
BRANCH   9  21
ATOM     21  O   UNL     1       4.025   3.215  17.999  0.00  0.00    +0.000 OA
BRANCH  21  22
ATOM     22  S   UNL     1       2.689   4.170  18.223  0.00  0.00    +0.000 S 
ATOM     23  O   UNL     1       3.099   5.439  18.715  0.00  0.00    +0.000 OA
ATOM     24  O   UNL     1       1.770   4.022  17.156  0.00  0.00    +0.000 OA
BRANCH  22  25
ATOM     25  O   UNL     1       1.947   3.475  19.555  0.00  0.00    +0.000 OA
ATOM     26  H   UNL     1       2.489   3.671  20.317  0.00  0.00    +0.000 HD
ENDBRANCH  22  25
ENDBRANCH  21  22
ENDBRANCH   9  21
TORSDOF 8
ENDMDL
MODEL 4
REMARK VINA RESULT:      -7.1      0.531      1.021
REMARK  Name = 
REMARK  8 active torsions:
REMARK  status: ('A' for Active; 'I' for Inactive)
REMARK    1  A    between atoms: C_2  and  O_3
REMARK    2  A    between atoms: C_2  and  C_12
REMARK    3  A    between atoms: O_3  and  C_4
REMARK    4  A    between atoms: C_4  and  C_5
REMARK    5  A    between atoms: C_5  and  N_6
REMARK    6  A    between atoms: N_20  and  O_21
REMARK    7  A    between atoms: O_21  and  S_22
REMARK    8  A    between atoms: S_22  and  O_25
REMARK                            x       y       z     vdW  Elec       q    Type
REMARK                         _______ _______ _______ _____ _____    ______ ____
ROOT
ATOM      1  C   UNL     1       5.552   5.341  16.827  0.00  0.00    +0.000 C 
ATOM      2  C   UNL     1       4.935   6.589  17.476  0.00  0.00    +0.000 C 
ATOM      3  C   UNL     1       3.410   6.478  17.524  0.00  0.00    +0.000 C 
ATOM      4  C   UNL     1       2.870   5.121  18.021  0.00  0.00    +0.000 C 
ATOM      5  C   UNL     1       3.410   4.156  16.964  0.00  0.00    +0.000 C 
ATOM      6  N   UNL     1       4.853   4.139  17.312  0.00  0.00    +0.000 N 
ATOM      7  C   UNL     1       4.834   3.983  18.736  0.00  0.00    +0.000 C 
ATOM      8  O   UNL     1       5.753   3.765  19.495  0.00  0.00    +0.000 OA
ATOM      9  N   UNL     1       3.517   4.249  19.077  0.00  0.00    +0.000 N 
ENDROOT
BRANCH   1  11
ATOM     10  O   UNL     1       7.835   5.648  17.614  0.00  0.00    +0.000 OA
ATOM     11  C   UNL     1       7.079   5.437  16.676  0.00  0.00    +0.000 C 
BRANCH  11  12
ATOM     12  O   UNL     1       7.432   5.556  15.365  0.00  0.00    +0.000 OA
BRANCH  12  13
ATOM     13  C   UNL     1       6.760   4.635  14.489  0.00  0.00    +0.000 C 
BRANCH  13  14
ATOM     14  C   UNL     1       7.294   4.868  13.060  0.00  0.00    +0.000 C 
BRANCH  14  15
ATOM     15  N   UNL     1       6.794   3.904  12.048  0.00  0.00    +0.000 NA
ATOM     16  C   UNL     1       7.702   2.758  11.888  0.00  0.00    +0.000 C 
ATOM     17  C   UNL     1       7.192   1.788  10.819  0.00  0.00    +0.000 C 
ATOM     18  C   UNL     1       5.781   1.309  11.130  0.00  0.00    +0.000 C 
ATOM     19  C   UNL     1       4.862   2.502  11.361  0.00  0.00    +0.000 C 
ATOM     20  C   UNL     1       5.438   3.452  12.413  0.00  0.00    +0.000 C 
ENDBRANCH  14  15
ENDBRANCH  13  14
ENDBRANCH  12  13
ENDBRANCH  11  12
ENDBRANCH   1  11
BRANCH   9  21
ATOM     21  O   UNL     1       3.026   4.162  20.418  0.00  0.00    +0.000 OA
BRANCH  21  22
ATOM     22  S   UNL     1       1.704   3.180  20.599  0.00  0.00    +0.000 S 
ATOM     23  O   UNL     1       0.523   3.969  20.529  0.00  0.00    +0.000 OA
ATOM     24  O   UNL     1       1.862   1.971  19.879  0.00  0.00    +0.000 OA
BRANCH  22  25
ATOM     25  O   UNL     1       1.770   2.751  22.217  0.00  0.00    +0.000 OA
ATOM     26  H   UNL     1       0.933   2.347  22.438  0.00  0.00    +0.000 HD
ENDBRANCH  22  25
ENDBRANCH  21  22
ENDBRANCH   9  21
TORSDOF 8
ENDMDL
MODEL 5
REMARK VINA RESULT:      -7.0      4.041      6.426
REMARK  Name = 
REMARK  8 active torsions:
REMARK  status: ('A' for Active; 'I' for Inactive)
REMARK    1  A    between atoms: C_2  and  O_3
REMARK    2  A    between atoms: C_2  and  C_12
REMARK    3  A    between atoms: O_3  and  C_4
REMARK    4  A    between atoms: C_4  and  C_5
REMARK    5  A    between atoms: C_5  and  N_6
REMARK    6  A    between atoms: N_20  and  O_21
REMARK    7  A    between atoms: O_21  and  S_22
REMARK    8  A    between atoms: S_22  and  O_25
REMARK                            x       y       z     vdW  Elec       q    Type
REMARK                         _______ _______ _______ _____ _____    ______ ____
ROOT
ATOM      1  C   UNL     1       5.292   5.979  17.016  0.00  0.00    +0.000 C 
ATOM      2  C   UNL     1       4.224   6.898  17.629  0.00  0.00    +0.000 C 
ATOM      3  C   UNL     1       2.855   6.214  17.628  0.00  0.00    +0.000 C 
ATOM      4  C   UNL     1       2.855   4.754  18.123  0.00  0.00    +0.000 C 
ATOM      5  C   UNL     1       3.757   4.068  17.097  0.00  0.00    +0.000 C 
ATOM      6  N   UNL     1       5.085   4.601  17.492  0.00  0.00    +0.000 N 
ATOM      7  C   UNL     1       5.077   4.448  18.917  0.00  0.00    +0.000 C 
ATOM      8  O   UNL     1       5.983   4.594  19.708  0.00  0.00    +0.000 OA
ATOM      9  N   UNL     1       3.747   4.192  19.211  0.00  0.00    +0.000 N 
ENDROOT
BRANCH   1  11
ATOM     10  O   UNL     1       7.608   6.167  16.291  0.00  0.00    +0.000 OA
ATOM     11  C   UNL     1       6.672   6.649  16.914  0.00  0.00    +0.000 C 
BRANCH  11  12
ATOM     12  O   UNL     1       6.795   7.651  17.828  0.00  0.00    +0.000 OA
BRANCH  12  13
ATOM     13  C   UNL     1       8.108   8.234  17.890  0.00  0.00    +0.000 C 
BRANCH  13  14
ATOM     14  C   UNL     1       7.945   9.768  17.863  0.00  0.00    +0.000 C 
BRANCH  14  15
ATOM     15  N   UNL     1       9.158  10.525  18.260  0.00  0.00    +0.000 NA
ATOM     16  C   UNL     1       9.117  11.916  17.781  0.00  0.00    +0.000 C 
ATOM     17  C   UNL     1      10.387  12.676  18.168  0.00  0.00    +0.000 C 
ATOM     18  C   UNL     1      10.622  12.638  19.672  0.00  0.00    +0.000 C 
ATOM     19  C   UNL     1      10.597  11.199  20.170  0.00  0.00    +0.000 C 
ATOM     20  C   UNL     1       9.322  10.480  19.725  0.00  0.00    +0.000 C 
ENDBRANCH  14  15
ENDBRANCH  13  14
ENDBRANCH  12  13
ENDBRANCH  11  12
ENDBRANCH   1  11
BRANCH   9  21
ATOM     21  O   UNL     1       3.279   3.923  20.535  0.00  0.00    +0.000 OA
BRANCH  21  22
ATOM     22  S   UNL     1       1.808   3.164  20.599  0.00  0.00    +0.000 S 
ATOM     23  O   UNL     1       0.775   4.140  20.550  0.00  0.00    +0.000 OA
ATOM     24  O   UNL     1       1.799   1.998  19.796  0.00  0.00    +0.000 OA
BRANCH  22  25
ATOM     25  O   UNL     1       1.731   2.620  22.182  0.00  0.00    +0.000 OA
ATOM     26  H   UNL     1       0.814   2.427  22.371  0.00  0.00    +0.000 HD
ENDBRANCH  22  25
ENDBRANCH  21  22
ENDBRANCH   9  21
TORSDOF 8
ENDMDL
MODEL 6
REMARK VINA RESULT:      -7.0      4.179      6.457
REMARK  Name = 
REMARK  8 active torsions:
REMARK  status: ('A' for Active; 'I' for Inactive)
REMARK    1  A    between atoms: C_2  and  O_3
REMARK    2  A    between atoms: C_2  and  C_12
REMARK    3  A    between atoms: O_3  and  C_4
REMARK    4  A    between atoms: C_4  and  C_5
REMARK    5  A    between atoms: C_5  and  N_6
REMARK    6  A    between atoms: N_20  and  O_21
REMARK    7  A    between atoms: O_21  and  S_22
REMARK    8  A    between atoms: S_22  and  O_25
REMARK                            x       y       z     vdW  Elec       q    Type
REMARK                         _______ _______ _______ _____ _____    ______ ____
ROOT
ATOM      1  C   UNL     1       5.424   6.188  17.039  0.00  0.00    +0.000 C 
ATOM      2  C   UNL     1       4.448   7.258  17.550  0.00  0.00    +0.000 C 
ATOM      3  C   UNL     1       3.015   6.720  17.566  0.00  0.00    +0.000 C 
ATOM      4  C   UNL     1       2.853   5.313  18.175  0.00  0.00    +0.000 C 
ATOM      5  C   UNL     1       3.698   4.457  17.230  0.00  0.00    +0.000 C 
ATOM      6  N   UNL     1       5.067   4.881  17.617  0.00  0.00    +0.000 N 
ATOM      7  C   UNL     1       5.017   4.846  19.049  0.00  0.00    +0.000 C 
ATOM      8  O   UNL     1       5.918   4.963  19.850  0.00  0.00    +0.000 OA
ATOM      9  N   UNL     1       3.662   4.752  19.326  0.00  0.00    +0.000 N 
ENDROOT
BRANCH   1  11
ATOM     10  O   UNL     1       7.725   6.151  16.244  0.00  0.00    +0.000 OA
ATOM     11  C   UNL     1       6.869   6.702  16.922  0.00  0.00    +0.000 C 
BRANCH  11  12
ATOM     12  O   UNL     1       7.131   7.637  17.877  0.00  0.00    +0.000 OA
BRANCH  12  13
ATOM     13  C   UNL     1       8.237   8.501  17.566  0.00  0.00    +0.000 C 
BRANCH  13  14
ATOM     14  C   UNL     1       8.149   9.732  18.493  0.00  0.00    +0.000 C 
BRANCH  14  15
ATOM     15  N   UNL     1       9.460  10.300  18.892  0.00  0.00    +0.000 NA
ATOM     16  C   UNL     1      10.052  11.118  17.821  0.00  0.00    +0.000 C 
ATOM     17  C   UNL     1      11.419  11.670  18.232  0.00  0.00    +0.000 C 
ATOM     18  C   UNL     1      11.329  12.471  19.524  0.00  0.00    +0.000 C 
ATOM     19  C   UNL     1      10.654  11.641  20.609  0.00  0.00    +0.000 C 
ATOM     20  C   UNL     1       9.311  11.087  20.130  0.00  0.00    +0.000 C 
ENDBRANCH  14  15
ENDBRANCH  13  14
ENDBRANCH  12  13
ENDBRANCH  11  12
ENDBRANCH   1  11
BRANCH   9  21
ATOM     21  O   UNL     1       3.145   4.641  20.655  0.00  0.00    +0.000 OA
BRANCH  21  22
ATOM     22  S   UNL     1       2.310   3.240  20.949  0.00  0.00    +0.000 S 
ATOM     23  O   UNL     1       2.563   2.316  19.898  0.00  0.00    +0.000 OA
ATOM     24  O   UNL     1       2.378   2.882  22.317  0.00  0.00    +0.000 OA
BRANCH  22  25
ATOM     25  O   UNL     1       0.717   3.685  20.680  0.00  0.00    +0.000 OA
ATOM     26  H   UNL     1       0.418   4.152  21.458  0.00  0.00    +0.000 HD
ENDBRANCH  22  25
ENDBRANCH  21  22
ENDBRANCH   9  21
TORSDOF 8
ENDMDL
MODEL 7
REMARK VINA RESULT:      -7.0      4.041      6.463
REMARK  Name = 
REMARK  8 active torsions:
REMARK  status: ('A' for Active; 'I' for Inactive)
REMARK    1  A    between atoms: C_2  and  O_3
REMARK    2  A    between atoms: C_2  and  C_12
REMARK    3  A    between atoms: O_3  and  C_4
REMARK    4  A    between atoms: C_4  and  C_5
REMARK    5  A    between atoms: C_5  and  N_6
REMARK    6  A    between atoms: N_20  and  O_21
REMARK    7  A    between atoms: O_21  and  S_22
REMARK    8  A    between atoms: S_22  and  O_25
REMARK                            x       y       z     vdW  Elec       q    Type
REMARK                         _______ _______ _______ _____ _____    ______ ____
ROOT
ATOM      1  C   UNL     1       5.301   6.130  17.082  0.00  0.00    +0.000 C 
ATOM      2  C   UNL     1       4.381   7.212  17.668  0.00  0.00    +0.000 C 
ATOM      3  C   UNL     1       2.932   6.724  17.715  0.00  0.00    +0.000 C 
ATOM      4  C   UNL     1       2.741   5.300  18.274  0.00  0.00    +0.000 C 
ATOM      5  C   UNL     1       3.521   4.454  17.268  0.00  0.00    +0.000 C 
ATOM      6  N   UNL     1       4.917   4.815  17.622  0.00  0.00    +0.000 N 
ATOM      7  C   UNL     1       4.916   4.725  19.052  0.00  0.00    +0.000 C 
ATOM      8  O   UNL     1       5.848   4.779  19.824  0.00  0.00    +0.000 OA
ATOM      9  N   UNL     1       3.569   4.667  19.374  0.00  0.00    +0.000 N 
ENDROOT
BRANCH   1  11
ATOM     10  O   UNL     1       7.540   6.116  16.125  0.00  0.00    +0.000 OA
ATOM     11  C   UNL     1       6.758   6.599  16.932  0.00  0.00    +0.000 C 
BRANCH  11  12
ATOM     12  O   UNL     1       7.129   7.378  17.987  0.00  0.00    +0.000 OA
BRANCH  12  13
ATOM     13  C   UNL     1       7.631   8.672  17.613  0.00  0.00    +0.000 C 
BRANCH  13  14
ATOM     14  C   UNL     1       8.845   8.984  18.515  0.00  0.00    +0.000 C 
BRANCH  14  15
ATOM     15  N   UNL     1       9.007  10.420  18.856  0.00  0.00    +0.000 NA
ATOM     16  C   UNL     1       9.391  10.608  20.263  0.00  0.00    +0.000 C 
ATOM     17  C   UNL     1       9.523  12.092  20.612  0.00  0.00    +0.000 C 
ATOM     18  C   UNL     1      10.514  12.793  19.692  0.00  0.00    +0.000 C 
ATOM     19  C   UNL     1      10.148  12.538  18.235  0.00  0.00    +0.000 C 
ATOM     20  C   UNL     1       9.996  11.041  17.955  0.00  0.00    +0.000 C 
ENDBRANCH  14  15
ENDBRANCH  13  14
ENDBRANCH  12  13
ENDBRANCH  11  12
ENDBRANCH   1  11
BRANCH   9  21
ATOM     21  O   UNL     1       3.094   4.521  20.715  0.00  0.00    +0.000 OA
BRANCH  21  22
ATOM     22  S   UNL     1       2.243   3.127  20.992  0.00  0.00    +0.000 S 
ATOM     23  O   UNL     1       2.657   2.134  20.062  0.00  0.00    +0.000 OA
ATOM     24  O   UNL     1       2.116   2.872  22.379  0.00  0.00    +0.000 OA
BRANCH  22  25
ATOM     25  O   UNL     1       0.701   3.513  20.463  0.00  0.00    +0.000 OA
ATOM     26  H   UNL     1       0.160   2.733  20.574  0.00  0.00    +0.000 HD
ENDBRANCH  22  25
ENDBRANCH  21  22
ENDBRANCH   9  21
TORSDOF 8
ENDMDL
MODEL 8
REMARK VINA RESULT:      -7.0      3.885      6.341
REMARK  Name = 
REMARK  8 active torsions:
REMARK  status: ('A' for Active; 'I' for Inactive)
REMARK    1  A    between atoms: C_2  and  O_3
REMARK    2  A    between atoms: C_2  and  C_12
REMARK    3  A    between atoms: O_3  and  C_4
REMARK    4  A    between atoms: C_4  and  C_5
REMARK    5  A    between atoms: C_5  and  N_6
REMARK    6  A    between atoms: N_20  and  O_21
REMARK    7  A    between atoms: O_21  and  S_22
REMARK    8  A    between atoms: S_22  and  O_25
REMARK                            x       y       z     vdW  Elec       q    Type
REMARK                         _______ _______ _______ _____ _____    ______ ____
ROOT
ATOM      1  C   UNL     1       5.432   5.962  16.934  0.00  0.00    +0.000 C 
ATOM      2  C   UNL     1       4.564   7.111  17.468  0.00  0.00    +0.000 C 
ATOM      3  C   UNL     1       3.099   6.680  17.571  0.00  0.00    +0.000 C 
ATOM      4  C   UNL     1       2.869   5.301  18.221  0.00  0.00    +0.000 C 
ATOM      5  C   UNL     1       3.599   4.366  17.256  0.00  0.00    +0.000 C 
ATOM      6  N   UNL     1       5.013   4.697  17.561  0.00  0.00    +0.000 N 
ATOM      7  C   UNL     1       5.037   4.695  18.994  0.00  0.00    +0.000 C 
ATOM      8  O   UNL     1       5.986   4.763  19.745  0.00  0.00    +0.000 OA
ATOM      9  N   UNL     1       3.696   4.707  19.343  0.00  0.00    +0.000 N 
ENDROOT
BRANCH   1  11
ATOM     10  O   UNL     1       7.597   5.936  15.820  0.00  0.00    +0.000 OA
ATOM     11  C   UNL     1       6.902   6.366  16.730  0.00  0.00    +0.000 C 
BRANCH  11  12
ATOM     12  O   UNL     1       7.389   7.002  17.832  0.00  0.00    +0.000 OA
BRANCH  12  13
ATOM     13  C   UNL     1       7.869   8.333  17.578  0.00  0.00    +0.000 C 
BRANCH  13  14
ATOM     14  C   UNL     1       8.596   8.822  18.849  0.00  0.00    +0.000 C 
BRANCH  14  15
ATOM     15  N   UNL     1       9.266  10.140  18.709  0.00  0.00    +0.000 NA
ATOM     16  C   UNL     1       8.478  11.070  17.886  0.00  0.00    +0.000 C 
ATOM     17  C   UNL     1       9.193  12.412  17.722  0.00  0.00    +0.000 C 
ATOM     18  C   UNL     1       9.515  13.039  19.072  0.00  0.00    +0.000 C 
ATOM     19  C   UNL     1      10.273  12.046  19.943  0.00  0.00    +0.000 C 
ATOM     20  C   UNL     1       9.528  10.713  20.042  0.00  0.00    +0.000 C 
ENDBRANCH  14  15
ENDBRANCH  13  14
ENDBRANCH  12  13
ENDBRANCH  11  12
ENDBRANCH   1  11
BRANCH   9  21
ATOM     21  O   UNL     1       3.243   4.661  20.699  0.00  0.00    +0.000 OA
BRANCH  21  22
ATOM     22  S   UNL     1       2.119   3.483  21.006  0.00  0.00    +0.000 S 
ATOM     23  O   UNL     1       2.380   2.908  22.280  0.00  0.00    +0.000 OA
ATOM     24  O   UNL     1       0.826   3.893  20.600  0.00  0.00    +0.000 OA
BRANCH  22  25
ATOM     25  O   UNL     1       2.555   2.259  19.948  0.00  0.00    +0.000 OA
ATOM     26  H   UNL     1       3.138   1.669  20.422  0.00  0.00    +0.000 HD
ENDBRANCH  22  25
ENDBRANCH  21  22
ENDBRANCH   9  21
TORSDOF 8
ENDMDL
MODEL 9
REMARK VINA RESULT:      -6.9      3.897      6.301
REMARK  Name = 
REMARK  8 active torsions:
REMARK  status: ('A' for Active; 'I' for Inactive)
REMARK    1  A    between atoms: C_2  and  O_3
REMARK    2  A    between atoms: C_2  and  C_12
REMARK    3  A    between atoms: O_3  and  C_4
REMARK    4  A    between atoms: C_4  and  C_5
REMARK    5  A    between atoms: C_5  and  N_6
REMARK    6  A    between atoms: N_20  and  O_21
REMARK    7  A    between atoms: O_21  and  S_22
REMARK    8  A    between atoms: S_22  and  O_25
REMARK                            x       y       z     vdW  Elec       q    Type
REMARK                         _______ _______ _______ _____ _____    ______ ____
ROOT
ATOM      1  C   UNL     1       5.332   5.438  17.995  0.00  0.00    +0.000 C 
ATOM      2  C   UNL     1       4.160   6.160  18.678  0.00  0.00    +0.000 C 
ATOM      3  C   UNL     1       2.825   5.713  18.079  0.00  0.00    +0.000 C 
ATOM      4  C   UNL     1       2.668   4.189  17.900  0.00  0.00    +0.000 C 
ATOM      5  C   UNL     1       3.791   3.866  16.915  0.00  0.00    +0.000 C 
ATOM      6  N   UNL     1       4.982   4.023  17.787  0.00  0.00    +0.000 N 
ATOM      7  C   UNL     1       4.602   3.312  18.973  0.00  0.00    +0.000 C 
ATOM      8  O   UNL     1       5.275   3.013  19.935  0.00  0.00    +0.000 OA
ATOM      9  N   UNL     1       3.237   3.130  18.821  0.00  0.00    +0.000 N 
ENDROOT
BRANCH   1  11
ATOM     10  O   UNL     1       7.246   5.459  19.500  0.00  0.00    +0.000 OA
ATOM     11  C   UNL     1       6.704   5.912  18.501  0.00  0.00    +0.000 C 
BRANCH  11  12
ATOM     12  O   UNL     1       7.076   7.070  17.886  0.00  0.00    +0.000 OA
BRANCH  12  13
ATOM     13  C   UNL     1       8.248   7.684  18.448  0.00  0.00    +0.000 C 
BRANCH  13  14
ATOM     14  C   UNL     1       8.213   9.184  18.089  0.00  0.00    +0.000 C 
BRANCH  14  15
ATOM     15  N   UNL     1       9.341   9.977  18.637  0.00  0.00    +0.000 NA
ATOM     16  C   UNL     1       9.710  11.091  17.749  0.00  0.00    +0.000 C 
ATOM     17  C   UNL     1      10.896  11.880  18.308  0.00  0.00    +0.000 C 
ATOM     18  C   UNL     1      10.609  12.393  19.713  0.00  0.00    +0.000 C 
ATOM     19  C   UNL     1      10.164  11.244  20.609  0.00  0.00    +0.000 C 
ATOM     20  C   UNL     1       9.001  10.472  19.984  0.00  0.00    +0.000 C 
ENDBRANCH  14  15
ENDBRANCH  13  14
ENDBRANCH  12  13
ENDBRANCH  11  12
ENDBRANCH   1  11
BRANCH   9  21
ATOM     21  O   UNL     1       2.437   2.413  19.766  0.00  0.00    +0.000 OA
BRANCH  21  22
ATOM     22  S   UNL     1       1.812   3.349  20.982  0.00  0.00    +0.000 S 
ATOM     23  O   UNL     1       1.395   2.510  22.051  0.00  0.00    +0.000 OA
ATOM     24  O   UNL     1       2.591   4.515  21.181  0.00  0.00    +0.000 OA
BRANCH  22  25
ATOM     25  O   UNL     1       0.360   3.884  20.340  0.00  0.00    +0.000 OA
ATOM     26  H   UNL     1      -0.325   3.670  20.971  0.00  0.00    +0.000 HD
ENDBRANCH  22  25
ENDBRANCH  21  22
ENDBRANCH   9  21
TORSDOF 8
ENDMDL
