MODEL 1
REMARK VINA RESULT:      -7.7      0.000      0.000
REMARK  Name = 
REMARK  12 active torsions:
REMARK  status: ('A' for Active; 'I' for Inactive)
REMARK    1  A    between atoms: C_1  and  O_2
REMARK    2  A    between atoms: O_2  and  C_3
REMARK    3  A    between atoms: C_3  and  C_5
REMARK    4  A    between atoms: C_6  and  C_7
REMARK    5  A    between atoms: N_9  and  C_10
REMARK    6  A    between atoms: C_10  and  C_11
REMARK    7  A    between atoms: N_19  and  C_20
REMARK    8  A    between atoms: C_20  and  C_21
REMARK    9  A    between atoms: C_21  and  O_22
REMARK   10  A    between atoms: C_21  and  C_23
REMARK   11  A    between atoms: C_23  and  O_24
REMARK   12  A    between atoms: O_24  and  C_25
REMARK                            x       y       z     vdW  Elec       q    Type
REMARK                         _______ _______ _______ _____ _____    ______ ____
ROOT
ATOM      1  C   UNL     1       6.326   6.347  17.704  0.00  0.00    +0.000 A 
ATOM      2  C   UNL     1       6.403   5.137  18.386  0.00  0.00    +0.000 A 
ATOM      3  N   UNL     1       7.521   5.103  19.196  0.00  0.00    +0.000 NA
ATOM      4  C   UNL     1       8.137   6.236  18.972  0.00  0.00    +0.000 A 
ATOM      5  N   UNL     1       7.495   7.008  18.046  0.00  0.00    +0.000 N 
ENDROOT
BRANCH   2   6
ATOM      6  C   UNL     1       5.497   3.995  18.271  0.00  0.00    +0.000 C 
ATOM      7  O   UNL     1       4.935   3.682  17.218  0.00  0.00    +0.000 OA
ATOM      8  N   UNL     1       5.346   3.267  19.427  0.00  0.00    +0.000 N 
ATOM      9  H   UNL     1       5.900   3.538  20.237  0.00  0.00    +0.000 HD
BRANCH   8  10
ATOM     10  C   UNL     1       4.476   2.119  19.457  0.00  0.00    +0.000 C 
BRANCH  10  11
ATOM     11  C   UNL     1       3.034   2.508  19.631  0.00  0.00    +0.000 A 
ATOM     12  C   UNL     1       2.621   3.200  20.776  0.00  0.00    +0.000 A 
ATOM     13  C   UNL     1       1.280   3.546  20.946  0.00  0.00    +0.000 A 
ATOM     14  C   UNL     1       0.340   3.203  19.975  0.00  0.00    +0.000 A 
ATOM     15  C   UNL     1       0.742   2.524  18.827  0.00  0.00    +0.000 A 
ATOM     16  C   UNL     1       2.082   2.175  18.655  0.00  0.00    +0.000 A 
ENDBRANCH  10  11
ENDBRANCH   8  10
ENDBRANCH   2   6
BRANCH   1  17
ATOM     17  C   UNL     1       5.316   6.860  16.812  0.00  0.00    +0.000 C 
ATOM     18  O   UNL     1       5.345   6.751  15.593  0.00  0.00    +0.000 OA
BRANCH  17  20
ATOM     19  C   UNL     1       3.239   6.841  17.897  0.00  0.00    +0.000 C 
ATOM     20  O   UNL     1       4.399   7.569  17.511  0.00  0.00    +0.000 OA
ENDBRANCH  17  20
ENDBRANCH   1  17
BRANCH   5  21
ATOM     21  C   UNL     1       7.884   8.304  17.496  0.00  0.00    +0.000 C 
BRANCH  21  22
ATOM     22  C   UNL     1       8.221   9.432  18.476  0.00  0.00    +0.000 C 
BRANCH  22  23
ATOM     23  O   UNL     1       9.184   8.975  19.431  0.00  0.00    +0.000 OA
ATOM     24  H   UNL     1       8.777   8.357  20.058  0.00  0.00    +0.000 HD
ENDBRANCH  22  23
BRANCH  22  25
ATOM     25  C   UNL     1       8.619  10.721  17.742  0.00  0.00    +0.000 C 
BRANCH  25  26
ATOM     26  O   UNL     1      10.037  10.785  17.627  0.00  0.00    +0.000 OA
BRANCH  26  27
ATOM     27  C   UNL     1      10.589  11.970  18.032  0.00  0.00    +0.000 A 
ATOM     28  C   UNL     1      10.996  11.997  19.364  0.00  0.00    +0.000 A 
ATOM     29  C   UNL     1      11.552  13.156  19.904  0.00  0.00    +0.000 A 
ATOM     30  C   UNL     1      11.722  14.285  19.105  0.00  0.00    +0.000 A 
ATOM     31  C   UNL     1      11.346  14.254  17.764  0.00  0.00    +0.000 A 
ATOM     32  C   UNL     1      10.783  13.096  17.226  0.00  0.00    +0.000 A 
ENDBRANCH  26  27
ENDBRANCH  25  26
ENDBRANCH  22  25
ENDBRANCH  21  22
ENDBRANCH   5  21
TORSDOF 11
ENDMDL
MODEL 2
REMARK VINA RESULT:      -7.6      4.357      8.055
REMARK  Name = 
REMARK  12 active torsions:
REMARK  status: ('A' for Active; 'I' for Inactive)
REMARK    1  A    between atoms: C_1  and  O_2
REMARK    2  A    between atoms: O_2  and  C_3
REMARK    3  A    between atoms: C_3  and  C_5
REMARK    4  A    between atoms: C_6  and  C_7
REMARK    5  A    between atoms: N_9  and  C_10
REMARK    6  A    between atoms: C_10  and  C_11
REMARK    7  A    between atoms: N_19  and  C_20
REMARK    8  A    between atoms: C_20  and  C_21
REMARK    9  A    between atoms: C_21  and  O_22
REMARK   10  A    between atoms: C_21  and  C_23
REMARK   11  A    between atoms: C_23  and  O_24
REMARK   12  A    between atoms: O_24  and  C_25
REMARK                            x       y       z     vdW  Elec       q    Type
REMARK                         _______ _______ _______ _____ _____    ______ ____
ROOT
ATOM      1  C   UNL     1       4.560   4.784  18.204  0.00  0.00    +0.000 A 
ATOM      2  C   UNL     1       3.243   4.760  18.655  0.00  0.00    +0.000 A 
ATOM      3  N   UNL     1       2.451   4.014  17.804  0.00  0.00    +0.000 NA
ATOM      4  C   UNL     1       3.248   3.642  16.835  0.00  0.00    +0.000 A 
ATOM      5  N   UNL     1       4.520   4.116  16.991  0.00  0.00    +0.000 N 
ENDROOT
BRANCH   2   6
ATOM      6  C   UNL     1       2.692   5.446  19.822  0.00  0.00    +0.000 C 
ATOM      7  O   UNL     1       2.538   4.899  20.917  0.00  0.00    +0.000 OA
ATOM      8  N   UNL     1       2.390   6.771  19.616  0.00  0.00    +0.000 N 
ATOM      9  H   UNL     1       2.616   7.176  18.709  0.00  0.00    +0.000 HD
BRANCH   8  10
ATOM     10  C   UNL     1       1.833   7.566  20.680  0.00  0.00    +0.000 C 
BRANCH  10  11
ATOM     11  C   UNL     1       1.099   8.771  20.160  0.00  0.00    +0.000 A 
ATOM     12  C   UNL     1       1.361   9.258  18.874  0.00  0.00    +0.000 A 
ATOM     13  C   UNL     1       0.693  10.386  18.396  0.00  0.00    +0.000 A 
ATOM     14  C   UNL     1      -0.241  11.038  19.200  0.00  0.00    +0.000 A 
ATOM     15  C   UNL     1      -0.518  10.556  20.478  0.00  0.00    +0.000 A 
ATOM     16  C   UNL     1       0.151   9.429  20.958  0.00  0.00    +0.000 A 
ENDBRANCH  10  11
ENDBRANCH   8  10
ENDBRANCH   2   6
BRANCH   1  17
ATOM     17  C   UNL     1       5.741   5.369  18.789  0.00  0.00    +0.000 C 
ATOM     18  O   UNL     1       6.286   4.966  19.808  0.00  0.00    +0.000 OA
BRANCH  17  20
ATOM     19  C   UNL     1       7.487   6.703  17.972  0.00  0.00    +0.000 C 
ATOM     20  O   UNL     1       6.087   6.488  18.109  0.00  0.00    +0.000 OA
ENDBRANCH  17  20
ENDBRANCH   1  17
BRANCH   5  21
ATOM     21  C   UNL     1       5.676   3.963  16.112  0.00  0.00    +0.000 C 
BRANCH  21  22
ATOM     22  C   UNL     1       5.779   4.881  14.890  0.00  0.00    +0.000 C 
BRANCH  22  23
ATOM     23  O   UNL     1       5.412   6.216  15.252  0.00  0.00    +0.000 OA
ATOM     24  H   UNL     1       6.098   6.845  14.978  0.00  0.00    +0.000 HD
ENDBRANCH  22  23
BRANCH  22  25
ATOM     25  C   UNL     1       7.151   4.764  14.208  0.00  0.00    +0.000 C 
BRANCH  25  26
ATOM     26  O   UNL     1       6.990   4.859  12.796  0.00  0.00    +0.000 OA
BRANCH  26  27
ATOM     27  C   UNL     1       6.537   3.715  12.196  0.00  0.00    +0.000 A 
ATOM     28  C   UNL     1       7.536   2.826  11.809  0.00  0.00    +0.000 A 
ATOM     29  C   UNL     1       7.204   1.634  11.166  0.00  0.00    +0.000 A 
ATOM     30  C   UNL     1       5.867   1.321  10.927  0.00  0.00    +0.000 A 
ATOM     31  C   UNL     1       4.862   2.192  11.340  0.00  0.00    +0.000 A 
ATOM     32  C   UNL     1       5.195   3.387  11.978  0.00  0.00    +0.000 A 
ENDBRANCH  26  27
ENDBRANCH  25  26
ENDBRANCH  22  25
ENDBRANCH  21  22
ENDBRANCH   5  21
TORSDOF 11
ENDMDL
MODEL 3
REMARK VINA RESULT:      -7.6      4.355      8.000
REMARK  Name = 
REMARK  12 active torsions:
REMARK  status: ('A' for Active; 'I' for Inactive)
REMARK    1  A    between atoms: C_1  and  O_2
REMARK    2  A    between atoms: O_2  and  C_3
REMARK    3  A    between atoms: C_3  and  C_5
REMARK    4  A    between atoms: C_6  and  C_7
REMARK    5  A    between atoms: N_9  and  C_10
REMARK    6  A    between atoms: C_10  and  C_11
REMARK    7  A    between atoms: N_19  and  C_20
REMARK    8  A    between atoms: C_20  and  C_21
REMARK    9  A    between atoms: C_21  and  O_22
REMARK   10  A    between atoms: C_21  and  C_23
REMARK   11  A    between atoms: C_23  and  O_24
REMARK   12  A    between atoms: O_24  and  C_25
REMARK                            x       y       z     vdW  Elec       q    Type
REMARK                         _______ _______ _______ _____ _____    ______ ____
ROOT
ATOM      1  C   UNL     1       4.555   4.778  18.201  0.00  0.00    +0.000 A 
ATOM      2  C   UNL     1       3.243   4.761  18.663  0.00  0.00    +0.000 A 
ATOM      3  N   UNL     1       2.444   3.999  17.833  0.00  0.00    +0.000 NA
ATOM      4  C   UNL     1       3.233   3.611  16.864  0.00  0.00    +0.000 A 
ATOM      5  N   UNL     1       4.505   4.089  17.000  0.00  0.00    +0.000 N 
ENDROOT
BRANCH   2   6
ATOM      6  C   UNL     1       2.701   5.467  19.823  0.00  0.00    +0.000 C 
ATOM      7  O   UNL     1       2.459   4.914  20.898  0.00  0.00    +0.000 OA
ATOM      8  N   UNL     1       2.515   6.816  19.634  0.00  0.00    +0.000 N 
ATOM      9  H   UNL     1       2.809   7.218  18.746  0.00  0.00    +0.000 HD
BRANCH   8  10
ATOM     10  C   UNL     1       1.980   7.633  20.693  0.00  0.00    +0.000 C 
BRANCH  10  11
ATOM     11  C   UNL     1       1.140   8.763  20.165  0.00  0.00    +0.000 A 
ATOM     12  C   UNL     1       0.220   9.410  20.999  0.00  0.00    +0.000 A 
ATOM     13  C   UNL     1      -0.573  10.447  20.506  0.00  0.00    +0.000 A 
ATOM     14  C   UNL     1      -0.454  10.846  19.175  0.00  0.00    +0.000 A 
ATOM     15  C   UNL     1       0.466  10.216  18.339  0.00  0.00    +0.000 A 
ATOM     16  C   UNL     1       1.258   9.178  18.829  0.00  0.00    +0.000 A 
ENDBRANCH  10  11
ENDBRANCH   8  10
ENDBRANCH   2   6
BRANCH   1  17
ATOM     17  C   UNL     1       5.741   5.375  18.764  0.00  0.00    +0.000 C 
ATOM     18  O   UNL     1       6.314   4.971  19.767  0.00  0.00    +0.000 OA
BRANCH  17  20
ATOM     19  C   UNL     1       7.445   6.703  17.855  0.00  0.00    +0.000 C 
ATOM     20  O   UNL     1       6.055   6.505  18.086  0.00  0.00    +0.000 OA
ENDBRANCH  17  20
ENDBRANCH   1  17
BRANCH   5  21
ATOM     21  C   UNL     1       5.654   3.921  16.113  0.00  0.00    +0.000 C 
BRANCH  21  22
ATOM     22  C   UNL     1       5.752   4.827  14.882  0.00  0.00    +0.000 C 
BRANCH  22  23
ATOM     23  O   UNL     1       5.317   6.149  15.215  0.00  0.00    +0.000 OA
ATOM     24  H   UNL     1       5.982   6.804  14.949  0.00  0.00    +0.000 HD
ENDBRANCH  22  23
BRANCH  22  25
ATOM     25  C   UNL     1       7.147   4.761  14.241  0.00  0.00    +0.000 C 
BRANCH  25  26
ATOM     26  O   UNL     1       7.025   4.864  12.826  0.00  0.00    +0.000 OA
BRANCH  26  27
ATOM     27  C   UNL     1       6.733   3.686  12.192  0.00  0.00    +0.000 A 
ATOM     28  C   UNL     1       5.372   3.420  12.056  0.00  0.00    +0.000 A 
ATOM     29  C   UNL     1       4.945   2.240  11.449  0.00  0.00    +0.000 A 
ATOM     30  C   UNL     1       5.881   1.332  10.957  0.00  0.00    +0.000 A 
ATOM     31  C   UNL     1       7.242   1.607  11.061  0.00  0.00    +0.000 A 
ATOM     32  C   UNL     1       7.669   2.785  11.675  0.00  0.00    +0.000 A 
ENDBRANCH  26  27
ENDBRANCH  25  26
ENDBRANCH  22  25
ENDBRANCH  21  22
ENDBRANCH   5  21
TORSDOF 11
ENDMDL
MODEL 4
REMARK VINA RESULT:      -7.5      0.612      1.335
REMARK  Name = 
REMARK  12 active torsions:
REMARK  status: ('A' for Active; 'I' for Inactive)
REMARK    1  A    between atoms: C_1  and  O_2
REMARK    2  A    between atoms: O_2  and  C_3
REMARK    3  A    between atoms: C_3  and  C_5
REMARK    4  A    between atoms: C_6  and  C_7
REMARK    5  A    between atoms: N_9  and  C_10
REMARK    6  A    between atoms: C_10  and  C_11
REMARK    7  A    between atoms: N_19  and  C_20
REMARK    8  A    between atoms: C_20  and  C_21
REMARK    9  A    between atoms: C_21  and  O_22
REMARK   10  A    between atoms: C_21  and  C_23
REMARK   11  A    between atoms: C_23  and  O_24
REMARK   12  A    between atoms: O_24  and  C_25
REMARK                            x       y       z     vdW  Elec       q    Type
REMARK                         _______ _______ _______ _____ _____    ______ ____
ROOT
ATOM      1  C   UNL     1       6.298   6.291  17.736  0.00  0.00    +0.000 A 
ATOM      2  C   UNL     1       6.361   5.101  18.454  0.00  0.00    +0.000 A 
ATOM      3  N   UNL     1       7.471   5.087  19.277  0.00  0.00    +0.000 NA
ATOM      4  C   UNL     1       8.095   6.210  19.026  0.00  0.00    +0.000 A 
ATOM      5  N   UNL     1       7.467   6.957  18.070  0.00  0.00    +0.000 N 
ENDROOT
BRANCH   2   6
ATOM      6  C   UNL     1       5.451   3.961  18.363  0.00  0.00    +0.000 C 
ATOM      7  O   UNL     1       4.852   3.656  17.329  0.00  0.00    +0.000 OA
ATOM      8  N   UNL     1       5.341   3.225  19.519  0.00  0.00    +0.000 N 
ATOM      9  H   UNL     1       5.924   3.490  20.310  0.00  0.00    +0.000 HD
BRANCH   8  10
ATOM     10  C   UNL     1       4.472   2.077  19.572  0.00  0.00    +0.000 C 
BRANCH  10  11
ATOM     11  C   UNL     1       3.026   2.469  19.703  0.00  0.00    +0.000 A 
ATOM     12  C   UNL     1       2.582   3.167  20.833  0.00  0.00    +0.000 A 
ATOM     13  C   UNL     1       1.238   3.517  20.964  0.00  0.00    +0.000 A 
ATOM     14  C   UNL     1       0.325   3.171  19.969  0.00  0.00    +0.000 A 
ATOM     15  C   UNL     1       0.757   2.486  18.835  0.00  0.00    +0.000 A 
ATOM     16  C   UNL     1       2.101   2.134  18.702  0.00  0.00    +0.000 A 
ENDBRANCH  10  11
ENDBRANCH   8  10
ENDBRANCH   2   6
BRANCH   1  17
ATOM     17  C   UNL     1       5.300   6.782  16.817  0.00  0.00    +0.000 C 
ATOM     18  O   UNL     1       4.165   7.110  17.133  0.00  0.00    +0.000 OA
BRANCH  17  20
ATOM     19  C   UNL     1       5.619   5.454  14.912  0.00  0.00    +0.000 C 
ATOM     20  O   UNL     1       5.770   6.717  15.548  0.00  0.00    +0.000 OA
ENDBRANCH  17  20
ENDBRANCH   1  17
BRANCH   5  21
ATOM     21  C   UNL     1       7.868   8.234  17.486  0.00  0.00    +0.000 C 
BRANCH  21  22
ATOM     22  C   UNL     1       8.230   9.379  18.436  0.00  0.00    +0.000 C 
BRANCH  22  23
ATOM     23  O   UNL     1       9.225   8.943  19.367  0.00  0.00    +0.000 OA
ATOM     24  H   UNL     1       9.777   9.689  19.650  0.00  0.00    +0.000 HD
ENDBRANCH  22  23
BRANCH  22  25
ATOM     25  C   UNL     1       8.597  10.658  17.668  0.00  0.00    +0.000 C 
BRANCH  25  26
ATOM     26  O   UNL     1       9.988  10.921  17.819  0.00  0.00    +0.000 OA
BRANCH  26  27
ATOM     27  C   UNL     1      10.281  12.123  18.404  0.00  0.00    +0.000 A 
ATOM     28  C   UNL     1       9.855  13.239  17.687  0.00  0.00    +0.000 A 
ATOM     29  C   UNL     1      10.114  14.522  18.167  0.00  0.00    +0.000 A 
ATOM     30  C   UNL     1      10.783  14.691  19.378  0.00  0.00    +0.000 A 
ATOM     31  C   UNL     1      11.183  13.579  20.115  0.00  0.00    +0.000 A 
ATOM     32  C   UNL     1      10.930  12.295  19.631  0.00  0.00    +0.000 A 
ENDBRANCH  26  27
ENDBRANCH  25  26
ENDBRANCH  22  25
ENDBRANCH  21  22
ENDBRANCH   5  21
TORSDOF 11
ENDMDL
MODEL 5
REMARK VINA RESULT:      -7.5      5.281      8.063
REMARK  Name = 
REMARK  12 active torsions:
REMARK  status: ('A' for Active; 'I' for Inactive)
REMARK    1  A    between atoms: C_1  and  O_2
REMARK    2  A    between atoms: O_2  and  C_3
REMARK    3  A    between atoms: C_3  and  C_5
REMARK    4  A    between atoms: C_6  and  C_7
REMARK    5  A    between atoms: N_9  and  C_10
REMARK    6  A    between atoms: C_10  and  C_11
REMARK    7  A    between atoms: N_19  and  C_20
REMARK    8  A    between atoms: C_20  and  C_21
REMARK    9  A    between atoms: C_21  and  O_22
REMARK   10  A    between atoms: C_21  and  C_23
REMARK   11  A    between atoms: C_23  and  O_24
REMARK   12  A    between atoms: O_24  and  C_25
REMARK                            x       y       z     vdW  Elec       q    Type
REMARK                         _______ _______ _______ _____ _____    ______ ____
ROOT
ATOM      1  C   UNL     1       2.674   6.309  18.865  0.00  0.00    +0.000 A 
ATOM      2  C   UNL     1       2.415   7.662  18.668  0.00  0.00    +0.000 A 
ATOM      3  N   UNL     1       3.184   8.160  17.633  0.00  0.00    +0.000 NA
ATOM      4  C   UNL     1       3.929   7.154  17.249  0.00  0.00    +0.000 A 
ATOM      5  N   UNL     1       3.706   6.025  17.985  0.00  0.00    +0.000 N 
ENDROOT
BRANCH   2   6
ATOM      6  C   UNL     1       1.513   8.515  19.440  0.00  0.00    +0.000 C 
ATOM      7  O   UNL     1       1.225   8.299  20.620  0.00  0.00    +0.000 OA
ATOM      8  N   UNL     1       1.034   9.607  18.757  0.00  0.00    +0.000 N 
ATOM      9  H   UNL     1       1.375   9.764  17.810  0.00  0.00    +0.000 HD
BRANCH   8  10
ATOM     10  C   UNL     1       0.130  10.528  19.396  0.00  0.00    +0.000 C 
BRANCH  10  11
ATOM     11  C   UNL     1      -1.179  10.634  18.664  0.00  0.00    +0.000 A 
ATOM     12  C   UNL     1      -1.411   9.867  17.516  0.00  0.00    +0.000 A 
ATOM     13  C   UNL     1      -2.619   9.977  16.825  0.00  0.00    +0.000 A 
ATOM     14  C   UNL     1      -3.604  10.855  17.274  0.00  0.00    +0.000 A 
ATOM     15  C   UNL     1      -3.388  11.616  18.422  0.00  0.00    +0.000 A 
ATOM     16  C   UNL     1      -2.181  11.508  19.113  0.00  0.00    +0.000 A 
ENDBRANCH  10  11
ENDBRANCH   8  10
ENDBRANCH   2   6
BRANCH   1  17
ATOM     17  C   UNL     1       2.073   5.361  19.770  0.00  0.00    +0.000 C 
ATOM     18  O   UNL     1       2.364   5.248  20.953  0.00  0.00    +0.000 OA
BRANCH  17  20
ATOM     19  C   UNL     1       1.002   3.277  19.693  0.00  0.00    +0.000 C 
ATOM     20  O   UNL     1       1.229   4.547  19.093  0.00  0.00    +0.000 OA
ENDBRANCH  17  20
ENDBRANCH   1  17
BRANCH   5  21
ATOM     21  C   UNL     1       4.362   4.723  17.899  0.00  0.00    +0.000 C 
BRANCH  21  22
ATOM     22  C   UNL     1       5.889   4.677  18.008  0.00  0.00    +0.000 C 
BRANCH  22  23
ATOM     23  O   UNL     1       6.274   3.838  19.102  0.00  0.00    +0.000 OA
ATOM     24  H   UNL     1       7.240   3.816  19.192  0.00  0.00    +0.000 HD
ENDBRANCH  22  23
BRANCH  22  25
ATOM     25  C   UNL     1       6.542   4.309  16.667  0.00  0.00    +0.000 C 
BRANCH  25  26
ATOM     26  O   UNL     1       5.565   4.356  15.633  0.00  0.00    +0.000 OA
BRANCH  26  27
ATOM     27  C   UNL     1       6.074   4.281  14.364  0.00  0.00    +0.000 A 
ATOM     28  C   UNL     1       7.186   5.088  14.135  0.00  0.00    +0.000 A 
ATOM     29  C   UNL     1       7.783   5.119  12.875  0.00  0.00    +0.000 A 
ATOM     30  C   UNL     1       7.280   4.324  11.846  0.00  0.00    +0.000 A 
ATOM     31  C   UNL     1       6.188   3.491  12.079  0.00  0.00    +0.000 A 
ATOM     32  C   UNL     1       5.587   3.466  13.338  0.00  0.00    +0.000 A 
ENDBRANCH  26  27
ENDBRANCH  25  26
ENDBRANCH  22  25
ENDBRANCH  21  22
ENDBRANCH   5  21
TORSDOF 11
ENDMDL
MODEL 6
REMARK VINA RESULT:      -7.5      5.043      8.041
REMARK  Name = 
REMARK  12 active torsions:
REMARK  status: ('A' for Active; 'I' for Inactive)
REMARK    1  A    between atoms: C_1  and  O_2
REMARK    2  A    between atoms: O_2  and  C_3
REMARK    3  A    between atoms: C_3  and  C_5
REMARK    4  A    between atoms: C_6  and  C_7
REMARK    5  A    between atoms: N_9  and  C_10
REMARK    6  A    between atoms: C_10  and  C_11
REMARK    7  A    between atoms: N_19  and  C_20
REMARK    8  A    between atoms: C_20  and  C_21
REMARK    9  A    between atoms: C_21  and  O_22
REMARK   10  A    between atoms: C_21  and  C_23
REMARK   11  A    between atoms: C_23  and  O_24
REMARK   12  A    between atoms: O_24  and  C_25
REMARK                            x       y       z     vdW  Elec       q    Type
REMARK                         _______ _______ _______ _____ _____    ______ ____
ROOT
ATOM      1  C   UNL     1       4.613   4.908  18.349  0.00  0.00    +0.000 A 
ATOM      2  C   UNL     1       3.730   5.940  18.650  0.00  0.00    +0.000 A 
ATOM      3  N   UNL     1       4.062   7.085  17.952  0.00  0.00    +0.000 NA
ATOM      4  C   UNL     1       5.147   6.776  17.288  0.00  0.00    +0.000 A 
ATOM      5  N   UNL     1       5.559   5.495  17.524  0.00  0.00    +0.000 N 
ENDROOT
BRANCH   2   6
ATOM      6  C   UNL     1       2.620   5.909  19.601  0.00  0.00    +0.000 C 
ATOM      7  O   UNL     1       2.077   4.865  19.970  0.00  0.00    +0.000 OA
ATOM      8  N   UNL     1       2.247   7.141  20.085  0.00  0.00    +0.000 N 
ATOM      9  H   UNL     1       2.791   7.951  19.794  0.00  0.00    +0.000 HD
BRANCH   8  10
ATOM     10  C   UNL     1       1.162   7.257  21.024  0.00  0.00    +0.000 C 
BRANCH  10  11
ATOM     11  C   UNL     1       0.673   8.673  21.151  0.00  0.00    +0.000 A 
ATOM     12  C   UNL     1       0.751   9.548  20.060  0.00  0.00    +0.000 A 
ATOM     13  C   UNL     1       0.315  10.868  20.182  0.00  0.00    +0.000 A 
ATOM     14  C   UNL     1      -0.202  11.326  21.393  0.00  0.00    +0.000 A 
ATOM     15  C   UNL     1      -0.295  10.460  22.481  0.00  0.00    +0.000 A 
ATOM     16  C   UNL     1       0.143   9.141  22.363  0.00  0.00    +0.000 A 
ENDBRANCH  10  11
ENDBRANCH   8  10
ENDBRANCH   2   6
BRANCH   1  17
ATOM     17  C   UNL     1       4.628   3.531  18.775  0.00  0.00    +0.000 C 
ATOM     18  O   UNL     1       5.285   3.099  19.713  0.00  0.00    +0.000 OA
BRANCH  17  20
ATOM     19  C   UNL     1       3.366   1.578  18.474  0.00  0.00    +0.000 C 
ATOM     20  O   UNL     1       3.898   2.775  17.919  0.00  0.00    +0.000 OA
ENDBRANCH  17  20
ENDBRANCH   1  17
BRANCH   5  21
ATOM     21  C   UNL     1       6.738   4.797  17.017  0.00  0.00    +0.000 C 
BRANCH  21  22
ATOM     22  C   UNL     1       6.621   4.066  15.676  0.00  0.00    +0.000 C 
BRANCH  22  23
ATOM     23  O   UNL     1       5.862   2.864  15.841  0.00  0.00    +0.000 OA
ATOM     24  H   UNL     1       5.857   2.348  15.019  0.00  0.00    +0.000 HD
ENDBRANCH  22  23
BRANCH  22  25
ATOM     25  C   UNL     1       6.101   4.995  14.568  0.00  0.00    +0.000 C 
BRANCH  25  26
ATOM     26  O   UNL     1       6.881   4.814  13.390  0.00  0.00    +0.000 OA
BRANCH  26  27
ATOM     27  C   UNL     1       6.471   3.783  12.589  0.00  0.00    +0.000 A 
ATOM     28  C   UNL     1       7.503   3.023  12.045  0.00  0.00    +0.000 A 
ATOM     29  C   UNL     1       7.216   1.957  11.192  0.00  0.00    +0.000 A 
ATOM     30  C   UNL     1       5.892   1.637  10.899  0.00  0.00    +0.000 A 
ATOM     31  C   UNL     1       4.855   2.374  11.465  0.00  0.00    +0.000 A 
ATOM     32  C   UNL     1       5.142   3.444  12.313  0.00  0.00    +0.000 A 
ENDBRANCH  26  27
ENDBRANCH  25  26
ENDBRANCH  22  25
ENDBRANCH  21  22
ENDBRANCH   5  21
TORSDOF 11
ENDMDL
MODEL 7
REMARK VINA RESULT:      -7.5      5.024      8.015
REMARK  Name = 
REMARK  12 active torsions:
REMARK  status: ('A' for Active; 'I' for Inactive)
REMARK    1  A    between atoms: C_1  and  O_2
REMARK    2  A    between atoms: O_2  and  C_3
REMARK    3  A    between atoms: C_3  and  C_5
REMARK    4  A    between atoms: C_6  and  C_7
REMARK    5  A    between atoms: N_9  and  C_10
REMARK    6  A    between atoms: C_10  and  C_11
REMARK    7  A    between atoms: N_19  and  C_20
REMARK    8  A    between atoms: C_20  and  C_21
REMARK    9  A    between atoms: C_21  and  O_22
REMARK   10  A    between atoms: C_21  and  C_23
REMARK   11  A    between atoms: C_23  and  O_24
REMARK   12  A    between atoms: O_24  and  C_25
REMARK                            x       y       z     vdW  Elec       q    Type
REMARK                         _______ _______ _______ _____ _____    ______ ____
ROOT
ATOM      1  C   UNL     1       4.664   5.501  18.456  0.00  0.00    +0.000 A 
ATOM      2  C   UNL     1       3.495   6.247  18.569  0.00  0.00    +0.000 A 
ATOM      3  N   UNL     1       3.403   7.167  17.542  0.00  0.00    +0.000 NA
ATOM      4  C   UNL     1       4.509   7.024  16.857  0.00  0.00    +0.000 A 
ATOM      5  N   UNL     1       5.334   6.072  17.386  0.00  0.00    +0.000 N 
ENDROOT
BRANCH   2   6
ATOM      6  C   UNL     1       2.488   6.163  19.625  0.00  0.00    +0.000 C 
ATOM      7  O   UNL     1       1.967   5.102  19.979  0.00  0.00    +0.000 OA
ATOM      8  N   UNL     1       2.189   7.363  20.226  0.00  0.00    +0.000 N 
ATOM      9  H   UNL     1       2.714   8.185  19.935  0.00  0.00    +0.000 HD
BRANCH   8  10
ATOM     10  C   UNL     1       1.208   7.426  21.278  0.00  0.00    +0.000 C 
BRANCH  10  11
ATOM     11  C   UNL     1       0.600   8.796  21.402  0.00  0.00    +0.000 A 
ATOM     12  C   UNL     1       0.069   9.227  22.624  0.00  0.00    +0.000 A 
ATOM     13  C   UNL     1      -0.510  10.491  22.735  0.00  0.00    +0.000 A 
ATOM     14  C   UNL     1      -0.565  11.336  21.628  0.00  0.00    +0.000 A 
ATOM     15  C   UNL     1      -0.029  10.923  20.410  0.00  0.00    +0.000 A 
ATOM     16  C   UNL     1       0.549   9.658  20.295  0.00  0.00    +0.000 A 
ENDBRANCH  10  11
ENDBRANCH   8  10
ENDBRANCH   2   6
BRANCH   1  17
ATOM     17  C   UNL     1       5.153   4.396  19.243  0.00  0.00    +0.000 C 
ATOM     18  O   UNL     1       6.067   4.469  20.053  0.00  0.00    +0.000 OA
BRANCH  17  20
ATOM     19  C   UNL     1       4.352   2.296  19.911  0.00  0.00    +0.000 C 
ATOM     20  O   UNL     1       4.527   3.253  18.872  0.00  0.00    +0.000 OA
ENDBRANCH  17  20
ENDBRANCH   1  17
BRANCH   5  21
ATOM     21  C   UNL     1       6.663   5.656  16.945  0.00  0.00    +0.000 C 
BRANCH  21  22
ATOM     22  C   UNL     1       6.759   4.572  15.867  0.00  0.00    +0.000 C 
BRANCH  22  23
ATOM     23  O   UNL     1       6.008   3.420  16.267  0.00  0.00    +0.000 OA
ATOM     24  H   UNL     1       5.903   2.807  15.523  0.00  0.00    +0.000 HD
ENDBRANCH  22  23
BRANCH  22  25
ATOM     25  C   UNL     1       6.390   5.118  14.480  0.00  0.00    +0.000 C 
BRANCH  25  26
ATOM     26  O   UNL     1       7.168   4.459  13.486  0.00  0.00    +0.000 OA
BRANCH  26  27
ATOM     27  C   UNL     1       6.448   3.671  12.629  0.00  0.00    +0.000 A 
ATOM     28  C   UNL     1       5.102   4.009  12.519  0.00  0.00    +0.000 A 
ATOM     29  C   UNL     1       4.257   3.266  11.695  0.00  0.00    +0.000 A 
ATOM     30  C   UNL     1       4.764   2.196  10.961  0.00  0.00    +0.000 A 
ATOM     31  C   UNL     1       6.117   1.874  11.042  0.00  0.00    +0.000 A 
ATOM     32  C   UNL     1       6.960   2.612  11.872  0.00  0.00    +0.000 A 
ENDBRANCH  26  27
ENDBRANCH  25  26
ENDBRANCH  22  25
ENDBRANCH  21  22
ENDBRANCH   5  21
TORSDOF 11
ENDMDL
MODEL 8
REMARK VINA RESULT:      -7.4      4.059      7.822
REMARK  Name = 
REMARK  12 active torsions:
REMARK  status: ('A' for Active; 'I' for Inactive)
REMARK    1  A    between atoms: C_1  and  O_2
REMARK    2  A    between atoms: O_2  and  C_3
REMARK    3  A    between atoms: C_3  and  C_5
REMARK    4  A    between atoms: C_6  and  C_7
REMARK    5  A    between atoms: N_9  and  C_10
REMARK    6  A    between atoms: C_10  and  C_11
REMARK    7  A    between atoms: N_19  and  C_20
REMARK    8  A    between atoms: C_20  and  C_21
REMARK    9  A    between atoms: C_21  and  O_22
REMARK   10  A    between atoms: C_21  and  C_23
REMARK   11  A    between atoms: C_23  and  O_24
REMARK   12  A    between atoms: O_24  and  C_25
REMARK                            x       y       z     vdW  Elec       q    Type
REMARK                         _______ _______ _______ _____ _____    ______ ____
ROOT
ATOM      1  C   UNL     1       5.134   4.506  18.152  0.00  0.00    +0.000 A 
ATOM      2  C   UNL     1       5.047   4.008  16.856  0.00  0.00    +0.000 A 
ATOM      3  N   UNL     1       3.888   3.274  16.692  0.00  0.00    +0.000 NA
ATOM      4  C   UNL     1       3.315   3.278  17.869  0.00  0.00    +0.000 A 
ATOM      5  N   UNL     1       4.040   3.960  18.804  0.00  0.00    +0.000 N 
ENDROOT
BRANCH   2   6
ATOM      6  C   UNL     1       6.028   4.153  15.782  0.00  0.00    +0.000 C 
ATOM      7  O   UNL     1       7.221   3.866  15.914  0.00  0.00    +0.000 OA
ATOM      8  N   UNL     1       5.510   4.604  14.591  0.00  0.00    +0.000 N 
ATOM      9  H   UNL     1       4.504   4.747  14.533  0.00  0.00    +0.000 HD
BRANCH   8  10
ATOM     10  C   UNL     1       6.367   4.799  13.450  0.00  0.00    +0.000 C 
BRANCH  10  11
ATOM     11  C   UNL     1       6.343   3.620  12.517  0.00  0.00    +0.000 A 
ATOM     12  C   UNL     1       5.131   2.996  12.198  0.00  0.00    +0.000 A 
ATOM     13  C   UNL     1       5.109   1.891  11.346  0.00  0.00    +0.000 A 
ATOM     14  C   UNL     1       6.297   1.399  10.807  0.00  0.00    +0.000 A 
ATOM     15  C   UNL     1       7.508   2.019  11.109  0.00  0.00    +0.000 A 
ATOM     16  C   UNL     1       7.533   3.123  11.962  0.00  0.00    +0.000 A 
ENDBRANCH  10  11
ENDBRANCH   8  10
ENDBRANCH   2   6
BRANCH   1  17
ATOM     17  C   UNL     1       6.114   5.370  18.762  0.00  0.00    +0.000 C 
ATOM     18  O   UNL     1       6.738   5.105  19.780  0.00  0.00    +0.000 OA
BRANCH  17  20
ATOM     19  C   UNL     1       7.456   6.984  17.717  0.00  0.00    +0.000 C 
ATOM     20  O   UNL     1       6.156   6.555  18.107  0.00  0.00    +0.000 OA
ENDBRANCH  17  20
ENDBRANCH   1  17
BRANCH   5  21
ATOM     21  C   UNL     1       3.766   4.150  20.226  0.00  0.00    +0.000 C 
BRANCH  21  22
ATOM     22  C   UNL     1       2.334   3.924  20.720  0.00  0.00    +0.000 C 
BRANCH  22  23
ATOM     23  O   UNL     1       2.354   3.429  22.063  0.00  0.00    +0.000 OA
ATOM     24  H   UNL     1       1.659   3.849  22.592  0.00  0.00    +0.000 HD
ENDBRANCH  22  23
BRANCH  22  25
ATOM     25  C   UNL     1       1.461   5.172  20.519  0.00  0.00    +0.000 C 
BRANCH  25  26
ATOM     26  O   UNL     1       2.226   6.339  20.804  0.00  0.00    +0.000 OA
BRANCH  26  27
ATOM     27  C   UNL     1       2.014   7.383  19.944  0.00  0.00    +0.000 A 
ATOM     28  C   UNL     1       2.561   7.212  18.675  0.00  0.00    +0.000 A 
ATOM     29  C   UNL     1       2.434   8.216  17.715  0.00  0.00    +0.000 A 
ATOM     30  C   UNL     1       1.740   9.385  18.018  0.00  0.00    +0.000 A 
ATOM     31  C   UNL     1       1.163   9.548  19.275  0.00  0.00    +0.000 A 
ATOM     32  C   UNL     1       1.296   8.547  20.238  0.00  0.00    +0.000 A 
ENDBRANCH  26  27
ENDBRANCH  25  26
ENDBRANCH  22  25
ENDBRANCH  21  22
ENDBRANCH   5  21
TORSDOF 11
ENDMDL
MODEL 9
REMARK VINA RESULT:      -7.3      5.052      8.248
REMARK  Name = 
REMARK  12 active torsions:
REMARK  status: ('A' for Active; 'I' for Inactive)
REMARK    1  A    between atoms: C_1  and  O_2
REMARK    2  A    between atoms: O_2  and  C_3
REMARK    3  A    between atoms: C_3  and  C_5
REMARK    4  A    between atoms: C_6  and  C_7
REMARK    5  A    between atoms: N_9  and  C_10
REMARK    6  A    between atoms: C_10  and  C_11
REMARK    7  A    between atoms: N_19  and  C_20
REMARK    8  A    between atoms: C_20  and  C_21
REMARK    9  A    between atoms: C_21  and  O_22
REMARK   10  A    between atoms: C_21  and  C_23
REMARK   11  A    between atoms: C_23  and  O_24
REMARK   12  A    between atoms: O_24  and  C_25
REMARK                            x       y       z     vdW  Elec       q    Type
REMARK                         _______ _______ _______ _____ _____    ______ ____
ROOT
ATOM      1  C   UNL     1       4.124   5.225  18.382  0.00  0.00    +0.000 A 
ATOM      2  C   UNL     1       3.220   6.220  18.741  0.00  0.00    +0.000 A 
ATOM      3  N   UNL     1       3.407   7.350  17.969  0.00  0.00    +0.000 NA
ATOM      4  C   UNL     1       4.430   7.072  17.201  0.00  0.00    +0.000 A 
ATOM      5  N   UNL     1       4.940   5.827  17.437  0.00  0.00    +0.000 N 
ENDROOT
BRANCH   2   6
ATOM      6  C   UNL     1       2.223   6.170  19.809  0.00  0.00    +0.000 C 
ATOM      7  O   UNL     1       1.674   5.126  20.171  0.00  0.00    +0.000 OA
ATOM      8  N   UNL     1       1.967   7.379  20.410  0.00  0.00    +0.000 N 
ATOM      9  H   UNL     1       2.514   8.184  20.111  0.00  0.00    +0.000 HD
BRANCH   8  10
ATOM     10  C   UNL     1       1.001   7.475  21.473  0.00  0.00    +0.000 C 
BRANCH  10  11
ATOM     11  C   UNL     1       0.396   8.849  21.565  0.00  0.00    +0.000 A 
ATOM     12  C   UNL     1       0.401   9.699  20.452  0.00  0.00    +0.000 A 
ATOM     13  C   UNL     1      -0.144  10.980  20.540  0.00  0.00    +0.000 A 
ATOM     14  C   UNL     1      -0.698  11.424  21.740  0.00  0.00    +0.000 A 
ATOM     15  C   UNL     1      -0.718  10.582  22.851  0.00  0.00    +0.000 A 
ATOM     16  C   UNL     1      -0.172   9.301  22.765  0.00  0.00    +0.000 A 
ENDBRANCH  10  11
ENDBRANCH   8  10
ENDBRANCH   2   6
BRANCH   1  17
ATOM     17  C   UNL     1       4.265   3.870  18.855  0.00  0.00    +0.000 C 
ATOM     18  O   UNL     1       5.081   3.506  19.691  0.00  0.00    +0.000 OA
BRANCH  17  20
ATOM     19  C   UNL     1       3.409   1.702  18.610  0.00  0.00    +0.000 C 
ATOM     20  O   UNL     1       3.443   3.051  18.157  0.00  0.00    +0.000 OA
ENDBRANCH  17  20
ENDBRANCH   1  17
BRANCH   5  21
ATOM     21  C   UNL     1       6.095   5.172  16.829  0.00  0.00    +0.000 C 
BRANCH  21  22
ATOM     22  C   UNL     1       6.418   5.493  15.366  0.00  0.00    +0.000 C 
BRANCH  22  23
ATOM     23  O   UNL     1       7.800   5.840  15.238  0.00  0.00    +0.000 OA
ATOM     24  H   UNL     1       7.896   6.737  14.882  0.00  0.00    +0.000 HD
ENDBRANCH  22  23
BRANCH  22  25
ATOM     25  C   UNL     1       5.956   4.371  14.425  0.00  0.00    +0.000 C 
BRANCH  25  26
ATOM     26  O   UNL     1       6.698   4.432  13.211  0.00  0.00    +0.000 OA
BRANCH  26  27
ATOM     27  C   UNL     1       6.466   3.394  12.349  0.00  0.00    +0.000 A 
ATOM     28  C   UNL     1       5.124   3.176  12.047  0.00  0.00    +0.000 A 
ATOM     29  C   UNL     1       4.755   2.133  11.198  0.00  0.00    +0.000 A 
ATOM     30  C   UNL     1       5.733   1.318  10.632  0.00  0.00    +0.000 A 
ATOM     31  C   UNL     1       7.079   1.551  10.904  0.00  0.00    +0.000 A 
ATOM     32  C   UNL     1       7.447   2.591  11.759  0.00  0.00    +0.000 A 
ENDBRANCH  26  27
ENDBRANCH  25  26
ENDBRANCH  22  25
ENDBRANCH  21  22
ENDBRANCH   5  21
TORSDOF 11
ENDMDL
