MODEL 1
REMARK VINA RESULT:      -8.2      0.000      0.000
REMARK  Name = 
REMARK  9 active torsions:
REMARK  status: ('A' for Active; 'I' for Inactive)
REMARK    1  A    between atoms: C_1  and  C_2
REMARK    2  A    between atoms: C_2  and  C_3
REMARK    3  A    between atoms: C_3  and  O_4
REMARK    4  A    between atoms: C_9  and  C_10
REMARK    5  A    between atoms: C_11  and  C_12
REMARK    6  A    between atoms: C_12  and  C_13
REMARK    7  A    between atoms: C_13  and  C_14
REMARK    8  A    between atoms: C_20  and  C_21
REMARK    9  A    between atoms: C_21  and  O_22
REMARK                            x       y       z     vdW  Elec       q    Type
REMARK                         _______ _______ _______ _____ _____    ______ ____
ROOT
ATOM      1  C   UNL     1       4.798   1.864  20.718  0.00  0.00    +0.000 C 
ATOM      2  C   UNL     1       3.741   2.617  19.868  0.00  0.00    +0.000 C 
ATOM      3  C   UNL     1       2.532   2.790  20.817  0.00  0.00    +0.000 C 
ATOM      4  O   UNL     1       2.612   2.625  22.037  0.00  0.00    +0.000 OA
ATOM      5  C   UNL     1       1.294   3.435  20.257  0.00  0.00    +0.000 C 
ATOM      6  C   UNL     1       1.645   4.854  19.785  0.00  0.00    +0.000 C 
ATOM      7  C   UNL     1       2.734   4.792  18.654  0.00  0.00    +0.000 C 
ATOM      8  C   UNL     1       1.908   4.194  17.452  0.00  0.00    +0.000 C 
ATOM      9  C   UNL     1       3.218   6.124  18.041  0.00  0.00    +0.000 C 
ATOM     10  C   UNL     1       4.422   6.087  17.397  0.00  0.00    +0.000 C 
ATOM     11  C   UNL     1       5.580   5.810  18.341  0.00  0.00    +0.000 C 
ATOM     12  C   UNL     1       5.455   4.431  19.001  0.00  0.00    +0.000 C 
ATOM     13  C   UNL     1       4.010   4.102  19.446  0.00  0.00    +0.000 C 
ENDROOT
BRANCH   2  14
ATOM     14  C   UNL     1       3.596   1.742  18.616  0.00  0.00    +0.000 C 
BRANCH  14  15
ATOM     15  O   UNL     1       4.445   0.611  18.656  0.00  0.00    +0.000 OA
ATOM     16  H   UNL     1       3.940  -0.114  19.065  0.00  0.00    +0.000 HD
ENDBRANCH  14  15
ENDBRANCH   2  14
BRANCH   9  17
ATOM     17  C   UNL     1       2.165   7.232  18.058  0.00  0.00    +0.000 C 
BRANCH  17  18
ATOM     18  C   UNL     1       2.255   8.568  18.799  0.00  0.00    +0.000 C 
BRANCH  18  19
ATOM     19  C   UNL     1       1.309   8.851  19.901  0.00  0.00    +0.000 C 
ATOM     20  C   UNL     1       1.158   8.316  21.114  0.00  0.00    +0.000 C 
ATOM     21  C   UNL     1       0.023   8.930  21.825  0.00  0.00    +0.000 C 
ATOM     22  O   UNL     1      -0.459   9.923  20.924  0.00  0.00    +0.000 OA
ATOM     23  C   UNL     1       0.287   9.903  19.782  0.00  0.00    +0.000 C 
ATOM     24  O   UNL     1       0.139  10.638  18.840  0.00  0.00    +0.000 OA
ENDBRANCH  18  19
ENDBRANCH  17  18
ENDBRANCH   9  17
BRANCH  10  25
ATOM     25  C   UNL     1       4.671   5.260  16.108  0.00  0.00    +0.000 C 
BRANCH  25  26
ATOM     26  O   UNL     1       5.667   5.844  15.264  0.00  0.00    +0.000 OA
ATOM     27  H   UNL     1       5.216   6.237  14.496  0.00  0.00    +0.000 HD
ENDBRANCH  25  26
ENDBRANCH  10  25
TORSDOF 7
ENDMDL
MODEL 2
REMARK VINA RESULT:      -8.2      0.655      1.172
REMARK  Name = 
REMARK  9 active torsions:
REMARK  status: ('A' for Active; 'I' for Inactive)
REMARK    1  A    between atoms: C_1  and  C_2
REMARK    2  A    between atoms: C_2  and  C_3
REMARK    3  A    between atoms: C_3  and  O_4
REMARK    4  A    between atoms: C_9  and  C_10
REMARK    5  A    between atoms: C_11  and  C_12
REMARK    6  A    between atoms: C_12  and  C_13
REMARK    7  A    between atoms: C_13  and  C_14
REMARK    8  A    between atoms: C_20  and  C_21
REMARK    9  A    between atoms: C_21  and  O_22
REMARK                            x       y       z     vdW  Elec       q    Type
REMARK                         _______ _______ _______ _____ _____    ______ ____
ROOT
ATOM      1  C   UNL     1       4.792   1.833  20.774  0.00  0.00    +0.000 C 
ATOM      2  C   UNL     1       3.753   2.574  19.891  0.00  0.00    +0.000 C 
ATOM      3  C   UNL     1       2.521   2.750  20.810  0.00  0.00    +0.000 C 
ATOM      4  O   UNL     1       2.573   2.598  22.034  0.00  0.00    +0.000 OA
ATOM      5  C   UNL     1       1.293   3.385  20.214  0.00  0.00    +0.000 C 
ATOM      6  C   UNL     1       1.650   4.801  19.737  0.00  0.00    +0.000 C 
ATOM      7  C   UNL     1       2.766   4.732  18.633  0.00  0.00    +0.000 C 
ATOM      8  C   UNL     1       1.971   4.119  17.418  0.00  0.00    +0.000 C 
ATOM      9  C   UNL     1       3.259   6.060  18.019  0.00  0.00    +0.000 C 
ATOM     10  C   UNL     1       4.478   6.022  17.404  0.00  0.00    +0.000 C 
ATOM     11  C   UNL     1       5.615   5.759  18.377  0.00  0.00    +0.000 C 
ATOM     12  C   UNL     1       5.479   4.386  19.048  0.00  0.00    +0.000 C 
ATOM     13  C   UNL     1       4.025   4.055  19.462  0.00  0.00    +0.000 C 
ENDROOT
BRANCH   2  14
ATOM     14  C   UNL     1       3.640   1.686  18.646  0.00  0.00    +0.000 C 
BRANCH  14  15
ATOM     15  O   UNL     1       4.470   0.543  18.730  0.00  0.00    +0.000 OA
ATOM     16  H   UNL     1       5.373   0.825  18.500  0.00  0.00    +0.000 HD
ENDBRANCH  14  15
ENDBRANCH   2  14
BRANCH   9  17
ATOM     17  C   UNL     1       2.201   7.164  17.999  0.00  0.00    +0.000 C 
BRANCH  17  18
ATOM     18  C   UNL     1       2.371   8.602  18.494  0.00  0.00    +0.000 C 
BRANCH  18  19
ATOM     19  C   UNL     1       1.204   9.321  19.049  0.00  0.00    +0.000 C 
ATOM     20  C   UNL     1       0.315  10.150  18.498  0.00  0.00    +0.000 C 
ATOM     21  C   UNL     1      -0.645  10.640  19.503  0.00  0.00    +0.000 C 
ATOM     22  O   UNL     1      -0.263   9.977  20.704  0.00  0.00    +0.000 OA
ATOM     23  C   UNL     1       0.822   9.185  20.463  0.00  0.00    +0.000 C 
ATOM     24  O   UNL     1       1.366   8.482  21.275  0.00  0.00    +0.000 OA
ENDBRANCH  18  19
ENDBRANCH  17  18
ENDBRANCH   9  17
BRANCH  10  25
ATOM     25  C   UNL     1       4.761   5.184  16.129  0.00  0.00    +0.000 C 
BRANCH  25  26
ATOM     26  O   UNL     1       5.466   5.924  15.129  0.00  0.00    +0.000 OA
ATOM     27  H   UNL     1       4.927   6.700  14.895  0.00  0.00    +0.000 HD
ENDBRANCH  25  26
ENDBRANCH  10  25
TORSDOF 7
ENDMDL
MODEL 3
REMARK VINA RESULT:      -8.2      1.071      1.330
REMARK  Name = 
REMARK  9 active torsions:
REMARK  status: ('A' for Active; 'I' for Inactive)
REMARK    1  A    between atoms: C_1  and  C_2
REMARK    2  A    between atoms: C_2  and  C_3
REMARK    3  A    between atoms: C_3  and  O_4
REMARK    4  A    between atoms: C_9  and  C_10
REMARK    5  A    between atoms: C_11  and  C_12
REMARK    6  A    between atoms: C_12  and  C_13
REMARK    7  A    between atoms: C_13  and  C_14
REMARK    8  A    between atoms: C_20  and  C_21
REMARK    9  A    between atoms: C_21  and  O_22
REMARK                            x       y       z     vdW  Elec       q    Type
REMARK                         _______ _______ _______ _____ _____    ______ ____
ROOT
ATOM      1  C   UNL     1       4.794   1.862  20.622  0.00  0.00    +0.000 C 
ATOM      2  C   UNL     1       3.734   2.667  19.824  0.00  0.00    +0.000 C 
ATOM      3  C   UNL     1       2.544   2.813  20.801  0.00  0.00    +0.000 C 
ATOM      4  O   UNL     1       2.642   2.592  22.011  0.00  0.00    +0.000 OA
ATOM      5  C   UNL     1       1.305   3.500  20.292  0.00  0.00    +0.000 C 
ATOM      6  C   UNL     1       1.669   4.934  19.879  0.00  0.00    +0.000 C 
ATOM      7  C   UNL     1       2.738   4.908  18.727  0.00  0.00    +0.000 C 
ATOM      8  C   UNL     1       1.883   4.376  17.514  0.00  0.00    +0.000 C 
ATOM      9  C   UNL     1       3.231   6.259  18.167  0.00  0.00    +0.000 C 
ATOM     10  C   UNL     1       4.422   6.236  17.501  0.00  0.00    +0.000 C 
ATOM     11  C   UNL     1       5.593   5.900  18.410  0.00  0.00    +0.000 C 
ATOM     12  C   UNL     1       5.459   4.495  19.010  0.00  0.00    +0.000 C 
ATOM     13  C   UNL     1       4.017   4.165  19.465  0.00  0.00    +0.000 C 
ENDROOT
BRANCH   2  14
ATOM     14  C   UNL     1       3.555   1.852  18.538  0.00  0.00    +0.000 C 
BRANCH  14  15
ATOM     15  O   UNL     1       4.353   0.684  18.532  0.00  0.00    +0.000 OA
ATOM     16  H   UNL     1       4.003   0.092  19.221  0.00  0.00    +0.000 HD
ENDBRANCH  14  15
ENDBRANCH   2  14
BRANCH   9  17
ATOM     17  C   UNL     1       2.194   7.380  18.251  0.00  0.00    +0.000 C 
BRANCH  17  18
ATOM     18  C   UNL     1       2.429   8.866  17.973  0.00  0.00    +0.000 C 
BRANCH  18  19
ATOM     19  C   UNL     1       1.505   9.867  18.550  0.00  0.00    +0.000 C 
ATOM     20  C   UNL     1       0.379   9.747  19.256  0.00  0.00    +0.000 C 
ATOM     21  C   UNL     1      -0.197  11.068  19.562  0.00  0.00    +0.000 C 
ATOM     22  O   UNL     1       0.730  11.993  19.002  0.00  0.00    +0.000 OA
ATOM     23  C   UNL     1       1.751  11.310  18.405  0.00  0.00    +0.000 C 
ATOM     24  O   UNL     1       2.700  11.812  17.861  0.00  0.00    +0.000 OA
ENDBRANCH  18  19
ENDBRANCH  17  18
ENDBRANCH   9  17
BRANCH  10  25
ATOM     25  C   UNL     1       4.638   5.464  16.172  0.00  0.00    +0.000 C 
BRANCH  25  26
ATOM     26  O   UNL     1       5.753   5.957  15.425  0.00  0.00    +0.000 OA
ATOM     27  H   UNL     1       5.516   6.834  15.074  0.00  0.00    +0.000 HD
ENDBRANCH  25  26
ENDBRANCH  10  25
TORSDOF 7
ENDMDL
MODEL 4
REMARK VINA RESULT:      -8.0      1.208      1.683
REMARK  Name = 
REMARK  9 active torsions:
REMARK  status: ('A' for Active; 'I' for Inactive)
REMARK    1  A    between atoms: C_1  and  C_2
REMARK    2  A    between atoms: C_2  and  C_3
REMARK    3  A    between atoms: C_3  and  O_4
REMARK    4  A    between atoms: C_9  and  C_10
REMARK    5  A    between atoms: C_11  and  C_12
REMARK    6  A    between atoms: C_12  and  C_13
REMARK    7  A    between atoms: C_13  and  C_14
REMARK    8  A    between atoms: C_20  and  C_21
REMARK    9  A    between atoms: C_21  and  O_22
REMARK                            x       y       z     vdW  Elec       q    Type
REMARK                         _______ _______ _______ _____ _____    ______ ____
ROOT
ATOM      1  C   UNL     1       4.668   1.743  20.478  0.00  0.00    +0.000 C 
ATOM      2  C   UNL     1       3.639   2.703  19.825  0.00  0.00    +0.000 C 
ATOM      3  C   UNL     1       2.518   2.845  20.881  0.00  0.00    +0.000 C 
ATOM      4  O   UNL     1       2.660   2.500  22.057  0.00  0.00    +0.000 OA
ATOM      5  C   UNL     1       1.317   3.674  20.514  0.00  0.00    +0.000 C 
ATOM      6  C   UNL     1       1.778   5.109  20.216  0.00  0.00    +0.000 C 
ATOM      7  C   UNL     1       2.779   5.112  19.004  0.00  0.00    +0.000 C 
ATOM      8  C   UNL     1       1.820   4.771  17.801  0.00  0.00    +0.000 C 
ATOM      9  C   UNL     1       3.354   6.469  18.544  0.00  0.00    +0.000 C 
ATOM     10  C   UNL     1       4.503   6.417  17.808  0.00  0.00    +0.000 C 
ATOM     11  C   UNL     1       5.687   5.903  18.611  0.00  0.00    +0.000 C 
ATOM     12  C   UNL     1       5.466   4.460  19.083  0.00  0.00    +0.000 C 
ATOM     13  C   UNL     1       4.027   4.202  19.591  0.00  0.00    +0.000 C 
ENDROOT
BRANCH   2  14
ATOM     14  C   UNL     1       3.325   2.035  18.481  0.00  0.00    +0.000 C 
BRANCH  14  15
ATOM     15  O   UNL     1       2.087   1.350  18.503  0.00  0.00    +0.000 OA
ATOM     16  H   UNL     1       1.528   1.785  19.170  0.00  0.00    +0.000 HD
ENDBRANCH  14  15
ENDBRANCH   2  14
BRANCH   9  17
ATOM     17  C   UNL     1       2.420   7.654  18.796  0.00  0.00    +0.000 C 
BRANCH  17  18
ATOM     18  C   UNL     1       1.990   8.711  17.776  0.00  0.00    +0.000 C 
BRANCH  18  19
ATOM     19  C   UNL     1       1.765  10.103  18.225  0.00  0.00    +0.000 C 
ATOM     20  C   UNL     1       2.353  11.256  17.901  0.00  0.00    +0.000 C 
ATOM     21  C   UNL     1       1.784  12.374  18.673  0.00  0.00    +0.000 C 
ATOM     22  O   UNL     1       0.759  11.772  19.458  0.00  0.00    +0.000 OA
ATOM     23  C   UNL     1       0.721  10.431  19.208  0.00  0.00    +0.000 C 
ATOM     24  O   UNL     1      -0.052   9.652  19.702  0.00  0.00    +0.000 OA
ENDBRANCH  18  19
ENDBRANCH  17  18
ENDBRANCH   9  17
BRANCH  10  25
ATOM     25  C   UNL     1       4.583   5.766  16.403  0.00  0.00    +0.000 C 
BRANCH  25  26
ATOM     26  O   UNL     1       5.261   6.591  15.452  0.00  0.00    +0.000 OA
ATOM     27  H   UNL     1       5.641   7.350  15.930  0.00  0.00    +0.000 HD
ENDBRANCH  25  26
ENDBRANCH  10  25
TORSDOF 7
ENDMDL
MODEL 5
REMARK VINA RESULT:      -7.5      3.164      6.423
REMARK  Name = 
REMARK  9 active torsions:
REMARK  status: ('A' for Active; 'I' for Inactive)
REMARK    1  A    between atoms: C_1  and  C_2
REMARK    2  A    between atoms: C_2  and  C_3
REMARK    3  A    between atoms: C_3  and  O_4
REMARK    4  A    between atoms: C_9  and  C_10
REMARK    5  A    between atoms: C_11  and  C_12
REMARK    6  A    between atoms: C_12  and  C_13
REMARK    7  A    between atoms: C_13  and  C_14
REMARK    8  A    between atoms: C_20  and  C_21
REMARK    9  A    between atoms: C_21  and  O_22
REMARK                            x       y       z     vdW  Elec       q    Type
REMARK                         _______ _______ _______ _____ _____    ______ ____
ROOT
ATOM      1  C   UNL     1       0.529   4.549  20.530  0.00  0.00    +0.000 C 
ATOM      2  C   UNL     1       1.771   3.833  19.935  0.00  0.00    +0.000 C 
ATOM      3  C   UNL     1       1.187   2.653  19.125  0.00  0.00    +0.000 C 
ATOM      4  O   UNL     1      -0.007   2.578  18.819  0.00  0.00    +0.000 OA
ATOM      5  C   UNL     1       2.158   1.708  18.470  0.00  0.00    +0.000 C 
ATOM      6  C   UNL     1       3.020   2.497  17.473  0.00  0.00    +0.000 C 
ATOM      7  C   UNL     1       3.833   3.611  18.228  0.00  0.00    +0.000 C 
ATOM      8  C   UNL     1       4.883   2.750  19.026  0.00  0.00    +0.000 C 
ATOM      9  C   UNL     1       4.769   4.513  17.394  0.00  0.00    +0.000 C 
ATOM     10  C   UNL     1       5.122   5.703  17.964  0.00  0.00    +0.000 C 
ATOM     11  C   UNL     1       3.941   6.646  18.123  0.00  0.00    +0.000 C 
ATOM     12  C   UNL     1       2.878   6.068  19.065  0.00  0.00    +0.000 C 
ATOM     13  C   UNL     1       2.625   4.558  18.841  0.00  0.00    +0.000 C 
ENDROOT
BRANCH   2  14
ATOM     14  C   UNL     1       2.643   3.543  21.164  0.00  0.00    +0.000 C 
BRANCH  14  15
ATOM     15  O   UNL     1       2.126   2.484  21.945  0.00  0.00    +0.000 OA
ATOM     16  H   UNL     1       1.599   1.918  21.353  0.00  0.00    +0.000 HD
ENDBRANCH  14  15
ENDBRANCH   2  14
BRANCH   9  17
ATOM     17  C   UNL     1       5.338   3.832  16.149  0.00  0.00    +0.000 C 
BRANCH  17  18
ATOM     18  C   UNL     1       6.625   4.205  15.410  0.00  0.00    +0.000 C 
BRANCH  18  19
ATOM     19  C   UNL     1       6.671   4.102  13.935  0.00  0.00    +0.000 C 
ATOM     20  C   UNL     1       5.998   3.345  13.067  0.00  0.00    +0.000 C 
ATOM     21  C   UNL     1       6.450   3.592  11.687  0.00  0.00    +0.000 C 
ATOM     22  O   UNL     1       7.434   4.613  11.819  0.00  0.00    +0.000 OA
ATOM     23  C   UNL     1       7.580   4.939  13.137  0.00  0.00    +0.000 C 
ATOM     24  O   UNL     1       8.321   5.784  13.568  0.00  0.00    +0.000 OA
ENDBRANCH  18  19
ENDBRANCH  17  18
ENDBRANCH   9  17
BRANCH  10  25
ATOM     25  C   UNL     1       5.970   5.806  19.258  0.00  0.00    +0.000 C 
BRANCH  25  26
ATOM     26  O   UNL     1       7.266   5.218  19.115  0.00  0.00    +0.000 OA
ATOM     27  H   UNL     1       7.172   4.255  19.222  0.00  0.00    +0.000 HD
ENDBRANCH  25  26
ENDBRANCH  10  25
TORSDOF 7
ENDMDL
MODEL 6
REMARK VINA RESULT:      -7.3      3.220      6.440
REMARK  Name = 
REMARK  9 active torsions:
REMARK  status: ('A' for Active; 'I' for Inactive)
REMARK    1  A    between atoms: C_1  and  C_2
REMARK    2  A    between atoms: C_2  and  C_3
REMARK    3  A    between atoms: C_3  and  O_4
REMARK    4  A    between atoms: C_9  and  C_10
REMARK    5  A    between atoms: C_11  and  C_12
REMARK    6  A    between atoms: C_12  and  C_13
REMARK    7  A    between atoms: C_13  and  C_14
REMARK    8  A    between atoms: C_20  and  C_21
REMARK    9  A    between atoms: C_21  and  O_22
REMARK                            x       y       z     vdW  Elec       q    Type
REMARK                         _______ _______ _______ _____ _____    ______ ____
ROOT
ATOM      1  C   UNL     1       0.544   4.706  20.403  0.00  0.00    +0.000 C 
ATOM      2  C   UNL     1       1.796   3.929  19.914  0.00  0.00    +0.000 C 
ATOM      3  C   UNL     1       1.224   2.681  19.204  0.00  0.00    +0.000 C 
ATOM      4  O   UNL     1       0.039   2.585  18.872  0.00  0.00    +0.000 OA
ATOM      5  C   UNL     1       2.204   1.672  18.670  0.00  0.00    +0.000 C 
ATOM      6  C   UNL     1       3.101   2.358  17.627  0.00  0.00    +0.000 C 
ATOM      7  C   UNL     1       3.902   3.533  18.295  0.00  0.00    +0.000 C 
ATOM      8  C   UNL     1       4.922   2.745  19.202  0.00  0.00    +0.000 C 
ATOM      9  C   UNL     1       4.868   4.346  17.406  0.00  0.00    +0.000 C 
ATOM     10  C   UNL     1       5.216   5.582  17.871  0.00  0.00    +0.000 C 
ATOM     11  C   UNL     1       4.040   6.544  17.906  0.00  0.00    +0.000 C 
ATOM     12  C   UNL     1       2.946   6.065  18.868  0.00  0.00    +0.000 C 
ATOM     13  C   UNL     1       2.686   4.542  18.781  0.00  0.00    +0.000 C 
ENDROOT
BRANCH   2  14
ATOM     14  C   UNL     1       2.630   3.753  21.189  0.00  0.00    +0.000 C 
BRANCH  14  15
ATOM     15  O   UNL     1       2.096   2.758  22.042  0.00  0.00    +0.000 OA
ATOM     16  H   UNL     1       2.748   2.602  22.747  0.00  0.00    +0.000 HD
ENDBRANCH  14  15
ENDBRANCH   2  14
BRANCH   9  17
ATOM     17  C   UNL     1       5.466   3.546  16.248  0.00  0.00    +0.000 C 
BRANCH  17  18
ATOM     18  C   UNL     1       5.135   3.704  14.762  0.00  0.00    +0.000 C 
BRANCH  18  19
ATOM     19  C   UNL     1       6.192   4.150  13.828  0.00  0.00    +0.000 C 
ATOM     20  C   UNL     1       7.183   5.034  13.951  0.00  0.00    +0.000 C 
ATOM     21  C   UNL     1       7.948   5.149  12.697  0.00  0.00    +0.000 C 
ATOM     22  O   UNL     1       7.335   4.203  11.825  0.00  0.00    +0.000 OA
ATOM     23  C   UNL     1       6.299   3.592  12.471  0.00  0.00    +0.000 C 
ATOM     24  O   UNL     1       5.600   2.730  12.006  0.00  0.00    +0.000 OA
ENDBRANCH  18  19
ENDBRANCH  17  18
ENDBRANCH   9  17
BRANCH  10  25
ATOM     25  C   UNL     1       6.029   5.803  19.173  0.00  0.00    +0.000 C 
BRANCH  25  26
ATOM     26  O   UNL     1       7.307   5.162  19.139  0.00  0.00    +0.000 OA
ATOM     27  H   UNL     1       7.620   5.165  18.217  0.00  0.00    +0.000 HD
ENDBRANCH  25  26
ENDBRANCH  10  25
TORSDOF 7
ENDMDL
MODEL 7
REMARK VINA RESULT:      -7.1      1.513      4.373
REMARK  Name = 
REMARK  9 active torsions:
REMARK  status: ('A' for Active; 'I' for Inactive)
REMARK    1  A    between atoms: C_1  and  C_2
REMARK    2  A    between atoms: C_2  and  C_3
REMARK    3  A    between atoms: C_3  and  O_4
REMARK    4  A    between atoms: C_9  and  C_10
REMARK    5  A    between atoms: C_11  and  C_12
REMARK    6  A    between atoms: C_12  and  C_13
REMARK    7  A    between atoms: C_13  and  C_14
REMARK    8  A    between atoms: C_20  and  C_21
REMARK    9  A    between atoms: C_21  and  O_22
REMARK                            x       y       z     vdW  Elec       q    Type
REMARK                         _______ _______ _______ _____ _____    ______ ____
ROOT
ATOM      1  C   UNL     1       5.248   4.291  14.477  0.00  0.00    +0.000 C 
ATOM      2  C   UNL     1       5.387   4.778  15.944  0.00  0.00    +0.000 C 
ATOM      3  C   UNL     1       5.483   6.317  15.833  0.00  0.00    +0.000 C 
ATOM      4  O   UNL     1       5.181   6.933  14.807  0.00  0.00    +0.000 OA
ATOM      5  C   UNL     1       5.697   7.095  17.104  0.00  0.00    +0.000 C 
ATOM      6  C   UNL     1       4.518   6.829  18.052  0.00  0.00    +0.000 C 
ATOM      7  C   UNL     1       4.446   5.299  18.405  0.00  0.00    +0.000 C 
ATOM      8  C   UNL     1       5.712   5.128  19.329  0.00  0.00    +0.000 C 
ATOM      9  C   UNL     1       3.325   4.829  19.357  0.00  0.00    +0.000 C 
ATOM     10  C   UNL     1       3.019   3.499  19.315  0.00  0.00    +0.000 C 
ATOM     11  C   UNL     1       2.410   3.082  17.987  0.00  0.00    +0.000 C 
ATOM     12  C   UNL     1       3.391   3.289  16.826  0.00  0.00    +0.000 C 
ATOM     13  C   UNL     1       4.175   4.619  16.924  0.00  0.00    +0.000 C 
ENDROOT
BRANCH   2  14
ATOM     14  C   UNL     1       6.588   3.986  16.475  0.00  0.00    +0.000 C 
BRANCH  14  15
ATOM     15  O   UNL     1       7.818   4.608  16.157  0.00  0.00    +0.000 OA
ATOM     16  H   UNL     1       8.276   4.032  15.519  0.00  0.00    +0.000 HD
ENDBRANCH  14  15
ENDBRANCH   2  14
BRANCH   9  17
ATOM     17  C   UNL     1       2.883   5.891  20.365  0.00  0.00    +0.000 C 
BRANCH  17  18
ATOM     18  C   UNL     1       1.469   6.450  20.543  0.00  0.00    +0.000 C 
BRANCH  18  19
ATOM     19  C   UNL     1       1.284   7.905  20.741  0.00  0.00    +0.000 C 
ATOM     20  C   UNL     1       1.043   8.638  21.830  0.00  0.00    +0.000 C 
ATOM     21  C   UNL     1       0.897  10.063  21.485  0.00  0.00    +0.000 C 
ATOM     22  O   UNL     1       1.124  10.109  20.080  0.00  0.00    +0.000 OA
ATOM     23  C   UNL     1       1.363   8.848  19.615  0.00  0.00    +0.000 C 
ATOM     24  O   UNL     1       1.611   8.561  18.472  0.00  0.00    +0.000 OA
ENDBRANCH  18  19
ENDBRANCH  17  18
ENDBRANCH   9  17
BRANCH  10  25
ATOM     25  C   UNL     1       4.013   2.385  19.735  0.00  0.00    +0.000 C 
BRANCH  25  26
ATOM     26  O   UNL     1       4.098   2.229  21.154  0.00  0.00    +0.000 OA
ATOM     27  H   UNL     1       3.280   2.586  21.544  0.00  0.00    +0.000 HD
ENDBRANCH  25  26
ENDBRANCH  10  25
TORSDOF 7
ENDMDL
MODEL 8
REMARK VINA RESULT:      -7.1      1.453      4.324
REMARK  Name = 
REMARK  9 active torsions:
REMARK  status: ('A' for Active; 'I' for Inactive)
REMARK    1  A    between atoms: C_1  and  C_2
REMARK    2  A    between atoms: C_2  and  C_3
REMARK    3  A    between atoms: C_3  and  O_4
REMARK    4  A    between atoms: C_9  and  C_10
REMARK    5  A    between atoms: C_11  and  C_12
REMARK    6  A    between atoms: C_12  and  C_13
REMARK    7  A    between atoms: C_13  and  C_14
REMARK    8  A    between atoms: C_20  and  C_21
REMARK    9  A    between atoms: C_21  and  O_22
REMARK                            x       y       z     vdW  Elec       q    Type
REMARK                         _______ _______ _______ _____ _____    ______ ____
ROOT
ATOM      1  C   UNL     1       5.997   3.827  15.101  0.00  0.00    +0.000 C 
ATOM      2  C   UNL     1       5.569   4.584  16.387  0.00  0.00    +0.000 C 
ATOM      3  C   UNL     1       5.380   6.049  15.928  0.00  0.00    +0.000 C 
ATOM      4  O   UNL     1       5.294   6.372  14.740  0.00  0.00    +0.000 OA
ATOM      5  C   UNL     1       5.025   7.067  16.978  0.00  0.00    +0.000 C 
ATOM      6  C   UNL     1       3.689   6.668  17.623  0.00  0.00    +0.000 C 
ATOM      7  C   UNL     1       3.823   5.261  18.312  0.00  0.00    +0.000 C 
ATOM      8  C   UNL     1       4.745   5.600  19.545  0.00  0.00    +0.000 C 
ATOM      9  C   UNL     1       2.581   4.685  19.026  0.00  0.00    +0.000 C 
ATOM     10  C   UNL     1       2.581   3.336  19.236  0.00  0.00    +0.000 C 
ATOM     11  C   UNL     1       2.515   2.544  17.940  0.00  0.00    +0.000 C 
ATOM     12  C   UNL     1       3.744   2.797  17.059  0.00  0.00    +0.000 C 
ATOM     13  C   UNL     1       4.172   4.284  17.026  0.00  0.00    +0.000 C 
ENDROOT
BRANCH   2  14
ATOM     14  C   UNL     1       6.680   4.248  17.389  0.00  0.00    +0.000 C 
BRANCH  14  15
ATOM     15  O   UNL     1       7.969   4.404  16.827  0.00  0.00    +0.000 OA
ATOM     16  H   UNL     1       8.479   4.975  17.429  0.00  0.00    +0.000 HD
ENDBRANCH  14  15
ENDBRANCH   2  14
BRANCH   9  17
ATOM     17  C   UNL     1       1.641   5.751  19.591  0.00  0.00    +0.000 C 
BRANCH  17  18
ATOM     18  C   UNL     1       2.021   6.902  20.525  0.00  0.00    +0.000 C 
BRANCH  18  19
ATOM     19  C   UNL     1       1.555   8.272  20.215  0.00  0.00    +0.000 C 
ATOM     20  C   UNL     1       1.409   8.930  19.063  0.00  0.00    +0.000 C 
ATOM     21  C   UNL     1       0.944  10.309  19.298  0.00  0.00    +0.000 C 
ATOM     22  O   UNL     1       0.783  10.388  20.711  0.00  0.00    +0.000 OA
ATOM     23  C   UNL     1       1.130   9.195  21.278  0.00  0.00    +0.000 C 
ATOM     24  O   UNL     1       1.081   8.942  22.453  0.00  0.00    +0.000 OA
ENDBRANCH  18  19
ENDBRANCH  17  18
ENDBRANCH   9  17
BRANCH  10  25
ATOM     25  C   UNL     1       3.600   2.619  20.160  0.00  0.00    +0.000 C 
BRANCH  25  26
ATOM     26  O   UNL     1       3.178   2.590  21.526  0.00  0.00    +0.000 OA
ATOM     27  H   UNL     1       2.277   2.957  21.570  0.00  0.00    +0.000 HD
ENDBRANCH  25  26
ENDBRANCH  10  25
TORSDOF 7
ENDMDL
MODEL 9
REMARK VINA RESULT:      -7.0      1.780      4.260
REMARK  Name = 
REMARK  9 active torsions:
REMARK  status: ('A' for Active; 'I' for Inactive)
REMARK    1  A    between atoms: C_1  and  C_2
REMARK    2  A    between atoms: C_2  and  C_3
REMARK    3  A    between atoms: C_3  and  O_4
REMARK    4  A    between atoms: C_9  and  C_10
REMARK    5  A    between atoms: C_11  and  C_12
REMARK    6  A    between atoms: C_12  and  C_13
REMARK    7  A    between atoms: C_13  and  C_14
REMARK    8  A    between atoms: C_20  and  C_21
REMARK    9  A    between atoms: C_21  and  O_22
REMARK                            x       y       z     vdW  Elec       q    Type
REMARK                         _______ _______ _______ _____ _____    ______ ____
ROOT
ATOM      1  C   UNL     1       5.647   3.454  15.411  0.00  0.00    +0.000 C 
ATOM      2  C   UNL     1       5.399   4.437  16.586  0.00  0.00    +0.000 C 
ATOM      3  C   UNL     1       5.819   5.818  16.030  0.00  0.00    +0.000 C 
ATOM      4  O   UNL     1       5.985   6.030  14.825  0.00  0.00    +0.000 OA
ATOM      5  C   UNL     1       5.760   6.994  16.967  0.00  0.00    +0.000 C 
ATOM      6  C   UNL     1       4.312   7.172  17.447  0.00  0.00    +0.000 C 
ATOM      7  C   UNL     1       3.839   5.888  18.221  0.00  0.00    +0.000 C 
ATOM      8  C   UNL     1       4.685   5.989  19.547  0.00  0.00    +0.000 C 
ATOM      9  C   UNL     1       2.404   5.876  18.791  0.00  0.00    +0.000 C 
ATOM     10  C   UNL     1       1.879   4.647  19.070  0.00  0.00    +0.000 C 
ATOM     11  C   UNL     1       1.659   3.809  17.821  0.00  0.00    +0.000 C 
ATOM     12  C   UNL     1       2.980   3.510  17.101  0.00  0.00    +0.000 C 
ATOM     13  C   UNL     1       3.931   4.729  17.047  0.00  0.00    +0.000 C 
ENDROOT
BRANCH   2  14
ATOM     14  C   UNL     1       6.193   3.821  17.745  0.00  0.00    +0.000 C 
BRANCH  14  15
ATOM     15  O   UNL     1       7.547   4.230  17.740  0.00  0.00    +0.000 OA
ATOM     16  H   UNL     1       7.957   3.861  16.938  0.00  0.00    +0.000 HD
ENDBRANCH  14  15
ENDBRANCH   2  14
BRANCH   9  17
ATOM     17  C   UNL     1       1.875   7.260  19.167  0.00  0.00    +0.000 C 
BRANCH  17  18
ATOM     18  C   UNL     1       1.593   7.778  20.580  0.00  0.00    +0.000 C 
BRANCH  18  19
ATOM     19  C   UNL     1       0.938   9.094  20.752  0.00  0.00    +0.000 C 
ATOM     20  C   UNL     1       0.227   9.858  19.921  0.00  0.00    +0.000 C 
ATOM     21  C   UNL     1      -0.174  11.117  20.572  0.00  0.00    +0.000 C 
ATOM     22  O   UNL     1       0.334  11.003  21.898  0.00  0.00    +0.000 OA
ATOM     23  C   UNL     1       0.989   9.813  22.034  0.00  0.00    +0.000 C 
ATOM     24  O   UNL     1       1.510   9.416  23.045  0.00  0.00    +0.000 OA
ENDBRANCH  18  19
ENDBRANCH  17  18
ENDBRANCH   9  17
BRANCH  10  25
ATOM     25  C   UNL     1       2.454   3.704  20.159  0.00  0.00    +0.000 C 
BRANCH  25  26
ATOM     26  O   UNL     1       2.222   4.189  21.485  0.00  0.00    +0.000 OA
ATOM     27  H   UNL     1       2.323   5.157  21.471  0.00  0.00    +0.000 HD
ENDBRANCH  25  26
ENDBRANCH  10  25
TORSDOF 7
ENDMDL
