MODEL 1
REMARK VINA RESULT:      -8.8      0.000      0.000
REMARK  Name = 
REMARK  6 active torsions:
REMARK  status: ('A' for Active; 'I' for Inactive)
REMARK    1  A    between atoms: N_1  and  C_2
REMARK    2  A    between atoms: C_3  and  C_4
REMARK    3  A    between atoms: N_6  and  C_7
REMARK    4  A    between atoms: C_7  and  C_8
REMARK    5  A    between atoms: C_18  and  C_19
REMARK    6  A    between atoms: C_28  and  C_29
REMARK                            x       y       z     vdW  Elec       q    Type
REMARK                         _______ _______ _______ _____ _____    ______ ____
ROOT
ATOM      1  C   UNL     1       4.664   4.923  17.900  0.00  0.00    +0.000 A 
ATOM      2  C   UNL     1       5.344   5.468  16.825  0.00  0.00    +0.000 A 
ATOM      3  S   UNL     1       4.889   7.105  16.598  0.00  0.00    +0.000 S 
ATOM      4  C   UNL     1       3.737   7.060  17.870  0.00  0.00    +0.000 A 
ATOM      5  N   UNL     1       3.019   8.177  18.183  0.00  0.00    +0.000 NA
ATOM      6  C   UNL     1       2.160   7.992  19.202  0.00  0.00    +0.000 A 
ATOM      7  C   UNL     1       1.976   6.792  19.874  0.00  0.00    +0.000 A 
ATOM      8  C   UNL     1       2.705   5.657  19.521  0.00  0.00    +0.000 A 
ATOM      9  C   UNL     1       3.666   5.799  18.478  0.00  0.00    +0.000 A 
ATOM     10  C   UNL     1       0.957   6.888  20.956  0.00  0.00    +0.000 C 
ATOM     11  C   UNL     1       0.544   8.342  20.940  0.00  0.00    +0.000 C 
ATOM     12  C   UNL     1       1.285   9.020  19.804  0.00  0.00    +0.000 C 
ATOM     13  C   UNL     1       1.093  10.310  19.470  0.00  0.00    +0.000 C 
ENDROOT
BRANCH   8  14
ATOM     14  C   UNL     1       2.482   4.384  20.200  0.00  0.00    +0.000 A 
ATOM     15  C   UNL     1       2.562   3.964  21.514  0.00  0.00    +0.000 A 
ATOM     16  C   UNL     1       2.139   2.616  21.550  0.00  0.00    +0.000 A 
ATOM     17  C   UNL     1       1.834   2.281  20.254  0.00  0.00    +0.000 A 
ATOM     18  O   UNL     1       2.015   3.349  19.434  0.00  0.00    +0.000 OA
ENDBRANCH   8  14
BRANCH  13  19
ATOM     19  C   UNL     1       0.209  11.140  20.245  0.00  0.00    +0.000 A 
ATOM     20  C   UNL     1      -1.115  11.510  20.021  0.00  0.00    +0.000 A 
ATOM     21  C   UNL     1      -1.553  12.297  21.120  0.00  0.00    +0.000 A 
ATOM     22  C   UNL     1      -0.475  12.400  21.959  0.00  0.00    +0.000 A 
ATOM     23  O   UNL     1       0.579  11.735  21.440  0.00  0.00    +0.000 OA
ENDBRANCH  13  19
BRANCH   2  24
ATOM     24  C   UNL     1       6.317   4.773  15.972  0.00  0.00    +0.000 C 
ATOM     25  O   UNL     1       7.363   4.295  16.410  0.00  0.00    +0.000 OA
ATOM     26  N   UNL     1       6.018   4.678  14.628  0.00  0.00    +0.000 N 
ATOM     27  H   UNL     1       5.222   5.189  14.275  0.00  0.00    +0.000 HD
BRANCH  26  28
ATOM     28  C   UNL     1       6.932   4.093  13.655  0.00  0.00    +0.000 C 
BRANCH  28  29
ATOM     29  C   UNL     1       6.265   3.768  12.312  0.00  0.00    +0.000 C 
ATOM     30  C   UNL     1       4.749   3.659  12.340  0.00  0.00    +0.000 C 
ATOM     31  C   UNL     1       4.473   2.695  11.215  0.00  0.00    +0.000 C 
ATOM     32  C   UNL     1       5.663   1.761  11.284  0.00  0.00    +0.000 C 
ATOM     33  O   UNL     1       6.767   2.515  11.802  0.00  0.00    +0.000 OA
ENDBRANCH  28  29
ENDBRANCH  26  28
ENDBRANCH   2  24
BRANCH   1  34
ATOM     34  N   UNL     1       4.937   3.676  18.358  0.00  0.00    +0.000 N 
ATOM     35  H   UNL     1       5.104   3.525  19.356  0.00  0.00    +0.000 HD
ATOM     36  H   UNL     1       5.475   3.032  17.780  0.00  0.00    +0.000 HD
ENDBRANCH   1  34
TORSDOF 6
ENDMDL
MODEL 2
REMARK VINA RESULT:      -8.6      0.992      1.180
REMARK  Name = 
REMARK  6 active torsions:
REMARK  status: ('A' for Active; 'I' for Inactive)
REMARK    1  A    between atoms: N_1  and  C_2
REMARK    2  A    between atoms: C_3  and  C_4
REMARK    3  A    between atoms: N_6  and  C_7
REMARK    4  A    between atoms: C_7  and  C_8
REMARK    5  A    between atoms: C_18  and  C_19
REMARK    6  A    between atoms: C_28  and  C_29
REMARK                            x       y       z     vdW  Elec       q    Type
REMARK                         _______ _______ _______ _____ _____    ______ ____
ROOT
ATOM      1  C   UNL     1       4.083   5.272  18.160  0.00  0.00    +0.000 A 
ATOM      2  C   UNL     1       4.798   5.790  17.094  0.00  0.00    +0.000 A 
ATOM      3  S   UNL     1       4.442   7.454  16.889  0.00  0.00    +0.000 S 
ATOM      4  C   UNL     1       3.284   7.460  18.157  0.00  0.00    +0.000 A 
ATOM      5  N   UNL     1       2.632   8.613  18.483  0.00  0.00    +0.000 NA
ATOM      6  C   UNL     1       1.758   8.464  19.497  0.00  0.00    +0.000 A 
ATOM      7  C   UNL     1       1.501   7.268  20.151  0.00  0.00    +0.000 A 
ATOM      8  C   UNL     1       2.163   6.097  19.784  0.00  0.00    +0.000 A 
ATOM      9  C   UNL     1       3.136   6.197  18.746  0.00  0.00    +0.000 A 
ATOM     10  C   UNL     1       0.486   7.408  21.231  0.00  0.00    +0.000 C 
ATOM     11  C   UNL     1       0.159   8.885  21.234  0.00  0.00    +0.000 C 
ATOM     12  C   UNL     1       0.944   9.534  20.110  0.00  0.00    +0.000 C 
ATOM     13  C   UNL     1       0.829  10.837  19.794  0.00  0.00    +0.000 C 
ENDROOT
BRANCH   8  14
ATOM     14  C   UNL     1       1.863   4.830  20.443  0.00  0.00    +0.000 A 
ATOM     15  C   UNL     1       0.912   3.844  20.253  0.00  0.00    +0.000 A 
ATOM     16  C   UNL     1       1.193   2.808  21.173  0.00  0.00    +0.000 A 
ATOM     17  C   UNL     1       2.293   3.222  21.883  0.00  0.00    +0.000 A 
ATOM     18  O   UNL     1       2.719   4.431  21.435  0.00  0.00    +0.000 OA
ENDBRANCH   8  14
BRANCH  13  19
ATOM     19  C   UNL     1      -0.008  11.707  20.578  0.00  0.00    +0.000 A 
ATOM     20  C   UNL     1      -1.325  12.115  20.383  0.00  0.00    +0.000 A 
ATOM     21  C   UNL     1      -1.709  12.932  21.480  0.00  0.00    +0.000 A 
ATOM     22  C   UNL     1      -0.606  13.016  22.288  0.00  0.00    +0.000 A 
ATOM     23  O   UNL     1       0.413  12.310  21.752  0.00  0.00    +0.000 OA
ENDBRANCH  13  19
BRANCH   2  24
ATOM     24  C   UNL     1       5.732   5.052  16.235  0.00  0.00    +0.000 C 
ATOM     25  O   UNL     1       6.415   4.114  16.646  0.00  0.00    +0.000 OA
ATOM     26  N   UNL     1       5.828   5.457  14.919  0.00  0.00    +0.000 N 
ATOM     27  H   UNL     1       5.356   6.305  14.641  0.00  0.00    +0.000 HD
BRANCH  26  28
ATOM     28  C   UNL     1       6.775   4.870  13.979  0.00  0.00    +0.000 C 
BRANCH  28  29
ATOM     29  C   UNL     1       6.258   3.591  13.310  0.00  0.00    +0.000 C 
ATOM     30  C   UNL     1       6.918   3.227  11.990  0.00  0.00    +0.000 C 
ATOM     31  C   UNL     1       5.824   2.470  11.279  0.00  0.00    +0.000 C 
ATOM     32  C   UNL     1       4.575   3.187  11.745  0.00  0.00    +0.000 C 
ATOM     33  O   UNL     1       4.842   3.704  13.054  0.00  0.00    +0.000 OA
ENDBRANCH  28  29
ENDBRANCH  26  28
ENDBRANCH   2  24
BRANCH   1  34
ATOM     34  N   UNL     1       4.280   4.004  18.600  0.00  0.00    +0.000 N 
ATOM     35  H   UNL     1       4.535   3.838  19.577  0.00  0.00    +0.000 HD
ATOM     36  H   UNL     1       4.688   3.310  17.976  0.00  0.00    +0.000 HD
ENDBRANCH   1  34
TORSDOF 6
ENDMDL
MODEL 3
REMARK VINA RESULT:      -7.3      0.952      1.131
REMARK  Name = 
REMARK  6 active torsions:
REMARK  status: ('A' for Active; 'I' for Inactive)
REMARK    1  A    between atoms: N_1  and  C_2
REMARK    2  A    between atoms: C_3  and  C_4
REMARK    3  A    between atoms: N_6  and  C_7
REMARK    4  A    between atoms: C_7  and  C_8
REMARK    5  A    between atoms: C_18  and  C_19
REMARK    6  A    between atoms: C_28  and  C_29
REMARK                            x       y       z     vdW  Elec       q    Type
REMARK                         _______ _______ _______ _____ _____    ______ ____
ROOT
ATOM      1  C   UNL     1       4.971   5.057  17.370  0.00  0.00    +0.000 A 
ATOM      2  C   UNL     1       5.558   5.801  16.361  0.00  0.00    +0.000 A 
ATOM      3  S   UNL     1       4.964   7.408  16.382  0.00  0.00    +0.000 S 
ATOM      4  C   UNL     1       3.877   7.091  17.672  0.00  0.00    +0.000 A 
ATOM      5  N   UNL     1       3.087   8.089  18.163  0.00  0.00    +0.000 NA
ATOM      6  C   UNL     1       2.290   7.692  19.173  0.00  0.00    +0.000 A 
ATOM      7  C   UNL     1       2.232   6.400  19.675  0.00  0.00    +0.000 A 
ATOM      8  C   UNL     1       3.033   5.391  19.141  0.00  0.00    +0.000 A 
ATOM      9  C   UNL     1       3.933   5.757  18.098  0.00  0.00    +0.000 A 
ATOM     10  C   UNL     1       1.259   6.258  20.792  0.00  0.00    +0.000 C 
ATOM     11  C   UNL     1       0.730   7.661  20.994  0.00  0.00    +0.000 C 
ATOM     12  C   UNL     1       1.364   8.550  19.942  0.00  0.00    +0.000 C 
ATOM     13  C   UNL     1       1.055   9.852  19.799  0.00  0.00    +0.000 C 
ENDROOT
BRANCH   8  14
ATOM     14  C   UNL     1       2.943   4.022  19.640  0.00  0.00    +0.000 A 
ATOM     15  C   UNL     1       1.994   3.021  19.545  0.00  0.00    +0.000 A 
ATOM     16  C   UNL     1       2.529   1.875  20.178  0.00  0.00    +0.000 A 
ATOM     17  C   UNL     1       3.769   2.242  20.637  0.00  0.00    +0.000 A 
ATOM     18  O   UNL     1       4.039   3.530  20.297  0.00  0.00    +0.000 OA
ENDBRANCH   8  14
BRANCH  13  19
ATOM     19  C   UNL     1       0.142  10.489  20.712  0.00  0.00    +0.000 A 
ATOM     20  C   UNL     1       0.098  10.478  22.104  0.00  0.00    +0.000 A 
ATOM     21  C   UNL     1      -0.968  11.316  22.526  0.00  0.00    +0.000 A 
ATOM     22  C   UNL     1      -1.552  11.785  21.378  0.00  0.00    +0.000 A 
ATOM     23  O   UNL     1      -0.913  11.285  20.298  0.00  0.00    +0.000 OA
ENDBRANCH  13  19
BRANCH   2  24
ATOM     24  C   UNL     1       6.544   5.316  15.388  0.00  0.00    +0.000 C 
ATOM     25  O   UNL     1       7.714   5.699  15.378  0.00  0.00    +0.000 OA
ATOM     26  N   UNL     1       6.106   4.399  14.454  0.00  0.00    +0.000 N 
ATOM     27  H   UNL     1       5.118   4.199  14.402  0.00  0.00    +0.000 HD
BRANCH  26  28
ATOM     28  C   UNL     1       6.954   3.900  13.378  0.00  0.00    +0.000 C 
BRANCH  28  29
ATOM     29  C   UNL     1       6.181   3.584  12.091  0.00  0.00    +0.000 C 
ATOM     30  C   UNL     1       4.668   3.526  12.229  0.00  0.00    +0.000 C 
ATOM     31  C   UNL     1       4.280   2.561  11.138  0.00  0.00    +0.000 C 
ATOM     32  C   UNL     1       5.440   1.589  11.133  0.00  0.00    +0.000 C 
ATOM     33  O   UNL     1       6.603   2.310  11.561  0.00  0.00    +0.000 OA
ENDBRANCH  28  29
ENDBRANCH  26  28
ENDBRANCH   2  24
BRANCH   1  34
ATOM     34  N   UNL     1       5.363   3.786  17.639  0.00  0.00    +0.000 N 
ATOM     35  H   UNL     1       5.660   3.173  16.875  0.00  0.00    +0.000 HD
ATOM     36  H   UNL     1       4.916   3.267  18.393  0.00  0.00    +0.000 HD
ENDBRANCH   1  34
TORSDOF 6
ENDMDL
MODEL 4
REMARK VINA RESULT:      -7.3      1.300      1.646
REMARK  Name = 
REMARK  6 active torsions:
REMARK  status: ('A' for Active; 'I' for Inactive)
REMARK    1  A    between atoms: N_1  and  C_2
REMARK    2  A    between atoms: C_3  and  C_4
REMARK    3  A    between atoms: N_6  and  C_7
REMARK    4  A    between atoms: C_7  and  C_8
REMARK    5  A    between atoms: C_18  and  C_19
REMARK    6  A    between atoms: C_28  and  C_29
REMARK                            x       y       z     vdW  Elec       q    Type
REMARK                         _______ _______ _______ _____ _____    ______ ____
ROOT
ATOM      1  C   UNL     1       3.990   5.386  18.427  0.00  0.00    +0.000 A 
ATOM      2  C   UNL     1       4.722   5.953  17.399  0.00  0.00    +0.000 A 
ATOM      3  S   UNL     1       4.321   7.610  17.224  0.00  0.00    +0.000 S 
ATOM      4  C   UNL     1       3.125   7.549  18.454  0.00  0.00    +0.000 A 
ATOM      5  N   UNL     1       2.429   8.673  18.788  0.00  0.00    +0.000 NA
ATOM      6  C   UNL     1       1.529   8.472  19.770  0.00  0.00    +0.000 A 
ATOM      7  C   UNL     1       1.289   7.253  20.385  0.00  0.00    +0.000 A 
ATOM      8  C   UNL     1       1.998   6.112  20.010  0.00  0.00    +0.000 A 
ATOM      9  C   UNL     1       2.998   6.267  19.007  0.00  0.00    +0.000 A 
ATOM     10  C   UNL     1       0.237   7.334  21.436  0.00  0.00    +0.000 C 
ATOM     11  C   UNL     1      -0.135   8.800  21.465  0.00  0.00    +0.000 C 
ATOM     12  C   UNL     1       0.664   9.501  20.383  0.00  0.00    +0.000 C 
ATOM     13  C   UNL     1       0.519  10.808  20.096  0.00  0.00    +0.000 C 
ENDROOT
BRANCH   8  14
ATOM     14  C   UNL     1       1.716   4.820  20.629  0.00  0.00    +0.000 A 
ATOM     15  C   UNL     1       0.792   3.818  20.394  0.00  0.00    +0.000 A 
ATOM     16  C   UNL     1       1.082   2.763  21.288  0.00  0.00    +0.000 A 
ATOM     17  C   UNL     1       2.159   3.181  22.029  0.00  0.00    +0.000 A 
ATOM     18  O   UNL     1       2.564   4.412  21.623  0.00  0.00    +0.000 OA
ENDBRANCH   8  14
BRANCH  13  19
ATOM     19  C   UNL     1      -0.368  11.632  20.875  0.00  0.00    +0.000 A 
ATOM     20  C   UNL     1      -1.670  12.056  20.619  0.00  0.00    +0.000 A 
ATOM     21  C   UNL     1      -2.124  12.807  21.735  0.00  0.00    +0.000 A 
ATOM     22  C   UNL     1      -1.077  12.837  22.618  0.00  0.00    +0.000 A 
ATOM     23  O   UNL     1      -0.025  12.161  22.109  0.00  0.00    +0.000 OA
ENDBRANCH  13  19
BRANCH   2  24
ATOM     24  C   UNL     1       5.704   5.265  16.551  0.00  0.00    +0.000 C 
ATOM     25  O   UNL     1       6.902   5.551  16.553  0.00  0.00    +0.000 OA
ATOM     26  N   UNL     1       5.229   4.268  15.724  0.00  0.00    +0.000 N 
ATOM     27  H   UNL     1       4.230   4.141  15.646  0.00  0.00    +0.000 HD
BRANCH  26  28
ATOM     28  C   UNL     1       6.076   3.563  14.769  0.00  0.00    +0.000 C 
BRANCH  28  29
ATOM     29  C   UNL     1       6.244   4.308  13.438  0.00  0.00    +0.000 C 
ATOM     30  C   UNL     1       6.625   3.445  12.246  0.00  0.00    +0.000 C 
ATOM     31  C   UNL     1       7.381   4.413  11.374  0.00  0.00    +0.000 C 
ATOM     32  C   UNL     1       8.083   5.289  12.390  0.00  0.00    +0.000 C 
ATOM     33  O   UNL     1       7.262   5.322  13.564  0.00  0.00    +0.000 OA
ENDBRANCH  28  29
ENDBRANCH  26  28
ENDBRANCH   2  24
BRANCH   1  34
ATOM     34  N   UNL     1       4.213   4.114  18.843  0.00  0.00    +0.000 N 
ATOM     35  H   UNL     1       3.490   3.616  19.367  0.00  0.00    +0.000 HD
ATOM     36  H   UNL     1       5.151   3.830  19.121  0.00  0.00    +0.000 HD
ENDBRANCH   1  34
TORSDOF 6
ENDMDL
MODEL 5
REMARK VINA RESULT:      -7.3      2.066      9.149
REMARK  Name = 
REMARK  6 active torsions:
REMARK  status: ('A' for Active; 'I' for Inactive)
REMARK    1  A    between atoms: N_1  and  C_2
REMARK    2  A    between atoms: C_3  and  C_4
REMARK    3  A    between atoms: N_6  and  C_7
REMARK    4  A    between atoms: C_7  and  C_8
REMARK    5  A    between atoms: C_18  and  C_19
REMARK    6  A    between atoms: C_28  and  C_29
REMARK                            x       y       z     vdW  Elec       q    Type
REMARK                         _______ _______ _______ _____ _____    ______ ____
ROOT
ATOM      1  C   UNL     1       1.317   7.686  20.177  0.00  0.00    +0.000 A 
ATOM      2  C   UNL     1       1.336   9.056  19.977  0.00  0.00    +0.000 A 
ATOM      3  S   UNL     1       2.309   9.449  18.623  0.00  0.00    +0.000 S 
ATOM      4  C   UNL     1       2.765   7.815  18.356  0.00  0.00    +0.000 A 
ATOM      5  N   UNL     1       3.588   7.495  17.316  0.00  0.00    +0.000 NA
ATOM      6  C   UNL     1       3.853   6.178  17.232  0.00  0.00    +0.000 A 
ATOM      7  C   UNL     1       3.378   5.216  18.111  0.00  0.00    +0.000 A 
ATOM      8  C   UNL     1       2.556   5.571  19.181  0.00  0.00    +0.000 A 
ATOM      9  C   UNL     1       2.200   6.946  19.300  0.00  0.00    +0.000 A 
ATOM     10  C   UNL     1       3.838   3.842  17.768  0.00  0.00    +0.000 C 
ATOM     11  C   UNL     1       4.634   4.032  16.497  0.00  0.00    +0.000 C 
ATOM     12  C   UNL     1       4.665   5.517  16.189  0.00  0.00    +0.000 C 
ATOM     13  C   UNL     1       5.353   6.037  15.155  0.00  0.00    +0.000 C 
ENDROOT
BRANCH   8  14
ATOM     14  C   UNL     1       2.090   4.566  20.131  0.00  0.00    +0.000 A 
ATOM     15  C   UNL     1       1.034   3.673  20.151  0.00  0.00    +0.000 A 
ATOM     16  C   UNL     1       1.165   2.895  21.324  0.00  0.00    +0.000 A 
ATOM     17  C   UNL     1       2.286   3.362  21.963  0.00  0.00    +0.000 A 
ATOM     18  O   UNL     1       2.865   4.355  21.239  0.00  0.00    +0.000 OA
ENDBRANCH   8  14
BRANCH  13  19
ATOM     19  C   UNL     1       6.043   5.175  14.231  0.00  0.00    +0.000 A 
ATOM     20  C   UNL     1       5.607   4.042  13.549  0.00  0.00    +0.000 A 
ATOM     21  C   UNL     1       6.660   3.589  12.711  0.00  0.00    +0.000 A 
ATOM     22  C   UNL     1       7.708   4.443  12.932  0.00  0.00    +0.000 A 
ATOM     23  O   UNL     1       7.359   5.374  13.846  0.00  0.00    +0.000 OA
ENDBRANCH  13  19
BRANCH   2  24
ATOM     24  C   UNL     1       0.642  10.061  20.793  0.00  0.00    +0.000 C 
ATOM     25  O   UNL     1       0.925  10.271  21.973  0.00  0.00    +0.000 OA
ATOM     26  N   UNL     1      -0.369  10.775  20.183  0.00  0.00    +0.000 N 
ATOM     27  H   UNL     1      -0.667  10.495  19.260  0.00  0.00    +0.000 HD
BRANCH  26  28
ATOM     28  C   UNL     1      -1.197  11.739  20.897  0.00  0.00    +0.000 C 
BRANCH  28  29
ATOM     29  C   UNL     1      -2.244  12.420  20.007  0.00  0.00    +0.000 C 
ATOM     30  C   UNL     1      -3.598  12.667  20.654  0.00  0.00    +0.000 C 
ATOM     31  C   UNL     1      -4.533  12.634  19.473  0.00  0.00    +0.000 C 
ATOM     32  C   UNL     1      -3.894  11.593  18.578  0.00  0.00    +0.000 C 
ATOM     33  O   UNL     1      -2.483  11.626  18.827  0.00  0.00    +0.000 OA
ENDBRANCH  28  29
ENDBRANCH  26  28
ENDBRANCH   2  24
BRANCH   1  34
ATOM     34  N   UNL     1       0.521   7.114  21.114  0.00  0.00    +0.000 N 
ATOM     35  H   UNL     1       0.294   6.119  21.051  0.00  0.00    +0.000 HD
ATOM     36  H   UNL     1      -0.237   7.653  21.531  0.00  0.00    +0.000 HD
ENDBRANCH   1  34
TORSDOF 6
ENDMDL
MODEL 6
REMARK VINA RESULT:      -7.1      2.028      9.165
REMARK  Name = 
REMARK  6 active torsions:
REMARK  status: ('A' for Active; 'I' for Inactive)
REMARK    1  A    between atoms: N_1  and  C_2
REMARK    2  A    between atoms: C_3  and  C_4
REMARK    3  A    between atoms: N_6  and  C_7
REMARK    4  A    between atoms: C_7  and  C_8
REMARK    5  A    between atoms: C_18  and  C_19
REMARK    6  A    between atoms: C_28  and  C_29
REMARK                            x       y       z     vdW  Elec       q    Type
REMARK                         _______ _______ _______ _____ _____    ______ ____
ROOT
ATOM      1  C   UNL     1       1.358   7.656  20.302  0.00  0.00    +0.000 A 
ATOM      2  C   UNL     1       1.396   9.027  20.121  0.00  0.00    +0.000 A 
ATOM      3  S   UNL     1       2.362   9.423  18.761  0.00  0.00    +0.000 S 
ATOM      4  C   UNL     1       2.788   7.786  18.468  0.00  0.00    +0.000 A 
ATOM      5  N   UNL     1       3.594   7.467  17.415  0.00  0.00    +0.000 NA
ATOM      6  C   UNL     1       3.838   6.147  17.309  0.00  0.00    +0.000 A 
ATOM      7  C   UNL     1       3.356   5.181  18.181  0.00  0.00    +0.000 A 
ATOM      8  C   UNL     1       2.552   5.535  19.265  0.00  0.00    +0.000 A 
ATOM      9  C   UNL     1       2.219   6.913  19.406  0.00  0.00    +0.000 A 
ATOM     10  C   UNL     1       3.790   3.805  17.814  0.00  0.00    +0.000 C 
ATOM     11  C   UNL     1       4.577   3.999  16.537  0.00  0.00    +0.000 C 
ATOM     12  C   UNL     1       4.628   5.488  16.249  0.00  0.00    +0.000 C 
ATOM     13  C   UNL     1       5.313   6.010  15.215  0.00  0.00    +0.000 C 
ENDROOT
BRANCH   8  14
ATOM     14  C   UNL     1       2.079   4.524  20.206  0.00  0.00    +0.000 A 
ATOM     15  C   UNL     1       1.009   3.649  20.226  0.00  0.00    +0.000 A 
ATOM     16  C   UNL     1       1.141   2.852  21.386  0.00  0.00    +0.000 A 
ATOM     17  C   UNL     1       2.277   3.291  22.018  0.00  0.00    +0.000 A 
ATOM     18  O   UNL     1       2.865   4.284  21.302  0.00  0.00    +0.000 OA
ENDBRANCH   8  14
BRANCH  13  19
ATOM     19  C   UNL     1       5.980   5.150  14.273  0.00  0.00    +0.000 A 
ATOM     20  C   UNL     1       5.524   4.021  13.596  0.00  0.00    +0.000 A 
ATOM     21  C   UNL     1       6.556   3.568  12.733  0.00  0.00    +0.000 A 
ATOM     22  C   UNL     1       7.612   4.419  12.933  0.00  0.00    +0.000 A 
ATOM     23  O   UNL     1       7.287   5.347  13.858  0.00  0.00    +0.000 OA
ENDBRANCH  13  19
BRANCH   2  24
ATOM     24  C   UNL     1       0.728  10.032  20.957  0.00  0.00    +0.000 C 
ATOM     25  O   UNL     1       0.775  10.012  22.187  0.00  0.00    +0.000 OA
ATOM     26  N   UNL     1       0.019  11.020  20.305  0.00  0.00    +0.000 N 
ATOM     27  H   UNL     1      -0.112  10.941  19.307  0.00  0.00    +0.000 HD
BRANCH  26  28
ATOM     28  C   UNL     1      -0.763  12.028  21.011  0.00  0.00    +0.000 C 
BRANCH  28  29
ATOM     29  C   UNL     1      -0.200  13.448  20.867  0.00  0.00    +0.000 C 
ATOM     30  C   UNL     1       0.496  13.748  19.549  0.00  0.00    +0.000 C 
ATOM     31  C   UNL     1       1.492  14.808  19.943  0.00  0.00    +0.000 C 
ATOM     32  C   UNL     1       1.883  14.385  21.343  0.00  0.00    +0.000 C 
ATOM     33  O   UNL     1       0.757  13.709  21.915  0.00  0.00    +0.000 OA
ENDBRANCH  28  29
ENDBRANCH  26  28
ENDBRANCH   2  24
BRANCH   1  34
ATOM     34  N   UNL     1       0.563   7.084  21.240  0.00  0.00    +0.000 N 
ATOM     35  H   UNL     1       0.983   6.604  22.040  0.00  0.00    +0.000 HD
ATOM     36  H   UNL     1      -0.322   6.661  20.964  0.00  0.00    +0.000 HD
ENDBRANCH   1  34
TORSDOF 6
ENDMDL
MODEL 7
REMARK VINA RESULT:      -7.0      1.949      9.439
REMARK  Name = 
REMARK  6 active torsions:
REMARK  status: ('A' for Active; 'I' for Inactive)
REMARK    1  A    between atoms: N_1  and  C_2
REMARK    2  A    between atoms: C_3  and  C_4
REMARK    3  A    between atoms: N_6  and  C_7
REMARK    4  A    between atoms: C_7  and  C_8
REMARK    5  A    between atoms: C_18  and  C_19
REMARK    6  A    between atoms: C_28  and  C_29
REMARK                            x       y       z     vdW  Elec       q    Type
REMARK                         _______ _______ _______ _____ _____    ______ ____
ROOT
ATOM      1  C   UNL     1       1.404   7.709  20.302  0.00  0.00    +0.000 A 
ATOM      2  C   UNL     1       1.459   9.081  20.124  0.00  0.00    +0.000 A 
ATOM      3  S   UNL     1       2.427   9.468  18.763  0.00  0.00    +0.000 S 
ATOM      4  C   UNL     1       2.832   7.826  18.465  0.00  0.00    +0.000 A 
ATOM      5  N   UNL     1       3.632   7.500  17.409  0.00  0.00    +0.000 NA
ATOM      6  C   UNL     1       3.858   6.177  17.300  0.00  0.00    +0.000 A 
ATOM      7  C   UNL     1       3.366   5.215  18.170  0.00  0.00    +0.000 A 
ATOM      8  C   UNL     1       2.569   5.576  19.256  0.00  0.00    +0.000 A 
ATOM      9  C   UNL     1       2.254   6.958  19.402  0.00  0.00    +0.000 A 
ATOM     10  C   UNL     1       3.783   3.835  17.799  0.00  0.00    +0.000 C 
ATOM     11  C   UNL     1       4.568   4.023  16.521  0.00  0.00    +0.000 C 
ATOM     12  C   UNL     1       4.638   5.511  16.236  0.00  0.00    +0.000 C 
ATOM     13  C   UNL     1       5.327   6.028  15.202  0.00  0.00    +0.000 C 
ENDROOT
BRANCH   8  14
ATOM     14  C   UNL     1       2.086   4.569  20.196  0.00  0.00    +0.000 A 
ATOM     15  C   UNL     1       0.996   3.719  20.224  0.00  0.00    +0.000 A 
ATOM     16  C   UNL     1       1.125   2.910  21.376  0.00  0.00    +0.000 A 
ATOM     17  C   UNL     1       2.280   3.317  21.996  0.00  0.00    +0.000 A 
ATOM     18  O   UNL     1       2.880   4.303  21.279  0.00  0.00    +0.000 OA
ENDBRANCH   8  14
BRANCH  13  19
ATOM     19  C   UNL     1       5.981   5.162  14.256  0.00  0.00    +0.000 A 
ATOM     20  C   UNL     1       5.510   4.039  13.580  0.00  0.00    +0.000 A 
ATOM     21  C   UNL     1       6.534   3.576  12.711  0.00  0.00    +0.000 A 
ATOM     22  C   UNL     1       7.599   4.414  12.909  0.00  0.00    +0.000 A 
ATOM     23  O   UNL     1       7.288   5.345  13.837  0.00  0.00    +0.000 OA
ENDBRANCH  13  19
BRANCH   2  24
ATOM     24  C   UNL     1       0.805  10.091  20.965  0.00  0.00    +0.000 C 
ATOM     25  O   UNL     1       0.608   9.929  22.169  0.00  0.00    +0.000 OA
ATOM     26  N   UNL     1       0.399  11.256  20.345  0.00  0.00    +0.000 N 
ATOM     27  H   UNL     1       0.455  11.311  19.338  0.00  0.00    +0.000 HD
BRANCH  26  28
ATOM     28  C   UNL     1      -0.338  12.304  21.039  0.00  0.00    +0.000 C 
BRANCH  28  29
ATOM     29  C   UNL     1      -1.830  11.989  21.210  0.00  0.00    +0.000 C 
ATOM     30  C   UNL     1      -2.786  12.921  20.483  0.00  0.00    +0.000 C 
ATOM     31  C   UNL     1      -4.021  12.855  21.346  0.00  0.00    +0.000 C 
ATOM     32  C   UNL     1      -3.440  12.711  22.737  0.00  0.00    +0.000 C 
ATOM     33  O   UNL     1      -2.187  12.029  22.607  0.00  0.00    +0.000 OA
ENDBRANCH  28  29
ENDBRANCH  26  28
ENDBRANCH   2  24
BRANCH   1  34
ATOM     34  N   UNL     1       0.604   7.145  21.240  0.00  0.00    +0.000 N 
ATOM     35  H   UNL     1       0.998   6.487  21.917  0.00  0.00    +0.000 HD
ATOM     36  H   UNL     1      -0.364   6.923  21.013  0.00  0.00    +0.000 HD
ENDBRANCH   1  34
TORSDOF 6
ENDMDL
MODEL 8
REMARK VINA RESULT:      -6.9      1.879      9.079
REMARK  Name = 
REMARK  6 active torsions:
REMARK  status: ('A' for Active; 'I' for Inactive)
REMARK    1  A    between atoms: N_1  and  C_2
REMARK    2  A    between atoms: C_3  and  C_4
REMARK    3  A    between atoms: N_6  and  C_7
REMARK    4  A    between atoms: C_7  and  C_8
REMARK    5  A    between atoms: C_18  and  C_19
REMARK    6  A    between atoms: C_28  and  C_29
REMARK                            x       y       z     vdW  Elec       q    Type
REMARK                         _______ _______ _______ _____ _____    ______ ____
ROOT
ATOM      1  C   UNL     1       1.609   7.286  20.224  0.00  0.00    +0.000 A 
ATOM      2  C   UNL     1       1.560   8.655  20.022  0.00  0.00    +0.000 A 
ATOM      3  S   UNL     1       2.423   9.080  18.604  0.00  0.00    +0.000 S 
ATOM      4  C   UNL     1       2.924   7.464  18.310  0.00  0.00    +0.000 A 
ATOM      5  N   UNL     1       3.686   7.172  17.217  0.00  0.00    +0.000 NA
ATOM      6  C   UNL     1       3.997   5.867  17.116  0.00  0.00    +0.000 A 
ATOM      7  C   UNL     1       3.621   4.891  18.027  0.00  0.00    +0.000 A 
ATOM      8  C   UNL     1       2.861   5.217  19.150  0.00  0.00    +0.000 A 
ATOM      9  C   UNL     1       2.459   6.578  19.291  0.00  0.00    +0.000 A 
ATOM     10  C   UNL     1       4.110   3.535  17.655  0.00  0.00    +0.000 C 
ATOM     11  C   UNL     1       4.811   3.751  16.333  0.00  0.00    +0.000 C 
ATOM     12  C   UNL     1       4.762   5.234  16.021  0.00  0.00    +0.000 C 
ATOM     13  C   UNL     1       5.357   5.776  14.943  0.00  0.00    +0.000 C 
ENDROOT
BRANCH   8  14
ATOM     14  C   UNL     1       2.499   4.198  20.130  0.00  0.00    +0.000 A 
ATOM     15  C   UNL     1       3.190   3.522  21.119  0.00  0.00    +0.000 A 
ATOM     16  C   UNL     1       2.257   2.708  21.800  0.00  0.00    +0.000 A 
ATOM     17  C   UNL     1       1.049   2.921  21.184  0.00  0.00    +0.000 A 
ATOM     18  O   UNL     1       1.180   3.837  20.189  0.00  0.00    +0.000 OA
ENDBRANCH   8  14
BRANCH  13  19
ATOM     19  C   UNL     1       6.017   4.939  13.975  0.00  0.00    +0.000 A 
ATOM     20  C   UNL     1       7.351   4.890  13.578  0.00  0.00    +0.000 A 
ATOM     21  C   UNL     1       7.499   3.842  12.631  0.00  0.00    +0.000 A 
ATOM     22  C   UNL     1       6.249   3.309  12.464  0.00  0.00    +0.000 A 
ATOM     23  O   UNL     1       5.360   3.965  13.241  0.00  0.00    +0.000 OA
ENDBRANCH  13  19
BRANCH   2  24
ATOM     24  C   UNL     1       0.884   9.635  20.881  0.00  0.00    +0.000 C 
ATOM     25  O   UNL     1       1.091   9.712  22.093  0.00  0.00    +0.000 OA
ATOM     26  N   UNL     1      -0.021  10.483  20.276  0.00  0.00    +0.000 N 
ATOM     27  H   UNL     1      -0.267  10.314  19.311  0.00  0.00    +0.000 HD
BRANCH  26  28
ATOM     28  C   UNL     1      -0.825  11.443  21.020  0.00  0.00    +0.000 C 
BRANCH  28  29
ATOM     29  C   UNL     1      -0.320  12.887  20.898  0.00  0.00    +0.000 C 
ATOM     30  C   UNL     1      -0.095  13.386  19.479  0.00  0.00    +0.000 C 
ATOM     31  C   UNL     1       0.991  14.414  19.667  0.00  0.00    +0.000 C 
ATOM     32  C   UNL     1       1.816  13.817  20.787  0.00  0.00    +0.000 C 
ATOM     33  O   UNL     1       0.932  13.034  21.598  0.00  0.00    +0.000 OA
ENDBRANCH  28  29
ENDBRANCH  26  28
ENDBRANCH   2  24
BRANCH   1  34
ATOM     34  N   UNL     1       0.901   6.687  21.214  0.00  0.00    +0.000 N 
ATOM     35  H   UNL     1      -0.120   6.743  21.216  0.00  0.00    +0.000 HD
ATOM     36  H   UNL     1       1.283   6.652  22.159  0.00  0.00    +0.000 HD
ENDBRANCH   1  34
TORSDOF 6
ENDMDL
MODEL 9
REMARK VINA RESULT:      -6.9      4.239      8.221
REMARK  Name = 
REMARK  6 active torsions:
REMARK  status: ('A' for Active; 'I' for Inactive)
REMARK    1  A    between atoms: N_1  and  C_2
REMARK    2  A    between atoms: C_3  and  C_4
REMARK    3  A    between atoms: N_6  and  C_7
REMARK    4  A    between atoms: C_7  and  C_8
REMARK    5  A    between atoms: C_18  and  C_19
REMARK    6  A    between atoms: C_28  and  C_29
REMARK                            x       y       z     vdW  Elec       q    Type
REMARK                         _______ _______ _______ _____ _____    ______ ____
ROOT
ATOM      1  C   UNL     1       1.692  11.308  18.668  0.00  0.00    +0.000 A 
ATOM      2  C   UNL     1       1.404   9.969  18.867  0.00  0.00    +0.000 A 
ATOM      3  S   UNL     1       0.129   9.794  19.998  0.00  0.00    +0.000 S 
ATOM      4  C   UNL     1       0.018  11.484  20.279  0.00  0.00    +0.000 A 
ATOM      5  N   UNL     1      -0.912  11.974  21.148  0.00  0.00    +0.000 NA
ATOM      6  C   UNL     1      -0.882  13.315  21.262  0.00  0.00    +0.000 A 
ATOM      7  C   UNL     1       0.008  14.146  20.599  0.00  0.00    +0.000 A 
ATOM      8  C   UNL     1       0.966  13.620  19.733  0.00  0.00    +0.000 A 
ATOM      9  C   UNL     1       0.958  12.209  19.532  0.00  0.00    +0.000 A 
ATOM     10  C   UNL     1      -0.195  15.585  20.922  0.00  0.00    +0.000 C 
ATOM     11  C   UNL     1      -1.392  15.585  21.847  0.00  0.00    +0.000 C 
ATOM     12  C   UNL     1      -1.794  14.141  22.081  0.00  0.00    +0.000 C 
ATOM     13  C   UNL     1      -2.787  13.783  22.916  0.00  0.00    +0.000 C 
ENDROOT
BRANCH   8  14
ATOM     14  C   UNL     1       1.931  14.490  19.067  0.00  0.00    +0.000 A 
ATOM     15  C   UNL     1       1.826  15.562  18.200  0.00  0.00    +0.000 A 
ATOM     16  C   UNL     1       3.135  16.044  17.970  0.00  0.00    +0.000 A 
ATOM     17  C   UNL     1       3.969  15.234  18.699  0.00  0.00    +0.000 A 
ATOM     18  O   UNL     1       3.250  14.307  19.384  0.00  0.00    +0.000 OA
ENDBRANCH   8  14
BRANCH  13  19
ATOM     19  C   UNL     1      -3.579  14.785  23.579  0.00  0.00    +0.000 A 
ATOM     20  C   UNL     1      -3.350  15.485  24.762  0.00  0.00    +0.000 A 
ATOM     21  C   UNL     1      -4.413  16.408  24.950  0.00  0.00    +0.000 A 
ATOM     22  C   UNL     1      -5.263  16.221  23.892  0.00  0.00    +0.000 A 
ATOM     23  O   UNL     1      -4.788  15.247  23.085  0.00  0.00    +0.000 OA
ENDBRANCH  13  19
BRANCH   2  24
ATOM     24  C   UNL     1       2.079   8.833  18.226  0.00  0.00    +0.000 C 
ATOM     25  O   UNL     1       2.512   8.879  17.075  0.00  0.00    +0.000 OA
ATOM     26  N   UNL     1       2.208   7.679  18.971  0.00  0.00    +0.000 N 
ATOM     27  H   UNL     1       1.733   7.623  19.861  0.00  0.00    +0.000 HD
BRANCH  26  28
ATOM     28  C   UNL     1       2.778   6.450  18.432  0.00  0.00    +0.000 C 
BRANCH  28  29
ATOM     29  C   UNL     1       2.148   5.179  19.016  0.00  0.00    +0.000 C 
ATOM     30  C   UNL     1       1.691   5.277  20.463  0.00  0.00    +0.000 C 
ATOM     31  C   UNL     1       1.818   3.852  20.939  0.00  0.00    +0.000 C 
ATOM     32  C   UNL     1       3.032   3.360  20.180  0.00  0.00    +0.000 C 
ATOM     33  O   UNL     1       3.085   4.085  18.945  0.00  0.00    +0.000 OA
ENDBRANCH  28  29
ENDBRANCH  26  28
ENDBRANCH   2  24
BRANCH   1  34
ATOM     34  N   UNL     1       2.583  11.714  17.729  0.00  0.00    +0.000 N 
ATOM     35  H   UNL     1       2.885  11.063  16.999  0.00  0.00    +0.000 HD
ATOM     36  H   UNL     1       3.318  12.373  17.980  0.00  0.00    +0.000 HD
ENDBRANCH   1  34
TORSDOF 6
ENDMDL
