MODEL 1
REMARK VINA RESULT:      -5.5      0.000      0.000
REMARK  Name = 
REMARK  7 active torsions:
REMARK  status: ('A' for Active; 'I' for Inactive)
REMARK    1  A    between atoms: N_1  and  CA_2
REMARK    2  A    between atoms: CA_2  and  C_3
REMARK    3  A    between atoms: CA_2  and  C_11
REMARK    4  A    between atoms: C_3  and  C_4
REMARK    5  A    between atoms: C_4  and  C_5
REMARK    6  A    between atoms: C_9  and  O_10
REMARK    7  A    between atoms: C_11  and  OXT_13
REMARK                            x       y       z     vdW  Elec       q    Type
REMARK                         _______ _______ _______ _____ _____    ______ ____
ROOT
ATOM      1  C   UNL     1       5.444   6.242  17.078  0.00  0.00    +0.000 C 
ENDROOT
BRANCH   1   2
ATOM      2  CA  UNL     1       6.971   6.139  17.014  0.00  0.00    +0.000 C 
BRANCH   2   3
ATOM      3  N   UNL     1       7.494   5.779  15.666  0.00  0.00    +0.000 NA
ATOM      4  H1  UNL     1       8.341   6.328  15.497  0.00  0.00    +0.000 HD
ATOM      5  H2  UNL     1       6.835   6.102  14.951  0.00  0.00    +0.000 HD
ENDBRANCH   2   3
BRANCH   2   6
ATOM      6  C   UNL     1       7.557   5.158  18.046  0.00  0.00    +0.000 C 
ATOM      7  O   UNL     1       7.567   5.313  19.255  0.00  0.00    +0.000 OA
BRANCH   6   8
ATOM      8  OXT UNL     1       8.099   4.075  17.426  0.00  0.00    +0.000 OA
ATOM      9  HXT UNL     1       7.958   4.211  16.457  0.00  0.00    +0.000 HD
ENDBRANCH   6   8
ENDBRANCH   2   6
ENDBRANCH   1   2
BRANCH   1  10
ATOM     10  C   UNL     1       4.690   4.956  16.718  0.00  0.00    +0.000 C 
BRANCH  10  11
ATOM     11  C   UNL     1       3.828   4.465  17.835  0.00  0.00    +0.000 A 
ATOM     12  N   UNL     1       2.535   4.819  17.882  0.00  0.00    +0.000 NA
ATOM     13  S   UNL     1       1.930   4.100  19.271  0.00  0.00    +0.000 S 
ATOM     14  N   UNL     1       3.311   3.324  19.832  0.00  0.00    +0.000 NA
ATOM     15  C   UNL     1       4.229   3.641  18.929  0.00  0.00    +0.000 A 
BRANCH  15  16
ATOM     16  O   UNL     1       5.442   3.135  19.169  0.00  0.00    +0.000 OA
ATOM     17  H   UNL     1       5.426   2.858  20.103  0.00  0.00    +0.000 HD
ENDBRANCH  15  16
ENDBRANCH  10  11
ENDBRANCH   1  10
TORSDOF 7
ENDMDL
MODEL 2
REMARK VINA RESULT:      -5.4      1.424      1.481
REMARK  Name = 
REMARK  7 active torsions:
REMARK  status: ('A' for Active; 'I' for Inactive)
REMARK    1  A    between atoms: N_1  and  CA_2
REMARK    2  A    between atoms: CA_2  and  C_3
REMARK    3  A    between atoms: CA_2  and  C_11
REMARK    4  A    between atoms: C_3  and  C_4
REMARK    5  A    between atoms: C_4  and  C_5
REMARK    6  A    between atoms: C_9  and  O_10
REMARK    7  A    between atoms: C_11  and  OXT_13
REMARK                            x       y       z     vdW  Elec       q    Type
REMARK                         _______ _______ _______ _____ _____    ______ ____
ROOT
ATOM      1  C   UNL     1       5.409   5.294  17.148  0.00  0.00    +0.000 C 
ENDROOT
BRANCH   1   2
ATOM      2  CA  UNL     1       6.929   5.428  17.279  0.00  0.00    +0.000 C 
BRANCH   2   3
ATOM      3  N   UNL     1       7.673   4.176  16.961  0.00  0.00    +0.000 NA
ATOM      4  H1  UNL     1       6.989   3.457  16.710  0.00  0.00    +0.000 HD
ATOM      5  H2  UNL     1       8.114   3.820  17.814  0.00  0.00    +0.000 HD
ENDBRANCH   2   3
BRANCH   2   6
ATOM      6  C   UNL     1       7.377   5.926  18.665  0.00  0.00    +0.000 C 
ATOM      7  O   UNL     1       8.210   6.789  18.881  0.00  0.00    +0.000 OA
BRANCH   6   8
ATOM      8  OXT UNL     1       6.728   5.250  19.652  0.00  0.00    +0.000 OA
ATOM      9  HXT UNL     1       6.168   4.571  19.201  0.00  0.00    +0.000 HD
ENDBRANCH   6   8
ENDBRANCH   2   6
ENDBRANCH   1   2
BRANCH   1  10
ATOM     10  C   UNL     1       4.918   3.928  16.652  0.00  0.00    +0.000 C 
BRANCH  10  11
ATOM     11  C   UNL     1       3.878   3.334  17.547  0.00  0.00    +0.000 A 
ATOM     12  N   UNL     1       2.606   3.254  17.127  0.00  0.00    +0.000 NA
ATOM     13  S   UNL     1       1.762   2.564  18.402  0.00  0.00    +0.000 S 
ATOM     14  N   UNL     1       3.010   2.356  19.508  0.00  0.00    +0.000 NA
ATOM     15  C   UNL     1       4.069   2.832  18.869  0.00  0.00    +0.000 A 
BRANCH  15  16
ATOM     16  O   UNL     1       5.208   2.781  19.567  0.00  0.00    +0.000 OA
ATOM     17  H   UNL     1       5.588   3.676  19.506  0.00  0.00    +0.000 HD
ENDBRANCH  15  16
ENDBRANCH  10  11
ENDBRANCH   1  10
TORSDOF 7
ENDMDL
MODEL 3
REMARK VINA RESULT:      -5.4      1.921      2.267
REMARK  Name = 
REMARK  7 active torsions:
REMARK  status: ('A' for Active; 'I' for Inactive)
REMARK    1  A    between atoms: N_1  and  CA_2
REMARK    2  A    between atoms: CA_2  and  C_3
REMARK    3  A    between atoms: CA_2  and  C_11
REMARK    4  A    between atoms: C_3  and  C_4
REMARK    5  A    between atoms: C_4  and  C_5
REMARK    6  A    between atoms: C_9  and  O_10
REMARK    7  A    between atoms: C_11  and  OXT_13
REMARK                            x       y       z     vdW  Elec       q    Type
REMARK                         _______ _______ _______ _____ _____    ______ ____
ROOT
ATOM      1  C   UNL     1       5.038   5.397  16.499  0.00  0.00    +0.000 C 
ENDROOT
BRANCH   1   2
ATOM      2  CA  UNL     1       6.122   4.341  16.256  0.00  0.00    +0.000 C 
BRANCH   2   3
ATOM      3  N   UNL     1       7.174   4.308  17.310  0.00  0.00    +0.000 NA
ATOM      4  H1  UNL     1       8.003   3.852  16.916  0.00  0.00    +0.000 HD
ATOM      5  H2  UNL     1       6.876   3.683  18.066  0.00  0.00    +0.000 HD
ENDBRANCH   2   3
BRANCH   2   6
ATOM      6  C   UNL     1       6.806   4.478  14.884  0.00  0.00    +0.000 C 
ATOM      7  O   UNL     1       7.605   5.342  14.566  0.00  0.00    +0.000 OA
BRANCH   6   8
ATOM      8  OXT UNL     1       6.379   3.505  14.034  0.00  0.00    +0.000 OA
ATOM      9  HXT UNL     1       6.623   2.644  14.453  0.00  0.00    +0.000 HD
ENDBRANCH   6   8
ENDBRANCH   2   6
ENDBRANCH   1   2
BRANCH   1  10
ATOM     10  C   UNL     1       4.450   5.411  17.915  0.00  0.00    +0.000 C 
BRANCH  10  11
ATOM     11  C   UNL     1       3.642   4.190  18.213  0.00  0.00    +0.000 A 
ATOM     12  N   UNL     1       2.364   4.124  17.812  0.00  0.00    +0.000 NA
ATOM     13  S   UNL     1       1.808   2.635  18.348  0.00  0.00    +0.000 S 
ATOM     14  N   UNL     1       3.194   2.052  19.098  0.00  0.00    +0.000 NA
ATOM     15  C   UNL     1       4.072   3.030  18.924  0.00  0.00    +0.000 A 
BRANCH  15  16
ATOM     16  O   UNL     1       5.276   2.797  19.455  0.00  0.00    +0.000 OA
ATOM     17  H   UNL     1       5.107   2.269  20.257  0.00  0.00    +0.000 HD
ENDBRANCH  15  16
ENDBRANCH  10  11
ENDBRANCH   1  10
TORSDOF 7
ENDMDL
MODEL 4
REMARK VINA RESULT:      -5.4      1.339      1.505
REMARK  Name = 
REMARK  7 active torsions:
REMARK  status: ('A' for Active; 'I' for Inactive)
REMARK    1  A    between atoms: N_1  and  CA_2
REMARK    2  A    between atoms: CA_2  and  C_3
REMARK    3  A    between atoms: CA_2  and  C_11
REMARK    4  A    between atoms: C_3  and  C_4
REMARK    5  A    between atoms: C_4  and  C_5
REMARK    6  A    between atoms: C_9  and  O_10
REMARK    7  A    between atoms: C_11  and  OXT_13
REMARK                            x       y       z     vdW  Elec       q    Type
REMARK                         _______ _______ _______ _____ _____    ______ ____
ROOT
ATOM      1  C   UNL     1       5.897   6.206  17.137  0.00  0.00    +0.000 C 
ENDROOT
BRANCH   1   2
ATOM      2  CA  UNL     1       7.324   5.767  17.482  0.00  0.00    +0.000 C 
BRANCH   2   3
ATOM      3  N   UNL     1       7.594   4.329  17.200  0.00  0.00    +0.000 NA
ATOM      4  H1  UNL     1       6.776   3.789  17.498  0.00  0.00    +0.000 HD
ATOM      5  H2  UNL     1       8.350   4.001  17.809  0.00  0.00    +0.000 HD
ENDBRANCH   2   3
BRANCH   2   6
ATOM      6  C   UNL     1       7.713   6.062  18.942  0.00  0.00    +0.000 C 
ATOM      7  O   UNL     1       7.402   5.396  19.914  0.00  0.00    +0.000 OA
BRANCH   6   8
ATOM      8  OXT UNL     1       8.448   7.205  19.022  0.00  0.00    +0.000 OA
ATOM      9  HXT UNL     1       9.127   7.149  18.306  0.00  0.00    +0.000 HD
ENDBRANCH   6   8
ENDBRANCH   2   6
ENDBRANCH   1   2
BRANCH   1  10
ATOM     10  C   UNL     1       4.886   6.093  18.285  0.00  0.00    +0.000 C 
BRANCH  10  11
ATOM     11  C   UNL     1       4.060   4.850  18.200  0.00  0.00    +0.000 A 
ATOM     12  N   UNL     1       2.832   4.904  17.663  0.00  0.00    +0.000 NA
ATOM     13  S   UNL     1       2.233   3.341  17.772  0.00  0.00    +0.000 S 
ATOM     14  N   UNL     1       3.536   2.572  18.505  0.00  0.00    +0.000 NA
ATOM     15  C   UNL     1       4.420   3.548  18.659  0.00  0.00    +0.000 A 
BRANCH  15  16
ATOM     16  O   UNL     1       5.562   3.175  19.244  0.00  0.00    +0.000 OA
ATOM     17  H   UNL     1       6.265   3.646  18.761  0.00  0.00    +0.000 HD
ENDBRANCH  15  16
ENDBRANCH  10  11
ENDBRANCH   1  10
TORSDOF 7
ENDMDL
MODEL 5
REMARK VINA RESULT:      -5.4      1.611      1.841
REMARK  Name = 
REMARK  7 active torsions:
REMARK  status: ('A' for Active; 'I' for Inactive)
REMARK    1  A    between atoms: N_1  and  CA_2
REMARK    2  A    between atoms: CA_2  and  C_3
REMARK    3  A    between atoms: CA_2  and  C_11
REMARK    4  A    between atoms: C_3  and  C_4
REMARK    5  A    between atoms: C_4  and  C_5
REMARK    6  A    between atoms: C_9  and  O_10
REMARK    7  A    between atoms: C_11  and  OXT_13
REMARK                            x       y       z     vdW  Elec       q    Type
REMARK                         _______ _______ _______ _____ _____    ______ ____
ROOT
ATOM      1  C   UNL     1       6.052   4.196  16.054  0.00  0.00    +0.000 C 
ENDROOT
BRANCH   1   2
ATOM      2  CA  UNL     1       7.293   4.890  16.624  0.00  0.00    +0.000 C 
BRANCH   2   3
ATOM      3  N   UNL     1       8.054   4.057  17.597  0.00  0.00    +0.000 NA
ATOM      4  H1  UNL     1       8.985   3.886  17.208  0.00  0.00    +0.000 HD
ATOM      5  H2  UNL     1       7.627   3.127  17.652  0.00  0.00    +0.000 HD
ENDBRANCH   2   3
BRANCH   2   6
ATOM      6  C   UNL     1       6.980   6.248  17.280  0.00  0.00    +0.000 C 
ATOM      7  O   UNL     1       6.785   7.298  16.692  0.00  0.00    +0.000 OA
BRANCH   6   8
ATOM      8  OXT UNL     1       6.972   6.136  18.635  0.00  0.00    +0.000 OA
ATOM      9  HXT UNL     1       7.844   6.480  18.948  0.00  0.00    +0.000 HD
ENDBRANCH   6   8
ENDBRANCH   2   6
ENDBRANCH   1   2
BRANCH   1  10
ATOM     10  C   UNL     1       4.711   4.742  16.558  0.00  0.00    +0.000 C 
BRANCH  10  11
ATOM     11  C   UNL     1       4.005   3.784  17.463  0.00  0.00    +0.000 A 
ATOM     12  N   UNL     1       2.800   3.308  17.116  0.00  0.00    +0.000 NA
ATOM     13  S   UNL     1       2.342   2.303  18.378  0.00  0.00    +0.000 S 
ATOM     14  N   UNL     1       3.678   2.460  19.385  0.00  0.00    +0.000 NA
ATOM     15  C   UNL     1       4.463   3.299  18.724  0.00  0.00    +0.000 A 
BRANCH  15  16
ATOM     16  O   UNL     1       5.610   3.593  19.344  0.00  0.00    +0.000 OA
ATOM     17  H   UNL     1       5.442   3.425  20.289  0.00  0.00    +0.000 HD
ENDBRANCH  15  16
ENDBRANCH  10  11
ENDBRANCH   1  10
TORSDOF 7
ENDMDL
MODEL 6
REMARK VINA RESULT:      -5.4      2.547      4.303
REMARK  Name = 
REMARK  7 active torsions:
REMARK  status: ('A' for Active; 'I' for Inactive)
REMARK    1  A    between atoms: N_1  and  CA_2
REMARK    2  A    between atoms: CA_2  and  C_3
REMARK    3  A    between atoms: CA_2  and  C_11
REMARK    4  A    between atoms: C_3  and  C_4
REMARK    5  A    between atoms: C_4  and  C_5
REMARK    6  A    between atoms: C_9  and  O_10
REMARK    7  A    between atoms: C_11  and  OXT_13
REMARK                            x       y       z     vdW  Elec       q    Type
REMARK                         _______ _______ _______ _____ _____    ______ ____
ROOT
ATOM      1  C   UNL     1       3.465   4.769  17.698  0.00  0.00    +0.000 C 
ENDROOT
BRANCH   1   2
ATOM      2  CA  UNL     1       3.649   4.566  19.205  0.00  0.00    +0.000 C 
BRANCH   2   3
ATOM      3  N   UNL     1       4.770   5.358  19.786  0.00  0.00    +0.000 NA
ATOM      4  H1  UNL     1       4.611   6.344  19.558  0.00  0.00    +0.000 HD
ATOM      5  H2  UNL     1       5.639   5.122  19.297  0.00  0.00    +0.000 HD
ENDBRANCH   2   3
BRANCH   2   6
ATOM      6  C   UNL     1       3.836   3.089  19.600  0.00  0.00    +0.000 C 
ATOM      7  O   UNL     1       2.944   2.280  19.787  0.00  0.00    +0.000 OA
BRANCH   6   8
ATOM      8  OXT UNL     1       5.156   2.793  19.743  0.00  0.00    +0.000 OA
ATOM      9  HXT UNL     1       5.513   3.427  20.412  0.00  0.00    +0.000 HD
ENDBRANCH   6   8
ENDBRANCH   2   6
ENDBRANCH   1   2
BRANCH   1  10
ATOM     10  C   UNL     1       4.099   3.688  16.814  0.00  0.00    +0.000 C 
BRANCH  10  11
ATOM     11  C   UNL     1       5.354   4.155  16.149  0.00  0.00    +0.000 A 
ATOM     12  N   UNL     1       5.355   4.404  14.831  0.00  0.00    +0.000 NA
ATOM     13  S   UNL     1       6.924   4.873  14.470  0.00  0.00    +0.000 S 
ATOM     14  N   UNL     1       7.625   4.766  15.994  0.00  0.00    +0.000 NA
ATOM     15  C   UNL     1       6.624   4.361  16.764  0.00  0.00    +0.000 A 
BRANCH  15  16
ATOM     16  O   UNL     1       6.947   4.191  18.050  0.00  0.00    +0.000 OA
ATOM     17  H   UNL     1       7.624   3.491  18.056  0.00  0.00    +0.000 HD
ENDBRANCH  15  16
ENDBRANCH  10  11
ENDBRANCH   1  10
TORSDOF 7
ENDMDL
MODEL 7
REMARK VINA RESULT:      -5.4      1.627      1.785
REMARK  Name = 
REMARK  7 active torsions:
REMARK  status: ('A' for Active; 'I' for Inactive)
REMARK    1  A    between atoms: N_1  and  CA_2
REMARK    2  A    between atoms: CA_2  and  C_3
REMARK    3  A    between atoms: CA_2  and  C_11
REMARK    4  A    between atoms: C_3  and  C_4
REMARK    5  A    between atoms: C_4  and  C_5
REMARK    6  A    between atoms: C_9  and  O_10
REMARK    7  A    between atoms: C_11  and  OXT_13
REMARK                            x       y       z     vdW  Elec       q    Type
REMARK                         _______ _______ _______ _____ _____    ______ ____
ROOT
ATOM      1  C   UNL     1       4.334   5.146  17.666  0.00  0.00    +0.000 C 
ENDROOT
BRANCH   1   2
ATOM      2  CA  UNL     1       5.637   4.652  17.031  0.00  0.00    +0.000 C 
BRANCH   2   3
ATOM      3  N   UNL     1       5.538   3.289  16.438  0.00  0.00    +0.000 NA
ATOM      4  H1  UNL     1       4.967   2.712  17.063  0.00  0.00    +0.000 HD
ATOM      5  H2  UNL     1       6.461   2.845  16.455  0.00  0.00    +0.000 HD
ENDBRANCH   2   3
BRANCH   2   6
ATOM      6  C   UNL     1       6.833   4.679  18.001  0.00  0.00    +0.000 C 
ATOM      7  O   UNL     1       6.780   4.924  19.194  0.00  0.00    +0.000 OA
BRANCH   6   8
ATOM      8  OXT UNL     1       7.992   4.412  17.343  0.00  0.00    +0.000 OA
ATOM      9  HXT UNL     1       8.487   3.763  17.902  0.00  0.00    +0.000 HD
ENDBRANCH   6   8
ENDBRANCH   2   6
ENDBRANCH   1   2
BRANCH   1  10
ATOM     10  C   UNL     1       3.219   4.096  17.763  0.00  0.00    +0.000 C 
BRANCH  10  11
ATOM     11  C   UNL     1       2.996   3.625  19.164  0.00  0.00    +0.000 A 
ATOM     12  N   UNL     1       1.884   3.989  19.819  0.00  0.00    +0.000 NA
ATOM     13  S   UNL     1       2.017   3.290  21.338  0.00  0.00    +0.000 S 
ATOM     14  N   UNL     1       3.497   2.510  21.180  0.00  0.00    +0.000 NA
ATOM     15  C   UNL     1       3.871   2.809  19.943  0.00  0.00    +0.000 A 
BRANCH  15  16
ATOM     16  O   UNL     1       5.051   2.298  19.580  0.00  0.00    +0.000 OA
ATOM     17  H   UNL     1       5.120   1.449  20.053  0.00  0.00    +0.000 HD
ENDBRANCH  15  16
ENDBRANCH  10  11
ENDBRANCH   1  10
TORSDOF 7
ENDMDL
MODEL 8
REMARK VINA RESULT:      -5.3      0.797      1.205
REMARK  Name = 
REMARK  7 active torsions:
REMARK  status: ('A' for Active; 'I' for Inactive)
REMARK    1  A    between atoms: N_1  and  CA_2
REMARK    2  A    between atoms: CA_2  and  C_3
REMARK    3  A    between atoms: CA_2  and  C_11
REMARK    4  A    between atoms: C_3  and  C_4
REMARK    5  A    between atoms: C_4  and  C_5
REMARK    6  A    between atoms: C_9  and  O_10
REMARK    7  A    between atoms: C_11  and  OXT_13
REMARK                            x       y       z     vdW  Elec       q    Type
REMARK                         _______ _______ _______ _____ _____    ______ ____
ROOT
ATOM      1  C   UNL     1       5.306   5.286  16.141  0.00  0.00    +0.000 C 
ENDROOT
BRANCH   1   2
ATOM      2  CA  UNL     1       6.250   5.844  17.211  0.00  0.00    +0.000 C 
BRANCH   2   3
ATOM      3  N   UNL     1       6.894   7.133  16.831  0.00  0.00    +0.000 NA
ATOM      4  H1  UNL     1       7.895   6.961  16.700  0.00  0.00    +0.000 HD
ATOM      5  H2  UNL     1       6.849   7.780  17.624  0.00  0.00    +0.000 HD
ENDBRANCH   2   3
BRANCH   2   6
ATOM      6  C   UNL     1       7.350   4.850  17.627  0.00  0.00    +0.000 C 
ATOM      7  O   UNL     1       8.084   4.238  16.871  0.00  0.00    +0.000 OA
BRANCH   6   8
ATOM      8  OXT UNL     1       7.389   4.716  18.980  0.00  0.00    +0.000 OA
ATOM      9  HXT UNL     1       7.892   5.494  19.323  0.00  0.00    +0.000 HD
ENDBRANCH   6   8
ENDBRANCH   2   6
ENDBRANCH   1   2
BRANCH   1  10
ATOM     10  C   UNL     1       4.611   3.970  16.510  0.00  0.00    +0.000 C 
BRANCH  10  11
ATOM     11  C   UNL     1       3.802   4.080  17.763  0.00  0.00    +0.000 A 
ATOM     12  N   UNL     1       2.674   4.805  17.764  0.00  0.00    +0.000 NA
ATOM     13  S   UNL     1       2.084   4.702  19.331  0.00  0.00    +0.000 S 
ATOM     14  N   UNL     1       3.261   3.727  20.029  0.00  0.00    +0.000 NA
ATOM     15  C   UNL     1       4.102   3.499  19.030  0.00  0.00    +0.000 A 
BRANCH  15  16
ATOM     16  O   UNL     1       5.152   2.736  19.352  0.00  0.00    +0.000 OA
ATOM     17  H   UNL     1       5.898   3.354  19.455  0.00  0.00    +0.000 HD
ENDBRANCH  15  16
ENDBRANCH  10  11
ENDBRANCH   1  10
TORSDOF 7
ENDMDL
MODEL 9
REMARK VINA RESULT:      -5.3      1.192      1.270
REMARK  Name = 
REMARK  7 active torsions:
REMARK  status: ('A' for Active; 'I' for Inactive)
REMARK    1  A    between atoms: N_1  and  CA_2
REMARK    2  A    between atoms: CA_2  and  C_3
REMARK    3  A    between atoms: CA_2  and  C_11
REMARK    4  A    between atoms: C_3  and  C_4
REMARK    5  A    between atoms: C_4  and  C_5
REMARK    6  A    between atoms: C_9  and  O_10
REMARK    7  A    between atoms: C_11  and  OXT_13
REMARK                            x       y       z     vdW  Elec       q    Type
REMARK                         _______ _______ _______ _____ _____    ______ ____
ROOT
ATOM      1  C   UNL     1       5.027   5.838  16.951  0.00  0.00    +0.000 C 
ENDROOT
BRANCH   1   2
ATOM      2  CA  UNL     1       6.430   6.156  17.476  0.00  0.00    +0.000 C 
BRANCH   2   3
ATOM      3  N   UNL     1       7.043   7.366  16.858  0.00  0.00    +0.000 NA
ATOM      4  H1  UNL     1       7.289   8.015  17.611  0.00  0.00    +0.000 HD
ATOM      5  H2  UNL     1       6.332   7.864  16.314  0.00  0.00    +0.000 HD
ENDBRANCH   2   3
BRANCH   2   6
ATOM      6  C   UNL     1       7.413   4.979  17.331  0.00  0.00    +0.000 C 
ATOM      7  O   UNL     1       7.933   4.365  18.247  0.00  0.00    +0.000 OA
BRANCH   6   8
ATOM      8  OXT UNL     1       7.657   4.716  16.019  0.00  0.00    +0.000 OA
ATOM      9  HXT UNL     1       7.008   5.253  15.502  0.00  0.00    +0.000 HD
ENDBRANCH   6   8
ENDBRANCH   2   6
ENDBRANCH   1   2
BRANCH   1  10
ATOM     10  C   UNL     1       3.938   5.734  18.027  0.00  0.00    +0.000 C 
BRANCH  10  11
ATOM     11  C   UNL     1       3.446   4.334  18.210  0.00  0.00    +0.000 A 
ATOM     12  N   UNL     1       2.221   3.999  17.779  0.00  0.00    +0.000 NA
ATOM     13  S   UNL     1       2.038   2.381  18.184  0.00  0.00    +0.000 S 
ATOM     14  N   UNL     1       3.522   2.087  18.916  0.00  0.00    +0.000 NA
ATOM     15  C   UNL     1       4.140   3.257  18.838  0.00  0.00    +0.000 A 
BRANCH  15  16
ATOM     16  O   UNL     1       5.364   3.276  19.375  0.00  0.00    +0.000 OA
ATOM     17  H   UNL     1       5.243   3.002  20.302  0.00  0.00    +0.000 HD
ENDBRANCH  15  16
ENDBRANCH  10  11
ENDBRANCH   1  10
TORSDOF 7
ENDMDL
