MODEL 1
REMARK VINA RESULT:      -6.8      0.000      0.000
REMARK  Name = 
REMARK  20 active torsions:
REMARK  status: ('A' for Active; 'I' for Inactive)
REMARK    1  A    between atoms: C_1  and  C_2
REMARK    2  A    between atoms: C_2  and  C_3
REMARK    3  A    between atoms: C_3  and  C_4
REMARK    4  A    between atoms: C_4  and  C_5
REMARK    5  A    between atoms: C_5  and  C_6
REMARK    6  A    between atoms: C_6  and  C_7
REMARK    7  A    between atoms: C_7  and  O_8
REMARK    8  A    between atoms: C_7  and  C_9
REMARK    9  A    between atoms: C_9  and  C_10
REMARK   10  A    between atoms: C_11  and  C_12
REMARK   11  A    between atoms: C_12  and  C_13
REMARK   12  A    between atoms: C_13  and  C_14
REMARK   13  A    between atoms: C_14  and  C_15
REMARK   14  A    between atoms: C_15  and  C_16
REMARK   15  A    between atoms: C_16  and  C_17
REMARK   16  A    between atoms: C_17  and  C_18
REMARK   17  A    between atoms: C_18  and  C_19
REMARK   18  A    between atoms: C_21  and  C_22
REMARK   19  A    between atoms: C_25  and  O_26
REMARK   20  A    between atoms: C_27  and  O_28
REMARK                            x       y       z     vdW  Elec       q    Type
REMARK                         _______ _______ _______ _____ _____    ______ ____
ROOT
ATOM      1  C   UNL     1       8.212   8.306  18.369  0.00  0.00    +0.000 C 
ENDROOT
BRANCH   1   2
ATOM      2  C   UNL     1       7.557   7.445  17.297  0.00  0.00    +0.000 C 
BRANCH   2   3
ATOM      3  C   UNL     1       6.808   6.328  17.919  0.00  0.00    +0.000 A 
ATOM      4  N   UNL     1       5.508   6.193  18.052  0.00  0.00    +0.000 NA
ATOM      5  C   UNL     1       5.362   5.011  18.747  0.00  0.00    +0.000 A 
ATOM      6  N   UNL     1       6.535   4.421  19.037  0.00  0.00    +0.000 NA
ATOM      7  N   UNL     1       7.422   5.262  18.504  0.00  0.00    +0.000 N 
ATOM      8  H   UNL     1       8.413   5.062  18.590  0.00  0.00    +0.000 HD
BRANCH   5   9
ATOM      9  C   UNL     1       4.038   4.507  19.110  0.00  0.00    +0.000 A 
ATOM     10  C   UNL     1       3.182   5.287  19.916  0.00  0.00    +0.000 A 
ATOM     11  C   UNL     1       1.908   4.832  20.278  0.00  0.00    +0.000 A 
ATOM     12  C   UNL     1       1.487   3.590  19.831  0.00  0.00    +0.000 A 
ATOM     13  C   UNL     1       2.322   2.815  19.037  0.00  0.00    +0.000 A 
ATOM     14  C   UNL     1       3.590   3.258  18.672  0.00  0.00    +0.000 A 
BRANCH  13  15
ATOM     15  O   UNL     1       1.899   1.588  18.600  0.00  0.00    +0.000 OA
ATOM     16  H   UNL     1       1.126   1.782  18.039  0.00  0.00    +0.000 HD
ENDBRANCH  13  15
BRANCH  12  17
ATOM     17  O   UNL     1       0.254   3.083  20.144  0.00  0.00    +0.000 OA
ATOM     18  H   UNL     1       0.246   2.141  19.892  0.00  0.00    +0.000 HD
ENDBRANCH  12  17
ENDBRANCH   5   9
ENDBRANCH   2   3
ENDBRANCH   1   2
BRANCH   1  19
ATOM     19  C   UNL     1       8.592   9.673  17.810  0.00  0.00    +0.000 C 
BRANCH  19  20
ATOM     20  C   UNL     1       8.634  10.689  18.939  0.00  0.00    +0.000 C 
BRANCH  20  21
ATOM     21  C   UNL     1       9.894  10.545  19.786  0.00  0.00    +0.000 C 
BRANCH  21  22
ATOM     22  C   UNL     1      10.496  11.908  20.128  0.00  0.00    +0.000 C 
BRANCH  22  23
ATOM     23  C   UNL     1      11.821  12.200  19.421  0.00  0.00    +0.000 C 
BRANCH  23  25
ATOM     24  C   UNL     1      11.743  12.971  17.031  0.00  0.00    +0.000 C 
ATOM     25  C   UNL     1      11.729  11.987  17.934  0.00  0.00    +0.000 C 
BRANCH  24  26
ATOM     26  C   UNL     1      11.923  14.401  17.424  0.00  0.00    +0.000 C 
BRANCH  26  27
ATOM     27  C   UNL     1      10.657  15.210  17.211  0.00  0.00    +0.000 C 
BRANCH  27  28
ATOM     28  O   UNL     1      11.001  16.439  16.575  0.00  0.00    +0.000 OA
ATOM     29  H   UNL     1      10.203  16.806  16.155  0.00  0.00    +0.000 HD
ENDBRANCH  27  28
BRANCH  27  30
ATOM     30  C   UNL     1       9.998  15.463  18.565  0.00  0.00    +0.000 C 
BRANCH  30  31
ATOM     31  C   UNL     1       8.689  14.701  18.692  0.00  0.00    +0.000 C 
BRANCH  31  32
ATOM     32  C   UNL     1       7.625  15.307  17.787  0.00  0.00    +0.000 C 
BRANCH  32  33
ATOM     33  C   UNL     1       6.332  14.509  17.898  0.00  0.00    +0.000 C 
BRANCH  33  35
ATOM     34  C   UNL     1       3.840  14.679  18.007  0.00  0.00    +0.000 C 
ATOM     35  C   UNL     1       5.149  15.416  18.216  0.00  0.00    +0.000 C 
ENDBRANCH  33  35
ENDBRANCH  32  33
ENDBRANCH  31  32
ENDBRANCH  30  31
ENDBRANCH  27  30
ENDBRANCH  26  27
ENDBRANCH  24  26
ENDBRANCH  23  25
ENDBRANCH  22  23
ENDBRANCH  21  22
ENDBRANCH  20  21
ENDBRANCH  19  20
ENDBRANCH   1  19
TORSDOF 19
ENDMDL
MODEL 2
REMARK VINA RESULT:      -6.7      2.798     10.625
REMARK  Name = 
REMARK  20 active torsions:
REMARK  status: ('A' for Active; 'I' for Inactive)
REMARK    1  A    between atoms: C_1  and  C_2
REMARK    2  A    between atoms: C_2  and  C_3
REMARK    3  A    between atoms: C_3  and  C_4
REMARK    4  A    between atoms: C_4  and  C_5
REMARK    5  A    between atoms: C_5  and  C_6
REMARK    6  A    between atoms: C_6  and  C_7
REMARK    7  A    between atoms: C_7  and  O_8
REMARK    8  A    between atoms: C_7  and  C_9
REMARK    9  A    between atoms: C_9  and  C_10
REMARK   10  A    between atoms: C_11  and  C_12
REMARK   11  A    between atoms: C_12  and  C_13
REMARK   12  A    between atoms: C_13  and  C_14
REMARK   13  A    between atoms: C_14  and  C_15
REMARK   14  A    between atoms: C_15  and  C_16
REMARK   15  A    between atoms: C_16  and  C_17
REMARK   16  A    between atoms: C_17  and  C_18
REMARK   17  A    between atoms: C_18  and  C_19
REMARK   18  A    between atoms: C_21  and  C_22
REMARK   19  A    between atoms: C_25  and  O_26
REMARK   20  A    between atoms: C_27  and  O_28
REMARK                            x       y       z     vdW  Elec       q    Type
REMARK                         _______ _______ _______ _____ _____    ______ ____
ROOT
ATOM      1  C   UNL     1       7.485   5.178  17.555  0.00  0.00    +0.000 C 
ENDROOT
BRANCH   1   2
ATOM      2  C   UNL     1       7.623   6.028  18.810  0.00  0.00    +0.000 C 
BRANCH   2   3
ATOM      3  C   UNL     1       7.975   7.423  18.454  0.00  0.00    +0.000 A 
ATOM      4  N   UNL     1       8.752   8.258  19.105  0.00  0.00    +0.000 NA
ATOM      5  C   UNL     1       8.684   9.423  18.370  0.00  0.00    +0.000 A 
ATOM      6  N   UNL     1       7.891   9.318  17.288  0.00  0.00    +0.000 NA
ATOM      7  N   UNL     1       7.465   8.057  17.362  0.00  0.00    +0.000 N 
ATOM      8  H   UNL     1       6.825   7.705  16.658  0.00  0.00    +0.000 HD
BRANCH   5   9
ATOM      9  C   UNL     1       9.417  10.620  18.781  0.00  0.00    +0.000 A 
ATOM     10  C   UNL     1      10.166  11.350  17.834  0.00  0.00    +0.000 A 
ATOM     11  C   UNL     1      10.876  12.501  18.197  0.00  0.00    +0.000 A 
ATOM     12  C   UNL     1      10.836  12.925  19.515  0.00  0.00    +0.000 A 
ATOM     13  C   UNL     1      10.102  12.214  20.455  0.00  0.00    +0.000 A 
ATOM     14  C   UNL     1       9.394  11.069  20.103  0.00  0.00    +0.000 A 
BRANCH  13  15
ATOM     15  O   UNL     1      10.069  12.639  21.757  0.00  0.00    +0.000 OA
ATOM     16  H   UNL     1      10.829  13.246  21.833  0.00  0.00    +0.000 HD
ENDBRANCH  13  15
BRANCH  12  17
ATOM     17  O   UNL     1      11.504  14.042  19.941  0.00  0.00    +0.000 OA
ATOM     18  H   UNL     1      12.077  14.343  19.211  0.00  0.00    +0.000 HD
ENDBRANCH  12  17
ENDBRANCH   5   9
ENDBRANCH   2   3
ENDBRANCH   1   2
BRANCH   1  19
ATOM     19  C   UNL     1       6.209   5.529  16.798  0.00  0.00    +0.000 C 
BRANCH  19  20
ATOM     20  C   UNL     1       5.970   4.505  15.702  0.00  0.00    +0.000 C 
BRANCH  20  21
ATOM     21  C   UNL     1       4.524   4.022  15.681  0.00  0.00    +0.000 C 
BRANCH  21  22
ATOM     22  C   UNL     1       4.106   3.450  17.037  0.00  0.00    +0.000 C 
BRANCH  22  23
ATOM     23  C   UNL     1       2.591   3.350  17.231  0.00  0.00    +0.000 C 
BRANCH  23  25
ATOM     24  C   UNL     1       1.588   1.950  19.061  0.00  0.00    +0.000 C 
ATOM     25  C   UNL     1       2.188   2.049  17.871  0.00  0.00    +0.000 C 
BRANCH  24  26
ATOM     26  C   UNL     1       1.195   3.157  19.850  0.00  0.00    +0.000 C 
BRANCH  26  27
ATOM     27  C   UNL     1       2.145   3.412  21.005  0.00  0.00    +0.000 C 
BRANCH  27  28
ATOM     28  O   UNL     1       1.608   2.810  22.181  0.00  0.00    +0.000 OA
ATOM     29  H   UNL     1       1.207   3.506  22.730  0.00  0.00    +0.000 HD
ENDBRANCH  27  28
BRANCH  27  30
ATOM     30  C   UNL     1       2.307   4.919  21.189  0.00  0.00    +0.000 C 
BRANCH  30  31
ATOM     31  C   UNL     1       2.083   5.662  19.882  0.00  0.00    +0.000 C 
BRANCH  31  32
ATOM     32  C   UNL     1       3.396   6.225  19.354  0.00  0.00    +0.000 C 
BRANCH  32  33
ATOM     33  C   UNL     1       3.144   7.022  18.080  0.00  0.00    +0.000 C 
BRANCH  33  35
ATOM     34  C   UNL     1       2.100   9.280  17.826  0.00  0.00    +0.000 C 
ATOM     35  C   UNL     1       1.853   7.825  18.178  0.00  0.00    +0.000 C 
ENDBRANCH  33  35
ENDBRANCH  32  33
ENDBRANCH  31  32
ENDBRANCH  30  31
ENDBRANCH  27  30
ENDBRANCH  26  27
ENDBRANCH  24  26
ENDBRANCH  23  25
ENDBRANCH  22  23
ENDBRANCH  21  22
ENDBRANCH  20  21
ENDBRANCH  19  20
ENDBRANCH   1  19
TORSDOF 19
ENDMDL
MODEL 3
REMARK VINA RESULT:      -6.6      6.545     10.204
REMARK  Name = 
REMARK  20 active torsions:
REMARK  status: ('A' for Active; 'I' for Inactive)
REMARK    1  A    between atoms: C_1  and  C_2
REMARK    2  A    between atoms: C_2  and  C_3
REMARK    3  A    between atoms: C_3  and  C_4
REMARK    4  A    between atoms: C_4  and  C_5
REMARK    5  A    between atoms: C_5  and  C_6
REMARK    6  A    between atoms: C_6  and  C_7
REMARK    7  A    between atoms: C_7  and  O_8
REMARK    8  A    between atoms: C_7  and  C_9
REMARK    9  A    between atoms: C_9  and  C_10
REMARK   10  A    between atoms: C_11  and  C_12
REMARK   11  A    between atoms: C_12  and  C_13
REMARK   12  A    between atoms: C_13  and  C_14
REMARK   13  A    between atoms: C_14  and  C_15
REMARK   14  A    between atoms: C_15  and  C_16
REMARK   15  A    between atoms: C_16  and  C_17
REMARK   16  A    between atoms: C_17  and  C_18
REMARK   17  A    between atoms: C_18  and  C_19
REMARK   18  A    between atoms: C_21  and  C_22
REMARK   19  A    between atoms: C_25  and  O_26
REMARK   20  A    between atoms: C_27  and  O_28
REMARK                            x       y       z     vdW  Elec       q    Type
REMARK                         _______ _______ _______ _____ _____    ______ ____
ROOT
ATOM      1  C   UNL     1       1.891   5.219  19.132  0.00  0.00    +0.000 C 
ENDROOT
BRANCH   1   2
ATOM      2  C   UNL     1       2.849   6.362  19.445  0.00  0.00    +0.000 C 
BRANCH   2   3
ATOM      3  C   UNL     1       2.094   7.576  19.832  0.00  0.00    +0.000 A 
ATOM      4  N   UNL     1       1.768   8.606  19.084  0.00  0.00    +0.000 NA
ATOM      5  C   UNL     1       1.130   9.466  19.953  0.00  0.00    +0.000 A 
ATOM      6  N   UNL     1       1.055   8.986  21.208  0.00  0.00    +0.000 NA
ATOM      7  N   UNL     1       1.659   7.803  21.103  0.00  0.00    +0.000 N 
ATOM      8  H   UNL     1       1.757   7.218  21.926  0.00  0.00    +0.000 HD
BRANCH   5   9
ATOM      9  C   UNL     1       0.617  10.757  19.499  0.00  0.00    +0.000 A 
ATOM     10  C   UNL     1       1.513  11.793  19.161  0.00  0.00    +0.000 A 
ATOM     11  C   UNL     1       1.052  13.041  18.720  0.00  0.00    +0.000 A 
ATOM     12  C   UNL     1      -0.314  13.252  18.616  0.00  0.00    +0.000 A 
ATOM     13  C   UNL     1      -1.204  12.238  18.946  0.00  0.00    +0.000 A 
ATOM     14  C   UNL     1      -0.755  10.996  19.385  0.00  0.00    +0.000 A 
BRANCH  13  15
ATOM     15  O   UNL     1      -2.552  12.456  18.842  0.00  0.00    +0.000 OA
ATOM     16  H   UNL     1      -2.625  13.348  18.456  0.00  0.00    +0.000 HD
ENDBRANCH  13  15
BRANCH  12  17
ATOM     17  O   UNL     1      -0.835  14.444  18.191  0.00  0.00    +0.000 OA
ATOM     18  H   UNL     1      -1.603  14.653  18.755  0.00  0.00    +0.000 HD
ENDBRANCH  12  17
ENDBRANCH   5   9
ENDBRANCH   2   3
ENDBRANCH   1   2
BRANCH   1  19
ATOM     19  C   UNL     1       1.430   4.532  20.412  0.00  0.00    +0.000 C 
BRANCH  19  20
ATOM     20  C   UNL     1       0.731   3.229  20.065  0.00  0.00    +0.000 C 
BRANCH  20  21
ATOM     21  C   UNL     1       1.724   2.134  19.690  0.00  0.00    +0.000 C 
BRANCH  21  22
ATOM     22  C   UNL     1       3.150   2.512  20.089  0.00  0.00    +0.000 C 
BRANCH  22  23
ATOM     23  C   UNL     1       4.205   2.173  19.034  0.00  0.00    +0.000 C 
BRANCH  23  25
ATOM     24  C   UNL     1       4.502   3.769  17.116  0.00  0.00    +0.000 C 
ATOM     25  C   UNL     1       3.861   2.744  17.685  0.00  0.00    +0.000 C 
BRANCH  24  26
ATOM     26  C   UNL     1       5.689   4.411  17.757  0.00  0.00    +0.000 C 
BRANCH  26  27
ATOM     27  C   UNL     1       6.755   4.771  16.740  0.00  0.00    +0.000 C 
BRANCH  27  28
ATOM     28  O   UNL     1       7.636   5.732  17.320  0.00  0.00    +0.000 OA
ATOM     29  H   UNL     1       7.203   6.604  17.295  0.00  0.00    +0.000 HD
ENDBRANCH  27  28
BRANCH  27  30
ATOM     30  C   UNL     1       6.079   5.334  15.492  0.00  0.00    +0.000 C 
BRANCH  30  31
ATOM     31  C   UNL     1       6.755   4.836  14.225  0.00  0.00    +0.000 C 
BRANCH  31  32
ATOM     32  C   UNL     1       6.168   3.497  13.796  0.00  0.00    +0.000 C 
BRANCH  32  33
ATOM     33  C   UNL     1       5.920   3.496  12.293  0.00  0.00    +0.000 C 
BRANCH  33  35
ATOM     34  C   UNL     1       4.008   2.876  10.806  0.00  0.00    +0.000 C 
ATOM     35  C   UNL     1       4.449   3.735  11.976  0.00  0.00    +0.000 C 
ENDBRANCH  33  35
ENDBRANCH  32  33
ENDBRANCH  31  32
ENDBRANCH  30  31
ENDBRANCH  27  30
ENDBRANCH  26  27
ENDBRANCH  24  26
ENDBRANCH  23  25
ENDBRANCH  22  23
ENDBRANCH  21  22
ENDBRANCH  20  21
ENDBRANCH  19  20
ENDBRANCH   1  19
TORSDOF 19
ENDMDL
MODEL 4
REMARK VINA RESULT:      -6.6      5.952     10.401
REMARK  Name = 
REMARK  20 active torsions:
REMARK  status: ('A' for Active; 'I' for Inactive)
REMARK    1  A    between atoms: C_1  and  C_2
REMARK    2  A    between atoms: C_2  and  C_3
REMARK    3  A    between atoms: C_3  and  C_4
REMARK    4  A    between atoms: C_4  and  C_5
REMARK    5  A    between atoms: C_5  and  C_6
REMARK    6  A    between atoms: C_6  and  C_7
REMARK    7  A    between atoms: C_7  and  O_8
REMARK    8  A    between atoms: C_7  and  C_9
REMARK    9  A    between atoms: C_9  and  C_10
REMARK   10  A    between atoms: C_11  and  C_12
REMARK   11  A    between atoms: C_12  and  C_13
REMARK   12  A    between atoms: C_13  and  C_14
REMARK   13  A    between atoms: C_14  and  C_15
REMARK   14  A    between atoms: C_15  and  C_16
REMARK   15  A    between atoms: C_16  and  C_17
REMARK   16  A    between atoms: C_17  and  C_18
REMARK   17  A    between atoms: C_18  and  C_19
REMARK   18  A    between atoms: C_21  and  C_22
REMARK   19  A    between atoms: C_25  and  O_26
REMARK   20  A    between atoms: C_27  and  O_28
REMARK                            x       y       z     vdW  Elec       q    Type
REMARK                         _______ _______ _______ _____ _____    ______ ____
ROOT
ATOM      1  C   UNL     1       2.794   7.286  17.895  0.00  0.00    +0.000 C 
ENDROOT
BRANCH   1   2
ATOM      2  C   UNL     1       2.903   8.805  17.868  0.00  0.00    +0.000 C 
BRANCH   2   3
ATOM      3  C   UNL     1       1.613   9.421  18.259  0.00  0.00    +0.000 A 
ATOM      4  N   UNL     1       0.510   9.519  17.553  0.00  0.00    +0.000 NA
ATOM      5  C   UNL     1      -0.350  10.227  18.367  0.00  0.00    +0.000 A 
ATOM      6  N   UNL     1       0.199  10.559  19.550  0.00  0.00    +0.000 NA
ATOM      7  N   UNL     1       1.423  10.039  19.459  0.00  0.00    +0.000 N 
ATOM      8  H   UNL     1       2.074  10.156  20.228  0.00  0.00    +0.000 HD
BRANCH   5   9
ATOM      9  C   UNL     1      -1.704  10.559  17.929  0.00  0.00    +0.000 A 
ATOM     10  C   UNL     1      -2.220   9.996  16.742  0.00  0.00    +0.000 A 
ATOM     11  C   UNL     1      -3.515  10.293  16.298  0.00  0.00    +0.000 A 
ATOM     12  C   UNL     1      -4.298  11.158  17.045  0.00  0.00    +0.000 A 
ATOM     13  C   UNL     1      -3.799  11.717  18.215  0.00  0.00    +0.000 A 
ATOM     14  C   UNL     1      -2.514  11.428  18.664  0.00  0.00    +0.000 A 
BRANCH  13  15
ATOM     15  O   UNL     1      -4.580  12.572  18.947  0.00  0.00    +0.000 OA
ATOM     16  H   UNL     1      -4.726  13.334  18.356  0.00  0.00    +0.000 HD
ENDBRANCH  13  15
BRANCH  12  17
ATOM     17  O   UNL     1      -5.573  11.492  16.672  0.00  0.00    +0.000 OA
ATOM     18  H   UNL     1      -5.881  12.202  17.265  0.00  0.00    +0.000 HD
ENDBRANCH  12  17
ENDBRANCH   5   9
ENDBRANCH   2   3
ENDBRANCH   1   2
BRANCH   1  19
ATOM     19  C   UNL     1       1.774   6.833  18.933  0.00  0.00    +0.000 C 
BRANCH  19  20
ATOM     20  C   UNL     1       2.466   5.986  19.988  0.00  0.00    +0.000 C 
BRANCH  20  21
ATOM     21  C   UNL     1       1.472   5.145  20.782  0.00  0.00    +0.000 C 
BRANCH  21  22
ATOM     22  C   UNL     1       2.143   3.911  21.387  0.00  0.00    +0.000 C 
BRANCH  22  23
ATOM     23  C   UNL     1       1.610   2.583  20.844  0.00  0.00    +0.000 C 
BRANCH  23  25
ATOM     24  C   UNL     1       1.482   2.574  18.334  0.00  0.00    +0.000 C 
ATOM     25  C   UNL     1       0.905   2.753  19.526  0.00  0.00    +0.000 C 
BRANCH  24  26
ATOM     26  C   UNL     1       2.897   2.114  18.204  0.00  0.00    +0.000 C 
BRANCH  26  27
ATOM     27  C   UNL     1       3.841   3.263  17.902  0.00  0.00    +0.000 C 
BRANCH  27  28
ATOM     28  O   UNL     1       4.628   2.922  16.763  0.00  0.00    +0.000 OA
ATOM     29  H   UNL     1       5.481   2.566  17.071  0.00  0.00    +0.000 HD
ENDBRANCH  27  28
BRANCH  27  30
ATOM     30  C   UNL     1       4.725   3.511  19.122  0.00  0.00    +0.000 C 
BRANCH  30  31
ATOM     31  C   UNL     1       6.076   4.079  18.719  0.00  0.00    +0.000 C 
BRANCH  31  32
ATOM     32  C   UNL     1       6.170   5.553  19.091  0.00  0.00    +0.000 C 
BRANCH  32  33
ATOM     33  C   UNL     1       7.630   5.986  19.131  0.00  0.00    +0.000 C 
BRANCH  33  35
ATOM     34  C   UNL     1       6.670   7.392  17.299  0.00  0.00    +0.000 C 
ATOM     35  C   UNL     1       7.895   7.124  18.153  0.00  0.00    +0.000 C 
ENDBRANCH  33  35
ENDBRANCH  32  33
ENDBRANCH  31  32
ENDBRANCH  30  31
ENDBRANCH  27  30
ENDBRANCH  26  27
ENDBRANCH  24  26
ENDBRANCH  23  25
ENDBRANCH  22  23
ENDBRANCH  21  22
ENDBRANCH  20  21
ENDBRANCH  19  20
ENDBRANCH   1  19
TORSDOF 19
ENDMDL
MODEL 5
REMARK VINA RESULT:      -6.5      7.274     11.612
REMARK  Name = 
REMARK  20 active torsions:
REMARK  status: ('A' for Active; 'I' for Inactive)
REMARK    1  A    between atoms: C_1  and  C_2
REMARK    2  A    between atoms: C_2  and  C_3
REMARK    3  A    between atoms: C_3  and  C_4
REMARK    4  A    between atoms: C_4  and  C_5
REMARK    5  A    between atoms: C_5  and  C_6
REMARK    6  A    between atoms: C_6  and  C_7
REMARK    7  A    between atoms: C_7  and  O_8
REMARK    8  A    between atoms: C_7  and  C_9
REMARK    9  A    between atoms: C_9  and  C_10
REMARK   10  A    between atoms: C_11  and  C_12
REMARK   11  A    between atoms: C_12  and  C_13
REMARK   12  A    between atoms: C_13  and  C_14
REMARK   13  A    between atoms: C_14  and  C_15
REMARK   14  A    between atoms: C_15  and  C_16
REMARK   15  A    between atoms: C_16  and  C_17
REMARK   16  A    between atoms: C_17  and  C_18
REMARK   17  A    between atoms: C_18  and  C_19
REMARK   18  A    between atoms: C_21  and  C_22
REMARK   19  A    between atoms: C_25  and  O_26
REMARK   20  A    between atoms: C_27  and  O_28
REMARK                            x       y       z     vdW  Elec       q    Type
REMARK                         _______ _______ _______ _____ _____    ______ ____
ROOT
ATOM      1  C   UNL     1       1.124  10.177  18.386  0.00  0.00    +0.000 C 
ENDROOT
BRANCH   1   2
ATOM      2  C   UNL     1      -0.366  10.451  18.538  0.00  0.00    +0.000 C 
BRANCH   2   3
ATOM      3  C   UNL     1      -0.652  11.018  19.877  0.00  0.00    +0.000 A 
ATOM      4  N   UNL     1      -1.717  11.678  20.271  0.00  0.00    +0.000 NA
ATOM      5  C   UNL     1      -1.438  12.020  21.578  0.00  0.00    +0.000 A 
ATOM      6  N   UNL     1      -0.234  11.583  21.990  0.00  0.00    +0.000 NA
ATOM      7  N   UNL     1       0.233  10.956  20.911  0.00  0.00    +0.000 N 
ATOM      8  H   UNL     1       1.155  10.532  20.940  0.00  0.00    +0.000 HD
BRANCH   5   9
ATOM      9  C   UNL     1      -2.390  12.788  22.378  0.00  0.00    +0.000 A 
ATOM     10  C   UNL     1      -2.713  14.112  22.014  0.00  0.00    +0.000 A 
ATOM     11  C   UNL     1      -3.623  14.872  22.760  0.00  0.00    +0.000 A 
ATOM     12  C   UNL     1      -4.214  14.303  23.876  0.00  0.00    +0.000 A 
ATOM     13  C   UNL     1      -3.903  13.000  24.244  0.00  0.00    +0.000 A 
ATOM     14  C   UNL     1      -3.000  12.238  23.509  0.00  0.00    +0.000 A 
BRANCH  13  15
ATOM     15  O   UNL     1      -4.491  12.446  25.350  0.00  0.00    +0.000 OA
ATOM     16  H   UNL     1      -4.998  11.689  25.002  0.00  0.00    +0.000 HD
ENDBRANCH  13  15
BRANCH  12  17
ATOM     17  O   UNL     1      -5.114  14.986  24.651  0.00  0.00    +0.000 OA
ATOM     18  H   UNL     1      -4.965  15.940  24.511  0.00  0.00    +0.000 HD
ENDBRANCH  12  17
ENDBRANCH   5   9
ENDBRANCH   2   3
ENDBRANCH   1   2
BRANCH   1  19
ATOM     19  C   UNL     1       1.408   8.680  18.430  0.00  0.00    +0.000 C 
BRANCH  19  20
ATOM     20  C   UNL     1       2.855   8.426  18.041  0.00  0.00    +0.000 C 
BRANCH  20  21
ATOM     21  C   UNL     1       3.097   6.965  17.677  0.00  0.00    +0.000 C 
BRANCH  21  22
ATOM     22  C   UNL     1       4.457   6.775  17.003  0.00  0.00    +0.000 C 
BRANCH  22  23
ATOM     23  C   UNL     1       5.231   5.550  17.494  0.00  0.00    +0.000 C 
BRANCH  23  25
ATOM     24  C   UNL     1       4.750   3.998  19.411  0.00  0.00    +0.000 C 
ATOM     25  C   UNL     1       4.934   5.233  18.935  0.00  0.00    +0.000 C 
BRANCH  24  26
ATOM     26  C   UNL     1       4.893   2.789  18.545  0.00  0.00    +0.000 C 
BRANCH  26  27
ATOM     27  C   UNL     1       3.708   1.851  18.683  0.00  0.00    +0.000 C 
BRANCH  27  28
ATOM     28  O   UNL     1       4.145   0.519  18.424  0.00  0.00    +0.000 OA
ATOM     29  H   UNL     1       4.001  -0.016  19.224  0.00  0.00    +0.000 HD
ENDBRANCH  27  28
BRANCH  27  30
ATOM     30  C   UNL     1       2.626   2.273  17.690  0.00  0.00    +0.000 C 
BRANCH  30  31
ATOM     31  C   UNL     1       1.307   2.542  18.393  0.00  0.00    +0.000 C 
BRANCH  31  32
ATOM     32  C   UNL     1       1.119   4.036  18.628  0.00  0.00    +0.000 C 
BRANCH  32  33
ATOM     33  C   UNL     1       1.207   4.343  20.118  0.00  0.00    +0.000 C 
BRANCH  33  35
ATOM     34  C   UNL     1       2.210   2.948  21.935  0.00  0.00    +0.000 C 
ATOM     35  C   UNL     1       1.062   3.076  20.952  0.00  0.00    +0.000 C 
ENDBRANCH  33  35
ENDBRANCH  32  33
ENDBRANCH  31  32
ENDBRANCH  30  31
ENDBRANCH  27  30
ENDBRANCH  26  27
ENDBRANCH  24  26
ENDBRANCH  23  25
ENDBRANCH  22  23
ENDBRANCH  21  22
ENDBRANCH  20  21
ENDBRANCH  19  20
ENDBRANCH   1  19
TORSDOF 19
ENDMDL
MODEL 6
REMARK VINA RESULT:      -6.5      6.253      9.837
REMARK  Name = 
REMARK  20 active torsions:
REMARK  status: ('A' for Active; 'I' for Inactive)
REMARK    1  A    between atoms: C_1  and  C_2
REMARK    2  A    between atoms: C_2  and  C_3
REMARK    3  A    between atoms: C_3  and  C_4
REMARK    4  A    between atoms: C_4  and  C_5
REMARK    5  A    between atoms: C_5  and  C_6
REMARK    6  A    between atoms: C_6  and  C_7
REMARK    7  A    between atoms: C_7  and  O_8
REMARK    8  A    between atoms: C_7  and  C_9
REMARK    9  A    between atoms: C_9  and  C_10
REMARK   10  A    between atoms: C_11  and  C_12
REMARK   11  A    between atoms: C_12  and  C_13
REMARK   12  A    between atoms: C_13  and  C_14
REMARK   13  A    between atoms: C_14  and  C_15
REMARK   14  A    between atoms: C_15  and  C_16
REMARK   15  A    between atoms: C_16  and  C_17
REMARK   16  A    between atoms: C_17  and  C_18
REMARK   17  A    between atoms: C_18  and  C_19
REMARK   18  A    between atoms: C_21  and  C_22
REMARK   19  A    between atoms: C_25  and  O_26
REMARK   20  A    between atoms: C_27  and  O_28
REMARK                            x       y       z     vdW  Elec       q    Type
REMARK                         _______ _______ _______ _____ _____    ______ ____
ROOT
ATOM      1  C   UNL     1       1.541   9.612  18.693  0.00  0.00    +0.000 C 
ENDROOT
BRANCH   1   2
ATOM      2  C   UNL     1       0.127  10.160  18.826  0.00  0.00    +0.000 C 
BRANCH   2   3
ATOM      3  C   UNL     1      -0.134  10.582  20.222  0.00  0.00    +0.000 A 
ATOM      4  N   UNL     1      -1.039  11.426  20.662  0.00  0.00    +0.000 NA
ATOM      5  C   UNL     1      -0.805  11.493  22.020  0.00  0.00    +0.000 A 
ATOM      6  N   UNL     1       0.214  10.711  22.418  0.00  0.00    +0.000 NA
ATOM      7  N   UNL     1       0.612  10.149  21.277  0.00  0.00    +0.000 N 
ATOM      8  H   UNL     1       1.396   9.505  21.284  0.00  0.00    +0.000 HD
BRANCH   5   9
ATOM      9  C   UNL     1      -1.612  12.354  22.884  0.00  0.00    +0.000 A 
ATOM     10  C   UNL     1      -1.137  13.630  23.251  0.00  0.00    +0.000 A 
ATOM     11  C   UNL     1      -1.888  14.478  24.076  0.00  0.00    +0.000 A 
ATOM     12  C   UNL     1      -3.122  14.046  24.535  0.00  0.00    +0.000 A 
ATOM     13  C   UNL     1      -3.598  12.790  24.179  0.00  0.00    +0.000 A 
ATOM     14  C   UNL     1      -2.859  11.942  23.361  0.00  0.00    +0.000 A 
BRANCH  13  15
ATOM     15  O   UNL     1      -4.818  12.370  24.639  0.00  0.00    +0.000 OA
ATOM     16  H   UNL     1      -4.615  11.592  25.191  0.00  0.00    +0.000 HD
ENDBRANCH  13  15
BRANCH  12  17
ATOM     17  O   UNL     1      -3.910  14.821  25.343  0.00  0.00    +0.000 OA
ATOM     18  H   UNL     1      -3.670  14.629  26.268  0.00  0.00    +0.000 HD
ENDBRANCH  12  17
ENDBRANCH   5   9
ENDBRANCH   2   3
ENDBRANCH   1   2
BRANCH   1  19
ATOM     19  C   UNL     1       1.593   8.487  17.666  0.00  0.00    +0.000 C 
BRANCH  19  20
ATOM     20  C   UNL     1       2.976   7.856  17.674  0.00  0.00    +0.000 C 
BRANCH  20  21
ATOM     21  C   UNL     1       3.144   6.870  18.825  0.00  0.00    +0.000 C 
BRANCH  21  22
ATOM     22  C   UNL     1       2.420   5.553  18.543  0.00  0.00    +0.000 C 
BRANCH  22  23
ATOM     23  C   UNL     1       3.342   4.333  18.496  0.00  0.00    +0.000 C 
BRANCH  23  25
ATOM     24  C   UNL     1       4.846   4.021  16.507  0.00  0.00    +0.000 C 
ATOM     25  C   UNL     1       3.647   3.907  17.086  0.00  0.00    +0.000 C 
BRANCH  24  26
ATOM     26  C   UNL     1       6.035   4.533  17.252  0.00  0.00    +0.000 C 
BRANCH  26  27
ATOM     27  C   UNL     1       6.531   5.852  16.688  0.00  0.00    +0.000 C 
BRANCH  27  28
ATOM     28  O   UNL     1       7.554   5.585  15.731  0.00  0.00    +0.000 OA
ATOM     29  H   UNL     1       8.409   5.538  16.196  0.00  0.00    +0.000 HD
ENDBRANCH  27  28
BRANCH  27  30
ATOM     30  C   UNL     1       7.065   6.710  17.833  0.00  0.00    +0.000 C 
BRANCH  30  31
ATOM     31  C   UNL     1       7.814   7.924  17.310  0.00  0.00    +0.000 C 
BRANCH  31  32
ATOM     32  C   UNL     1       8.379   8.744  18.463  0.00  0.00    +0.000 C 
BRANCH  32  33
ATOM     33  C   UNL     1       8.330  10.227  18.119  0.00  0.00    +0.000 C 
BRANCH  33  35
ATOM     34  C   UNL     1      10.067  11.063  19.712  0.00  0.00    +0.000 C 
ATOM     35  C   UNL     1       9.705  10.870  18.251  0.00  0.00    +0.000 C 
ENDBRANCH  33  35
ENDBRANCH  32  33
ENDBRANCH  31  32
ENDBRANCH  30  31
ENDBRANCH  27  30
ENDBRANCH  26  27
ENDBRANCH  24  26
ENDBRANCH  23  25
ENDBRANCH  22  23
ENDBRANCH  21  22
ENDBRANCH  20  21
ENDBRANCH  19  20
ENDBRANCH   1  19
TORSDOF 19
ENDMDL
MODEL 7
REMARK VINA RESULT:      -6.5      7.164     10.891
REMARK  Name = 
REMARK  20 active torsions:
REMARK  status: ('A' for Active; 'I' for Inactive)
REMARK    1  A    between atoms: C_1  and  C_2
REMARK    2  A    between atoms: C_2  and  C_3
REMARK    3  A    between atoms: C_3  and  C_4
REMARK    4  A    between atoms: C_4  and  C_5
REMARK    5  A    between atoms: C_5  and  C_6
REMARK    6  A    between atoms: C_6  and  C_7
REMARK    7  A    between atoms: C_7  and  O_8
REMARK    8  A    between atoms: C_7  and  C_9
REMARK    9  A    between atoms: C_9  and  C_10
REMARK   10  A    between atoms: C_11  and  C_12
REMARK   11  A    between atoms: C_12  and  C_13
REMARK   12  A    between atoms: C_13  and  C_14
REMARK   13  A    between atoms: C_14  and  C_15
REMARK   14  A    between atoms: C_15  and  C_16
REMARK   15  A    between atoms: C_16  and  C_17
REMARK   16  A    between atoms: C_17  and  C_18
REMARK   17  A    between atoms: C_18  and  C_19
REMARK   18  A    between atoms: C_21  and  C_22
REMARK   19  A    between atoms: C_25  and  O_26
REMARK   20  A    between atoms: C_27  and  O_28
REMARK                            x       y       z     vdW  Elec       q    Type
REMARK                         _______ _______ _______ _____ _____    ______ ____
ROOT
ATOM      1  C   UNL     1       2.386   8.229  17.388  0.00  0.00    +0.000 C 
ENDROOT
BRANCH   1   2
ATOM      2  C   UNL     1       2.432   9.298  18.473  0.00  0.00    +0.000 C 
BRANCH   2   3
ATOM      3  C   UNL     1       1.064   9.766  18.794  0.00  0.00    +0.000 A 
ATOM      4  N   UNL     1       0.055   9.958  17.975  0.00  0.00    +0.000 NA
ATOM      5  C   UNL     1      -0.948  10.448  18.784  0.00  0.00    +0.000 A 
ATOM      6  N   UNL     1      -0.579  10.557  20.073  0.00  0.00    +0.000 NA
ATOM      7  N   UNL     1       0.681  10.120  20.053  0.00  0.00    +0.000 N 
ATOM      8  H   UNL     1       1.218  10.106  20.913  0.00  0.00    +0.000 HD
BRANCH   5   9
ATOM      9  C   UNL     1      -2.255  10.804  18.236  0.00  0.00    +0.000 A 
ATOM     10  C   UNL     1      -2.693  10.231  17.023  0.00  0.00    +0.000 A 
ATOM     11  C   UNL     1      -3.941  10.550  16.474  0.00  0.00    +0.000 A 
ATOM     12  C   UNL     1      -4.757  11.448  17.142  0.00  0.00    +0.000 A 
ATOM     13  C   UNL     1      -4.336  12.019  18.336  0.00  0.00    +0.000 A 
ATOM     14  C   UNL     1      -3.097  11.708  18.889  0.00  0.00    +0.000 A 
BRANCH  13  15
ATOM     15  O   UNL     1      -5.148  12.908  18.989  0.00  0.00    +0.000 OA
ATOM     16  H   UNL     1      -5.295  12.505  19.865  0.00  0.00    +0.000 HD
ENDBRANCH  13  15
BRANCH  12  17
ATOM     17  O   UNL     1      -5.990  11.805  16.665  0.00  0.00    +0.000 OA
ATOM     18  H   UNL     1      -6.598  11.058  16.818  0.00  0.00    +0.000 HD
ENDBRANCH  12  17
ENDBRANCH   5   9
ENDBRANCH   2   3
ENDBRANCH   1   2
BRANCH   1  19
ATOM     19  C   UNL     1       1.944   6.889  17.965  0.00  0.00    +0.000 C 
BRANCH  19  20
ATOM     20  C   UNL     1       2.647   6.651  19.291  0.00  0.00    +0.000 C 
BRANCH  20  21
ATOM     21  C   UNL     1       1.654   6.462  20.433  0.00  0.00    +0.000 C 
BRANCH  21  22
ATOM     22  C   UNL     1       1.895   5.144  21.171  0.00  0.00    +0.000 C 
BRANCH  22  23
ATOM     23  C   UNL     1       2.927   4.234  20.500  0.00  0.00    +0.000 C 
BRANCH  23  25
ATOM     24  C   UNL     1       2.002   1.995  19.832  0.00  0.00    +0.000 C 
ATOM     25  C   UNL     1       2.623   2.776  20.720  0.00  0.00    +0.000 C 
BRANCH  24  26
ATOM     26  C   UNL     1       1.603   2.496  18.483  0.00  0.00    +0.000 C 
BRANCH  26  27
ATOM     27  C   UNL     1       2.691   2.269  17.450  0.00  0.00    +0.000 C 
BRANCH  27  28
ATOM     28  O   UNL     1       3.754   1.539  18.058  0.00  0.00    +0.000 OA
ATOM     29  H   UNL     1       3.453   1.219  18.927  0.00  0.00    +0.000 HD
ENDBRANCH  27  28
BRANCH  27  30
ATOM     30  C   UNL     1       3.180   3.623  16.942  0.00  0.00    +0.000 C 
BRANCH  30  31
ATOM     31  C   UNL     1       4.691   3.741  17.054  0.00  0.00    +0.000 C 
BRANCH  31  32
ATOM     32  C   UNL     1       5.125   5.197  16.934  0.00  0.00    +0.000 C 
BRANCH  32  33
ATOM     33  C   UNL     1       5.446   5.525  15.481  0.00  0.00    +0.000 C 
BRANCH  33  35
ATOM     34  C   UNL     1       6.002   3.927  13.639  0.00  0.00    +0.000 C 
ATOM     35  C   UNL     1       6.496   4.574  14.919  0.00  0.00    +0.000 C 
ENDBRANCH  33  35
ENDBRANCH  32  33
ENDBRANCH  31  32
ENDBRANCH  30  31
ENDBRANCH  27  30
ENDBRANCH  26  27
ENDBRANCH  24  26
ENDBRANCH  23  25
ENDBRANCH  22  23
ENDBRANCH  21  22
ENDBRANCH  20  21
ENDBRANCH  19  20
ENDBRANCH   1  19
TORSDOF 19
ENDMDL
MODEL 8
REMARK VINA RESULT:      -6.4      2.260      2.864
REMARK  Name = 
REMARK  20 active torsions:
REMARK  status: ('A' for Active; 'I' for Inactive)
REMARK    1  A    between atoms: C_1  and  C_2
REMARK    2  A    between atoms: C_2  and  C_3
REMARK    3  A    between atoms: C_3  and  C_4
REMARK    4  A    between atoms: C_4  and  C_5
REMARK    5  A    between atoms: C_5  and  C_6
REMARK    6  A    between atoms: C_6  and  C_7
REMARK    7  A    between atoms: C_7  and  O_8
REMARK    8  A    between atoms: C_7  and  C_9
REMARK    9  A    between atoms: C_9  and  C_10
REMARK   10  A    between atoms: C_11  and  C_12
REMARK   11  A    between atoms: C_12  and  C_13
REMARK   12  A    between atoms: C_13  and  C_14
REMARK   13  A    between atoms: C_14  and  C_15
REMARK   14  A    between atoms: C_15  and  C_16
REMARK   15  A    between atoms: C_16  and  C_17
REMARK   16  A    between atoms: C_17  and  C_18
REMARK   17  A    between atoms: C_18  and  C_19
REMARK   18  A    between atoms: C_21  and  C_22
REMARK   19  A    between atoms: C_25  and  O_26
REMARK   20  A    between atoms: C_27  and  O_28
REMARK                            x       y       z     vdW  Elec       q    Type
REMARK                         _______ _______ _______ _____ _____    ______ ____
ROOT
ATOM      1  C   UNL     1       8.041   7.514  18.400  0.00  0.00    +0.000 C 
ENDROOT
BRANCH   1   2
ATOM      2  C   UNL     1       7.120   7.929  17.261  0.00  0.00    +0.000 C 
BRANCH   2   3
ATOM      3  C   UNL     1       6.193   6.825  16.918  0.00  0.00    +0.000 A 
ATOM      4  N   UNL     1       5.450   6.105  17.727  0.00  0.00    +0.000 NA
ATOM      5  C   UNL     1       4.836   5.191  16.896  0.00  0.00    +0.000 A 
ATOM      6  N   UNL     1       5.181   5.338  15.604  0.00  0.00    +0.000 NA
ATOM      7  N   UNL     1       6.026   6.369  15.645  0.00  0.00    +0.000 N 
ATOM      8  H   UNL     1       6.460   6.693  14.787  0.00  0.00    +0.000 HD
BRANCH   5   9
ATOM      9  C   UNL     1       3.919   4.184  17.427  0.00  0.00    +0.000 A 
ATOM     10  C   UNL     1       2.578   4.525  17.704  0.00  0.00    +0.000 A 
ATOM     11  C   UNL     1       1.675   3.582  18.211  0.00  0.00    +0.000 A 
ATOM     12  C   UNL     1       2.116   2.289  18.442  0.00  0.00    +0.000 A 
ATOM     13  C   UNL     1       3.435   1.942  18.173  0.00  0.00    +0.000 A 
ATOM     14  C   UNL     1       4.338   2.873  17.669  0.00  0.00    +0.000 A 
BRANCH  13  15
ATOM     15  O   UNL     1       3.862   0.663  18.405  0.00  0.00    +0.000 OA
ATOM     16  H   UNL     1       4.026   0.295  17.517  0.00  0.00    +0.000 HD
ENDBRANCH  13  15
BRANCH  12  17
ATOM     17  O   UNL     1       1.289   1.315  18.935  0.00  0.00    +0.000 OA
ATOM     18  H   UNL     1       1.335   0.550  18.330  0.00  0.00    +0.000 HD
ENDBRANCH  12  17
ENDBRANCH   5   9
ENDBRANCH   2   3
ENDBRANCH   1   2
BRANCH   1  19
ATOM     19  C   UNL     1       8.851   8.703  18.904  0.00  0.00    +0.000 C 
BRANCH  19  20
ATOM     20  C   UNL     1       8.318   9.981  18.279  0.00  0.00    +0.000 C 
BRANCH  20  21
ATOM     21  C   UNL     1       9.438  10.964  17.953  0.00  0.00    +0.000 C 
BRANCH  21  22
ATOM     22  C   UNL     1      10.100  11.499  19.224  0.00  0.00    +0.000 C 
BRANCH  22  23
ATOM     23  C   UNL     1      11.626  11.581  19.145  0.00  0.00    +0.000 C 
BRANCH  23  25
ATOM     24  C   UNL     1      12.317  13.862  18.347  0.00  0.00    +0.000 C 
ATOM     25  C   UNL     1      12.087  12.567  18.107  0.00  0.00    +0.000 C 
BRANCH  24  26
ATOM     26  C   UNL     1      12.198  14.443  19.718  0.00  0.00    +0.000 C 
BRANCH  26  27
ATOM     27  C   UNL     1      10.896  15.200  19.900  0.00  0.00    +0.000 C 
BRANCH  27  28
ATOM     28  O   UNL     1      10.885  16.313  19.008  0.00  0.00    +0.000 OA
ATOM     29  H   UNL     1      10.057  16.292  18.496  0.00  0.00    +0.000 HD
ENDBRANCH  27  28
BRANCH  27  30
ATOM     30  C   UNL     1      10.791  15.663  21.351  0.00  0.00    +0.000 C 
BRANCH  30  31
ATOM     31  C   UNL     1       9.810  14.808  22.135  0.00  0.00    +0.000 C 
BRANCH  31  32
ATOM     32  C   UNL     1       8.653  14.369  21.246  0.00  0.00    +0.000 C 
BRANCH  32  33
ATOM     33  C   UNL     1       7.789  13.353  21.983  0.00  0.00    +0.000 C 
BRANCH  33  35
ATOM     34  C   UNL     1       8.215  11.723  23.831  0.00  0.00    +0.000 C 
ATOM     35  C   UNL     1       8.610  12.150  22.429  0.00  0.00    +0.000 C 
ENDBRANCH  33  35
ENDBRANCH  32  33
ENDBRANCH  31  32
ENDBRANCH  30  31
ENDBRANCH  27  30
ENDBRANCH  26  27
ENDBRANCH  24  26
ENDBRANCH  23  25
ENDBRANCH  22  23
ENDBRANCH  21  22
ENDBRANCH  20  21
ENDBRANCH  19  20
ENDBRANCH   1  19
TORSDOF 19
ENDMDL
MODEL 9
REMARK VINA RESULT:      -6.3      7.072     10.834
REMARK  Name = 
REMARK  20 active torsions:
REMARK  status: ('A' for Active; 'I' for Inactive)
REMARK    1  A    between atoms: C_1  and  C_2
REMARK    2  A    between atoms: C_2  and  C_3
REMARK    3  A    between atoms: C_3  and  C_4
REMARK    4  A    between atoms: C_4  and  C_5
REMARK    5  A    between atoms: C_5  and  C_6
REMARK    6  A    between atoms: C_6  and  C_7
REMARK    7  A    between atoms: C_7  and  O_8
REMARK    8  A    between atoms: C_7  and  C_9
REMARK    9  A    between atoms: C_9  and  C_10
REMARK   10  A    between atoms: C_11  and  C_12
REMARK   11  A    between atoms: C_12  and  C_13
REMARK   12  A    between atoms: C_13  and  C_14
REMARK   13  A    between atoms: C_14  and  C_15
REMARK   14  A    between atoms: C_15  and  C_16
REMARK   15  A    between atoms: C_16  and  C_17
REMARK   16  A    between atoms: C_17  and  C_18
REMARK   17  A    between atoms: C_18  and  C_19
REMARK   18  A    between atoms: C_21  and  C_22
REMARK   19  A    between atoms: C_25  and  O_26
REMARK   20  A    between atoms: C_27  and  O_28
REMARK                            x       y       z     vdW  Elec       q    Type
REMARK                         _______ _______ _______ _____ _____    ______ ____
ROOT
ATOM      1  C   UNL     1       1.740   7.750  17.929  0.00  0.00    +0.000 C 
ENDROOT
BRANCH   1   2
ATOM      2  C   UNL     1       2.156   9.215  17.934  0.00  0.00    +0.000 C 
BRANCH   2   3
ATOM      3  C   UNL     1       1.065  10.060  18.473  0.00  0.00    +0.000 A 
ATOM      4  N   UNL     1       1.012  10.684  19.627  0.00  0.00    +0.000 NA
ATOM      5  C   UNL     1      -0.239  11.265  19.639  0.00  0.00    +0.000 A 
ATOM      6  N   UNL     1      -0.947  11.014  18.523  0.00  0.00    +0.000 NA
ATOM      7  N   UNL     1      -0.107  10.264  17.809  0.00  0.00    +0.000 N 
ATOM      8  H   UNL     1      -0.399   9.915  16.902  0.00  0.00    +0.000 HD
BRANCH   5   9
ATOM      9  C   UNL     1      -0.694  12.054  20.782  0.00  0.00    +0.000 A 
ATOM     10  C   UNL     1      -0.968  11.422  22.013  0.00  0.00    +0.000 A 
ATOM     11  C   UNL     1      -1.404  12.151  23.127  0.00  0.00    +0.000 A 
ATOM     12  C   UNL     1      -1.565  13.522  23.008  0.00  0.00    +0.000 A 
ATOM     13  C   UNL     1      -1.298  14.155  21.801  0.00  0.00    +0.000 A 
ATOM     14  C   UNL     1      -0.865  13.438  20.690  0.00  0.00    +0.000 A 
BRANCH  13  15
ATOM     15  O   UNL     1      -1.462  15.510  21.692  0.00  0.00    +0.000 OA
ATOM     16  H   UNL     1      -2.106  15.734  22.390  0.00  0.00    +0.000 HD
ENDBRANCH  13  15
BRANCH  12  17
ATOM     17  O   UNL     1      -1.986  14.298  24.055  0.00  0.00    +0.000 OA
ATOM     18  H   UNL     1      -1.956  13.752  24.863  0.00  0.00    +0.000 HD
ENDBRANCH  12  17
ENDBRANCH   5   9
ENDBRANCH   2   3
ENDBRANCH   1   2
BRANCH   1  19
ATOM     19  C   UNL     1       2.623   6.932  18.865  0.00  0.00    +0.000 C 
BRANCH  19  20
ATOM     20  C   UNL     1       1.804   6.466  20.056  0.00  0.00    +0.000 C 
BRANCH  20  21
ATOM     21  C   UNL     1       2.198   5.062  20.503  0.00  0.00    +0.000 C 
BRANCH  21  22
ATOM     22  C   UNL     1       1.299   4.001  19.868  0.00  0.00    +0.000 C 
BRANCH  22  23
ATOM     23  C   UNL     1       1.417   3.913  18.345  0.00  0.00    +0.000 C 
BRANCH  23  25
ATOM     24  C   UNL     1       3.558   2.707  17.816  0.00  0.00    +0.000 C 
ATOM     25  C   UNL     1       2.224   2.721  17.907  0.00  0.00    +0.000 C 
BRANCH  24  26
ATOM     26  C   UNL     1       4.388   3.884  18.213  0.00  0.00    +0.000 C 
BRANCH  26  27
ATOM     27  C   UNL     1       5.500   4.154  17.218  0.00  0.00    +0.000 C 
BRANCH  27  28
ATOM     28  O   UNL     1       6.752   4.081  17.898  0.00  0.00    +0.000 OA
ATOM     29  H   UNL     1       7.300   4.837  17.622  0.00  0.00    +0.000 HD
ENDBRANCH  27  28
BRANCH  27  30
ATOM     30  C   UNL     1       5.292   5.537  16.606  0.00  0.00    +0.000 C 
BRANCH  30  31
ATOM     31  C   UNL     1       5.760   5.578  15.161  0.00  0.00    +0.000 C 
BRANCH  31  32
ATOM     32  C   UNL     1       5.343   4.311  14.426  0.00  0.00    +0.000 C 
BRANCH  32  33
ATOM     33  C   UNL     1       6.405   3.931  13.401  0.00  0.00    +0.000 C 
BRANCH  33  35
ATOM     34  C   UNL     1       6.845   2.367  11.500  0.00  0.00    +0.000 C 
ATOM     35  C   UNL     1       5.791   3.187  12.221  0.00  0.00    +0.000 C 
ENDBRANCH  33  35
ENDBRANCH  32  33
ENDBRANCH  31  32
ENDBRANCH  30  31
ENDBRANCH  27  30
ENDBRANCH  26  27
ENDBRANCH  24  26
ENDBRANCH  23  25
ENDBRANCH  22  23
ENDBRANCH  21  22
ENDBRANCH  20  21
ENDBRANCH  19  20
ENDBRANCH   1  19
TORSDOF 19
ENDMDL
