MODEL 1
REMARK VINA RESULT:      -8.1      0.000      0.000
REMARK  Name = 
REMARK  5 active torsions:
REMARK  status: ('A' for Active; 'I' for Inactive)
REMARK    1  A    between atoms: O_1  and  C_2
REMARK    2  A    between atoms: C_7  and  C_8
REMARK    3  A    between atoms: C_8  and  N_9
REMARK    4  A    between atoms: C_12  and  C_13
REMARK    5  A    between atoms: C_13  and  C_14
REMARK                            x       y       z     vdW  Elec       q    Type
REMARK                         _______ _______ _______ _____ _____    ______ ____
ROOT
ATOM      1  N   UNL     1       2.515   2.471  18.760  0.00  0.00    +0.000 NA
ATOM      2  C   UNL     1       2.891   2.436  20.189  0.00  0.00    +0.000 C 
ATOM      3  C   UNL     1       1.722   2.816  21.098  0.00  0.00    +0.000 C 
ATOM      4  C   UNL     1       1.178   4.216  20.776  0.00  0.00    +0.000 C 
ATOM      5  C   UNL     1       0.809   4.228  19.285  0.00  0.00    +0.000 C 
ATOM      6  C   UNL     1       1.971   3.790  18.382  0.00  0.00    +0.000 C 
ENDROOT
BRANCH   1   7
ATOM      7  C   UNL     1       3.714   2.124  17.961  0.00  0.00    +0.000 C 
BRANCH   7  13
ATOM      8  C   UNL     1       7.745   6.547  18.346  0.00  0.00    +0.000 A 
ATOM      9  C   UNL     1       7.484   6.691  16.984  0.00  0.00    +0.000 A 
ATOM     10  C   UNL     1       6.578   5.826  16.351  0.00  0.00    +0.000 A 
ATOM     11  C   UNL     1       5.945   4.833  17.112  0.00  0.00    +0.000 A 
ATOM     12  N   UNL     1       5.017   3.896  16.733  0.00  0.00    +0.000 NA
ATOM     13  C   UNL     1       4.723   3.221  17.830  0.00  0.00    +0.000 A 
ATOM     14  N   UNL     1       5.462   3.672  18.893  0.00  0.00    +0.000 N 
ATOM     15  C   UNL     1       6.237   4.720  18.466  0.00  0.00    +0.000 A 
ATOM     16  C   UNL     1       7.140   5.561  19.123  0.00  0.00    +0.000 A 
ATOM     17  H   UNL     1       5.432   3.287  19.828  0.00  0.00    +0.000 HD
BRANCH   8  18
ATOM     18  O   UNL     1       8.620   7.386  18.980  0.00  0.00    +0.000 OA
ATOM     19  H   UNL     1       8.773   7.053  19.879  0.00  0.00    +0.000 HD
ENDBRANCH   8  18
ENDBRANCH   7  13
ENDBRANCH   1   7
BRANCH   4  20
ATOM     20  C   UNL     1       2.148   5.376  21.118  0.00  0.00    +0.000 C 
BRANCH  20  21
ATOM     21  C   UNL     1       1.714   6.732  20.607  0.00  0.00    +0.000 A 
ATOM     22  C   UNL     1       2.250   7.241  19.413  0.00  0.00    +0.000 A 
ATOM     23  C   UNL     1       1.912   8.522  18.971  0.00  0.00    +0.000 A 
ATOM     24  C   UNL     1       1.022   9.297  19.711  0.00  0.00    +0.000 A 
ATOM     25  I   UNL     1       0.588  11.237  19.104  0.00  0.00    +0.000 I 
ATOM     26  C   UNL     1       0.438   8.784  20.868  0.00  0.00    +0.000 A 
ATOM     27  C   UNL     1       0.780   7.504  21.311  0.00  0.00    +0.000 A 
ENDBRANCH  20  21
ENDBRANCH   4  20
TORSDOF 5
ENDMDL
MODEL 2
REMARK VINA RESULT:      -7.6      0.961      1.162
REMARK  Name = 
REMARK  5 active torsions:
REMARK  status: ('A' for Active; 'I' for Inactive)
REMARK    1  A    between atoms: O_1  and  C_2
REMARK    2  A    between atoms: C_7  and  C_8
REMARK    3  A    between atoms: C_8  and  N_9
REMARK    4  A    between atoms: C_12  and  C_13
REMARK    5  A    between atoms: C_13  and  C_14
REMARK                            x       y       z     vdW  Elec       q    Type
REMARK                         _______ _______ _______ _____ _____    ______ ____
ROOT
ATOM      1  N   UNL     1       2.328   2.341  19.357  0.00  0.00    +0.000 NA
ATOM      2  C   UNL     1       3.027   2.678  20.615  0.00  0.00    +0.000 C 
ATOM      3  C   UNL     1       2.100   3.358  21.622  0.00  0.00    +0.000 C 
ATOM      4  C   UNL     1       1.481   4.643  21.054  0.00  0.00    +0.000 C 
ATOM      5  C   UNL     1       0.774   4.266  19.743  0.00  0.00    +0.000 C 
ATOM      6  C   UNL     1       1.697   3.534  18.759  0.00  0.00    +0.000 C 
ENDROOT
BRANCH   1   7
ATOM      7  C   UNL     1       3.310   1.722  18.436  0.00  0.00    +0.000 C 
BRANCH   7  13
ATOM      8  C   UNL     1       7.023   5.985  16.437  0.00  0.00    +0.000 A 
ATOM      9  C   UNL     1       6.580   5.565  15.185  0.00  0.00    +0.000 A 
ATOM     10  C   UNL     1       5.665   4.504  15.087  0.00  0.00    +0.000 A 
ATOM     11  C   UNL     1       5.209   3.892  16.264  0.00  0.00    +0.000 A 
ATOM     12  N   UNL     1       4.311   2.868  16.429  0.00  0.00    +0.000 NA
ATOM     13  C   UNL     1       4.211   2.688  17.734  0.00  0.00    +0.000 A 
ATOM     14  N   UNL     1       5.046   3.540  18.410  0.00  0.00    +0.000 N 
ATOM     15  C   UNL     1       5.681   4.339  17.493  0.00  0.00    +0.000 A 
ATOM     16  C   UNL     1       6.597   5.387  17.622  0.00  0.00    +0.000 A 
ATOM     17  H   UNL     1       5.164   3.564  19.414  0.00  0.00    +0.000 HD
BRANCH   8  18
ATOM     18  O   UNL     1       7.909   7.022  16.550  0.00  0.00    +0.000 OA
ATOM     19  H   UNL     1       8.578   6.788  17.214  0.00  0.00    +0.000 HD
ENDBRANCH   8  18
ENDBRANCH   7  13
ENDBRANCH   1   7
BRANCH   4  20
ATOM     20  C   UNL     1       2.491   5.797  20.828  0.00  0.00    +0.000 C 
BRANCH  20  21
ATOM     21  C   UNL     1       1.869   7.105  20.394  0.00  0.00    +0.000 A 
ATOM     22  C   UNL     1       2.163   7.643  19.131  0.00  0.00    +0.000 A 
ATOM     23  C   UNL     1       1.652   8.886  18.750  0.00  0.00    +0.000 A 
ATOM     24  C   UNL     1       0.827   9.592  19.624  0.00  0.00    +0.000 A 
ATOM     25  I   UNL     1       0.139  11.481  19.096  0.00  0.00    +0.000 I 
ATOM     26  C   UNL     1       0.480   9.045  20.858  0.00  0.00    +0.000 A 
ATOM     27  C   UNL     1       0.996   7.804  21.238  0.00  0.00    +0.000 A 
ENDBRANCH  20  21
ENDBRANCH   4  20
TORSDOF 5
ENDMDL
MODEL 3
REMARK VINA RESULT:      -7.5      1.351      1.837
REMARK  Name = 
REMARK  5 active torsions:
REMARK  status: ('A' for Active; 'I' for Inactive)
REMARK    1  A    between atoms: O_1  and  C_2
REMARK    2  A    between atoms: C_7  and  C_8
REMARK    3  A    between atoms: C_8  and  N_9
REMARK    4  A    between atoms: C_12  and  C_13
REMARK    5  A    between atoms: C_13  and  C_14
REMARK                            x       y       z     vdW  Elec       q    Type
REMARK                         _______ _______ _______ _____ _____    ______ ____
ROOT
ATOM      1  N   UNL     1       2.380   2.397  19.290  0.00  0.00    +0.000 NA
ATOM      2  C   UNL     1       3.018   2.699  20.589  0.00  0.00    +0.000 C 
ATOM      3  C   UNL     1       2.041   3.347  21.570  0.00  0.00    +0.000 C 
ATOM      4  C   UNL     1       1.447   4.648  21.010  0.00  0.00    +0.000 C 
ATOM      5  C   UNL     1       0.804   4.309  19.657  0.00  0.00    +0.000 C 
ATOM      6  C   UNL     1       1.775   3.606  18.697  0.00  0.00    +0.000 C 
ENDROOT
BRANCH   1   7
ATOM      7  C   UNL     1       3.407   1.807  18.399  0.00  0.00    +0.000 C 
BRANCH   7  13
ATOM      8  C   UNL     1       7.146   5.192  15.156  0.00  0.00    +0.000 A 
ATOM      9  C   UNL     1       7.338   5.860  16.364  0.00  0.00    +0.000 A 
ATOM     10  C   UNL     1       6.629   5.457  17.506  0.00  0.00    +0.000 A 
ATOM     11  C   UNL     1       5.741   4.375  17.405  0.00  0.00    +0.000 A 
ATOM     12  N   UNL     1       4.962   3.787  18.370  0.00  0.00    +0.000 NA
ATOM     13  C   UNL     1       4.335   2.795  17.765  0.00  0.00    +0.000 A 
ATOM     14  N   UNL     1       4.658   2.752  16.434  0.00  0.00    +0.000 N 
ATOM     15  C   UNL     1       5.575   3.739  16.180  0.00  0.00    +0.000 A 
ATOM     16  C   UNL     1       6.261   4.123  15.025  0.00  0.00    +0.000 A 
ATOM     17  H   UNL     1       4.276   2.098  15.763  0.00  0.00    +0.000 HD
BRANCH   8  18
ATOM     18  O   UNL     1       7.835   5.568  14.035  0.00  0.00    +0.000 OA
ATOM     19  H   UNL     1       7.321   6.247  13.568  0.00  0.00    +0.000 HD
ENDBRANCH   8  18
ENDBRANCH   7  13
ENDBRANCH   1   7
BRANCH   4  20
ATOM     20  C   UNL     1       2.464   5.809  20.867  0.00  0.00    +0.000 C 
BRANCH  20  21
ATOM     21  C   UNL     1       1.865   7.118  20.405  0.00  0.00    +0.000 A 
ATOM     22  C   UNL     1       2.167   7.623  19.130  0.00  0.00    +0.000 A 
ATOM     23  C   UNL     1       1.678   8.866  18.723  0.00  0.00    +0.000 A 
ATOM     24  C   UNL     1       0.869   9.607  19.583  0.00  0.00    +0.000 A 
ATOM     25  I   UNL     1       0.216  11.497  19.015  0.00  0.00    +0.000 I 
ATOM     26  C   UNL     1       0.514   9.095  20.829  0.00  0.00    +0.000 A 
ATOM     27  C   UNL     1       1.008   7.852  21.236  0.00  0.00    +0.000 A 
ENDBRANCH  20  21
ENDBRANCH   4  20
TORSDOF 5
ENDMDL
MODEL 4
REMARK VINA RESULT:      -7.4      3.389      5.037
REMARK  Name = 
REMARK  5 active torsions:
REMARK  status: ('A' for Active; 'I' for Inactive)
REMARK    1  A    between atoms: O_1  and  C_2
REMARK    2  A    between atoms: C_7  and  C_8
REMARK    3  A    between atoms: C_8  and  N_9
REMARK    4  A    between atoms: C_12  and  C_13
REMARK    5  A    between atoms: C_13  and  C_14
REMARK                            x       y       z     vdW  Elec       q    Type
REMARK                         _______ _______ _______ _____ _____    ______ ____
ROOT
ATOM      1  N   UNL     1       1.887   8.016  20.003  0.00  0.00    +0.000 NA
ATOM      2  C   UNL     1       2.052   8.324  18.567  0.00  0.00    +0.000 C 
ATOM      3  C   UNL     1       1.887   9.816  18.279  0.00  0.00    +0.000 C 
ATOM      4  C   UNL     1       0.516  10.339  18.731  0.00  0.00    +0.000 C 
ATOM      5  C   UNL     1       0.366   9.993  20.220  0.00  0.00    +0.000 C 
ATOM      6  C   UNL     1       0.589   8.502  20.509  0.00  0.00    +0.000 C 
ENDROOT
BRANCH   1   7
ATOM      7  C   UNL     1       2.028   6.551  20.178  0.00  0.00    +0.000 C 
BRANCH   7  13
ATOM      8  C   UNL     1       6.803   4.410  17.249  0.00  0.00    +0.000 A 
ATOM      9  C   UNL     1       5.860   4.065  16.284  0.00  0.00    +0.000 A 
ATOM     10  C   UNL     1       4.501   4.336  16.506  0.00  0.00    +0.000 A 
ATOM     11  C   UNL     1       4.122   4.961  17.703  0.00  0.00    +0.000 A 
ATOM     12  N   UNL     1       2.878   5.346  18.136  0.00  0.00    +0.000 NA
ATOM     13  C   UNL     1       3.069   5.911  19.314  0.00  0.00    +0.000 A 
ATOM     14  N   UNL     1       4.393   5.868  19.667  0.00  0.00    +0.000 N 
ATOM     15  C   UNL     1       5.094   5.284  18.643  0.00  0.00    +0.000 A 
ATOM     16  C   UNL     1       6.453   5.021  18.453  0.00  0.00    +0.000 A 
ATOM     17  H   UNL     1       4.775   6.211  20.539  0.00  0.00    +0.000 HD
BRANCH   8  18
ATOM     18  O   UNL     1       8.133   4.160  17.045  0.00  0.00    +0.000 OA
ATOM     19  H   UNL     1       8.392   3.397  17.587  0.00  0.00    +0.000 HD
ENDBRANCH   8  18
ENDBRANCH   7  13
ENDBRANCH   1   7
BRANCH   4  20
ATOM     20  C   UNL     1      -0.681   9.793  17.910  0.00  0.00    +0.000 C 
BRANCH  20  21
ATOM     21  C   UNL     1      -2.003  10.469  18.197  0.00  0.00    +0.000 A 
ATOM     22  C   UNL     1      -3.192   9.951  17.661  0.00  0.00    +0.000 A 
ATOM     23  C   UNL     1      -4.409  10.609  17.859  0.00  0.00    +0.000 A 
ATOM     24  C   UNL     1      -4.446  11.782  18.611  0.00  0.00    +0.000 A 
ATOM     25  I   UNL     1      -6.238  12.812  18.831  0.00  0.00    +0.000 I 
ATOM     26  C   UNL     1      -3.283  12.278  19.197  0.00  0.00    +0.000 A 
ATOM     27  C   UNL     1      -2.067  11.620  18.994  0.00  0.00    +0.000 A 
ENDBRANCH  20  21
ENDBRANCH   4  20
TORSDOF 5
ENDMDL
MODEL 5
REMARK VINA RESULT:      -7.3      0.810      1.676
REMARK  Name = 
REMARK  5 active torsions:
REMARK  status: ('A' for Active; 'I' for Inactive)
REMARK    1  A    between atoms: O_1  and  C_2
REMARK    2  A    between atoms: C_7  and  C_8
REMARK    3  A    between atoms: C_8  and  N_9
REMARK    4  A    between atoms: C_12  and  C_13
REMARK    5  A    between atoms: C_13  and  C_14
REMARK                            x       y       z     vdW  Elec       q    Type
REMARK                         _______ _______ _______ _____ _____    ______ ____
ROOT
ATOM      1  N   UNL     1       2.795   2.951  18.552  0.00  0.00    +0.000 NA
ATOM      2  C   UNL     1       2.990   2.758  20.004  0.00  0.00    +0.000 C 
ATOM      3  C   UNL     1       1.695   2.967  20.788  0.00  0.00    +0.000 C 
ATOM      4  C   UNL     1       1.108   4.369  20.561  0.00  0.00    +0.000 C 
ATOM      5  C   UNL     1       0.930   4.546  19.046  0.00  0.00    +0.000 C 
ATOM      6  C   UNL     1       2.221   4.278  18.260  0.00  0.00    +0.000 C 
ENDROOT
BRANCH   1   7
ATOM      7  C   UNL     1       4.105   2.761  17.883  0.00  0.00    +0.000 C 
BRANCH   7  13
ATOM      8  C   UNL     1       7.648   7.594  17.661  0.00  0.00    +0.000 A 
ATOM      9  C   UNL     1       8.274   6.991  18.751  0.00  0.00    +0.000 A 
ATOM     10  C   UNL     1       7.784   5.776  19.254  0.00  0.00    +0.000 A 
ATOM     11  C   UNL     1       6.669   5.187  18.637  0.00  0.00    +0.000 A 
ATOM     12  N   UNL     1       6.028   4.010  18.925  0.00  0.00    +0.000 NA
ATOM     13  C   UNL     1       5.059   3.904  18.034  0.00  0.00    +0.000 A 
ATOM     14  N   UNL     1       5.036   4.996  17.206  0.00  0.00    +0.000 N 
ATOM     15  C   UNL     1       6.071   5.825  17.556  0.00  0.00    +0.000 A 
ATOM     16  C   UNL     1       6.532   7.038  17.038  0.00  0.00    +0.000 A 
ATOM     17  H   UNL     1       4.362   5.153  16.468  0.00  0.00    +0.000 HD
BRANCH   8  18
ATOM     18  O   UNL     1       8.117   8.775  17.155  0.00  0.00    +0.000 OA
ATOM     19  H   UNL     1       8.982   8.963  17.555  0.00  0.00    +0.000 HD
ENDBRANCH   8  18
ENDBRANCH   7  13
ENDBRANCH   1   7
BRANCH   4  20
ATOM     20  C   UNL     1       1.952   5.522  21.161  0.00  0.00    +0.000 C 
BRANCH  20  21
ATOM     21  C   UNL     1       1.537   6.906  20.714  0.00  0.00    +0.000 A 
ATOM     22  C   UNL     1       0.551   7.611  21.422  0.00  0.00    +0.000 A 
ATOM     23  C   UNL     1       0.108   8.859  20.975  0.00  0.00    +0.000 A 
ATOM     24  C   UNL     1       0.661   9.417  19.824  0.00  0.00    +0.000 A 
ATOM     25  I   UNL     1      -0.060  11.229  19.105  0.00  0.00    +0.000 I 
ATOM     26  C   UNL     1       1.680   8.755  19.141  0.00  0.00    +0.000 A 
ATOM     27  C   UNL     1       2.119   7.506  19.589  0.00  0.00    +0.000 A 
ENDBRANCH  20  21
ENDBRANCH   4  20
TORSDOF 5
ENDMDL
MODEL 6
REMARK VINA RESULT:      -7.3      3.469      5.128
REMARK  Name = 
REMARK  5 active torsions:
REMARK  status: ('A' for Active; 'I' for Inactive)
REMARK    1  A    between atoms: O_1  and  C_2
REMARK    2  A    between atoms: C_7  and  C_8
REMARK    3  A    between atoms: C_8  and  N_9
REMARK    4  A    between atoms: C_12  and  C_13
REMARK    5  A    between atoms: C_13  and  C_14
REMARK                            x       y       z     vdW  Elec       q    Type
REMARK                         _______ _______ _______ _____ _____    ______ ____
ROOT
ATOM      1  N   UNL     1       2.247   7.863  19.628  0.00  0.00    +0.000 NA
ATOM      2  C   UNL     1       2.241   8.275  18.208  0.00  0.00    +0.000 C 
ATOM      3  C   UNL     1       1.954   9.767  18.045  0.00  0.00    +0.000 C 
ATOM      4  C   UNL     1       0.606  10.162  18.668  0.00  0.00    +0.000 C 
ATOM      5  C   UNL     1       0.635   9.711  20.136  0.00  0.00    +0.000 C 
ATOM      6  C   UNL     1       0.981   8.224  20.295  0.00  0.00    +0.000 C 
ENDROOT
BRANCH   1   7
ATOM      7  C   UNL     1       2.499   6.404  19.683  0.00  0.00    +0.000 C 
BRANCH   7  13
ATOM      8  C   UNL     1       6.177   4.051  15.573  0.00  0.00    +0.000 A 
ATOM      9  C   UNL     1       7.168   4.399  16.489  0.00  0.00    +0.000 A 
ATOM     10  C   UNL     1       6.819   5.047  17.684  0.00  0.00    +0.000 A 
ATOM     11  C   UNL     1       5.467   5.324  17.934  0.00  0.00    +0.000 A 
ATOM     12  N   UNL     1       4.880   5.919  19.023  0.00  0.00    +0.000 NA
ATOM     13  C   UNL     1       3.583   5.917  18.774  0.00  0.00    +0.000 A 
ATOM     14  N   UNL     1       3.322   5.374  17.543  0.00  0.00    +0.000 N 
ATOM     15  C   UNL     1       4.510   4.965  16.992  0.00  0.00    +0.000 A 
ATOM     16  C   UNL     1       4.828   4.326  15.790  0.00  0.00    +0.000 A 
ATOM     17  H   UNL     1       2.405   5.295  17.124  0.00  0.00    +0.000 HD
BRANCH   8  18
ATOM     18  O   UNL     1       6.500   3.412  14.407  0.00  0.00    +0.000 OA
ATOM     19  H   UNL     1       5.685   3.075  14.002  0.00  0.00    +0.000 HD
ENDBRANCH   8  18
ENDBRANCH   7  13
ENDBRANCH   1   7
BRANCH   4  20
ATOM     20  C   UNL     1      -0.632   9.587  17.934  0.00  0.00    +0.000 C 
BRANCH  20  21
ATOM     21  C   UNL     1      -1.910  10.369  18.146  0.00  0.00    +0.000 A 
ATOM     22  C   UNL     1      -1.914  11.506  18.969  0.00  0.00    +0.000 A 
ATOM     23  C   UNL     1      -3.103  12.192  19.230  0.00  0.00    +0.000 A 
ATOM     24  C   UNL     1      -4.295  11.753  18.656  0.00  0.00    +0.000 A 
ATOM     25  I   UNL     1      -6.079  12.716  19.114  0.00  0.00    +0.000 I 
ATOM     26  C   UNL     1      -4.297  10.660  17.791  0.00  0.00    +0.000 A 
ATOM     27  C   UNL     1      -3.107   9.973  17.535  0.00  0.00    +0.000 A 
ENDBRANCH  20  21
ENDBRANCH   4  20
TORSDOF 5
ENDMDL
MODEL 7
REMARK VINA RESULT:      -7.2      0.796      1.373
REMARK  Name = 
REMARK  5 active torsions:
REMARK  status: ('A' for Active; 'I' for Inactive)
REMARK    1  A    between atoms: O_1  and  C_2
REMARK    2  A    between atoms: C_7  and  C_8
REMARK    3  A    between atoms: C_8  and  N_9
REMARK    4  A    between atoms: C_12  and  C_13
REMARK    5  A    between atoms: C_13  and  C_14
REMARK                            x       y       z     vdW  Elec       q    Type
REMARK                         _______ _______ _______ _____ _____    ______ ____
ROOT
ATOM      1  N   UNL     1       2.852   2.901  18.224  0.00  0.00    +0.000 NA
ATOM      2  C   UNL     1       3.167   2.615  19.639  0.00  0.00    +0.000 C 
ATOM      3  C   UNL     1       1.925   2.685  20.528  0.00  0.00    +0.000 C 
ATOM      4  C   UNL     1       1.244   4.059  20.453  0.00  0.00    +0.000 C 
ATOM      5  C   UNL     1       0.941   4.336  18.974  0.00  0.00    +0.000 C 
ATOM      6  C   UNL     1       2.182   4.208  18.078  0.00  0.00    +0.000 C 
ENDROOT
BRANCH   1   7
ATOM      7  C   UNL     1       4.115   2.843  17.451  0.00  0.00    +0.000 C 
BRANCH   7  13
ATOM      8  C   UNL     1       7.696   7.648  17.671  0.00  0.00    +0.000 A 
ATOM      9  C   UNL     1       8.246   6.992  18.771  0.00  0.00    +0.000 A 
ATOM     10  C   UNL     1       7.717   5.760  19.187  0.00  0.00    +0.000 A 
ATOM     11  C   UNL     1       6.641   5.210  18.475  0.00  0.00    +0.000 A 
ATOM     12  N   UNL     1       5.975   4.026  18.669  0.00  0.00    +0.000 NA
ATOM     13  C   UNL     1       5.065   3.969  17.713  0.00  0.00    +0.000 A 
ATOM     14  N   UNL     1       5.102   5.097  16.935  0.00  0.00    +0.000 N 
ATOM     15  C   UNL     1       6.118   5.900  17.387  0.00  0.00    +0.000 A 
ATOM     16  C   UNL     1       6.619   7.130  16.954  0.00  0.00    +0.000 A 
ATOM     17  H   UNL     1       4.479   5.292  16.162  0.00  0.00    +0.000 HD
BRANCH   8  18
ATOM     18  O   UNL     1       8.205   8.845  17.249  0.00  0.00    +0.000 OA
ATOM     19  H   UNL     1       8.815   8.680  16.511  0.00  0.00    +0.000 HD
ENDBRANCH   8  18
ENDBRANCH   7  13
ENDBRANCH   1   7
BRANCH   4  20
ATOM     20  C   UNL     1       2.065   5.217  21.079  0.00  0.00    +0.000 C 
BRANCH  20  21
ATOM     21  C   UNL     1       1.684   6.596  20.588  0.00  0.00    +0.000 A 
ATOM     22  C   UNL     1       2.297   7.134  19.445  0.00  0.00    +0.000 A 
ATOM     23  C   UNL     1       2.007   8.434  19.027  0.00  0.00    +0.000 A 
ATOM     24  C   UNL     1       1.087   9.201  19.740  0.00  0.00    +0.000 A 
ATOM     25  I   UNL     1       0.721  11.167  19.174  0.00  0.00    +0.000 I 
ATOM     26  C   UNL     1       0.428   8.662  20.843  0.00  0.00    +0.000 A 
ATOM     27  C   UNL     1       0.723   7.361  21.262  0.00  0.00    +0.000 A 
ENDBRANCH  20  21
ENDBRANCH   4  20
TORSDOF 5
ENDMDL
MODEL 8
REMARK VINA RESULT:      -7.2      3.747      6.970
REMARK  Name = 
REMARK  5 active torsions:
REMARK  status: ('A' for Active; 'I' for Inactive)
REMARK    1  A    between atoms: O_1  and  C_2
REMARK    2  A    between atoms: C_7  and  C_8
REMARK    3  A    between atoms: C_8  and  N_9
REMARK    4  A    between atoms: C_12  and  C_13
REMARK    5  A    between atoms: C_13  and  C_14
REMARK                            x       y       z     vdW  Elec       q    Type
REMARK                         _______ _______ _______ _____ _____    ______ ____
ROOT
ATOM      1  N   UNL     1       5.751   4.956  18.075  0.00  0.00    +0.000 NA
ATOM      2  C   UNL     1       5.827   5.688  16.793  0.00  0.00    +0.000 C 
ATOM      3  C   UNL     1       7.257   6.112  16.459  0.00  0.00    +0.000 C 
ATOM      4  C   UNL     1       7.862   6.999  17.557  0.00  0.00    +0.000 C 
ATOM      5  C   UNL     1       7.758   6.221  18.877  0.00  0.00    +0.000 C 
ATOM      6  C   UNL     1       6.329   5.748  19.178  0.00  0.00    +0.000 C 
ENDROOT
BRANCH   1   7
ATOM      7  C   UNL     1       4.331   4.618  18.328  0.00  0.00    +0.000 C 
BRANCH   7  13
ATOM      8  C   UNL     1       1.098   9.648  18.784  0.00  0.00    +0.000 A 
ATOM      9  C   UNL     1       0.943   9.242  20.108  0.00  0.00    +0.000 A 
ATOM     10  C   UNL     1       1.516   8.036  20.542  0.00  0.00    +0.000 A 
ATOM     11  C   UNL     1       2.244   7.264  19.624  0.00  0.00    +0.000 A 
ATOM     12  N   UNL     1       2.908   6.077  19.808  0.00  0.00    +0.000 NA
ATOM     13  C   UNL     1       3.451   5.787  18.639  0.00  0.00    +0.000 A 
ATOM     14  N   UNL     1       3.124   6.732  17.701  0.00  0.00    +0.000 N 
ATOM     15  C   UNL     1       2.370   7.702  18.310  0.00  0.00    +0.000 A 
ATOM     16  C   UNL     1       1.806   8.894  17.849  0.00  0.00    +0.000 A 
ATOM     17  H   UNL     1       3.399   6.705  16.728  0.00  0.00    +0.000 HD
BRANCH   8  18
ATOM     18  O   UNL     1       0.552  10.824  18.348  0.00  0.00    +0.000 OA
ATOM     19  H   UNL     1       1.271  11.451  18.165  0.00  0.00    +0.000 HD
ENDBRANCH   8  18
ENDBRANCH   7  13
ENDBRANCH   1   7
BRANCH   4  20
ATOM     20  C   UNL     1       7.209   8.399  17.684  0.00  0.00    +0.000 C 
BRANCH  20  21
ATOM     21  C   UNL     1       8.154   9.498  18.114  0.00  0.00    +0.000 A 
ATOM     22  C   UNL     1       9.027   9.298  19.196  0.00  0.00    +0.000 A 
ATOM     23  C   UNL     1       9.851  10.332  19.647  0.00  0.00    +0.000 A 
ATOM     24  C   UNL     1       9.820  11.570  19.008  0.00  0.00    +0.000 A 
ATOM     25  I   UNL     1      10.977  13.136  19.734  0.00  0.00    +0.000 I 
ATOM     26  C   UNL     1       9.001  11.767  17.898  0.00  0.00    +0.000 A 
ATOM     27  C   UNL     1       8.175  10.732  17.451  0.00  0.00    +0.000 A 
ENDBRANCH  20  21
ENDBRANCH   4  20
TORSDOF 5
ENDMDL
MODEL 9
REMARK VINA RESULT:      -7.2      3.371      4.994
REMARK  Name = 
REMARK  5 active torsions:
REMARK  status: ('A' for Active; 'I' for Inactive)
REMARK    1  A    between atoms: O_1  and  C_2
REMARK    2  A    between atoms: C_7  and  C_8
REMARK    3  A    between atoms: C_8  and  N_9
REMARK    4  A    between atoms: C_12  and  C_13
REMARK    5  A    between atoms: C_13  and  C_14
REMARK                            x       y       z     vdW  Elec       q    Type
REMARK                         _______ _______ _______ _____ _____    ______ ____
ROOT
ATOM      1  N   UNL     1       2.237   7.828  19.454  0.00  0.00    +0.000 NA
ATOM      2  C   UNL     1       2.224   8.244  18.035  0.00  0.00    +0.000 C 
ATOM      3  C   UNL     1       1.970   9.743  17.879  0.00  0.00    +0.000 C 
ATOM      4  C   UNL     1       0.639  10.167  18.519  0.00  0.00    +0.000 C 
ATOM      5  C   UNL     1       0.675   9.713  19.985  0.00  0.00    +0.000 C 
ATOM      6  C   UNL     1       0.988   8.217  20.137  0.00  0.00    +0.000 C 
ENDROOT
BRANCH   1   7
ATOM      7  C   UNL     1       2.455   6.363  19.502  0.00  0.00    +0.000 C 
BRANCH   7  13
ATOM      8  C   UNL     1       6.727   5.104  15.488  0.00  0.00    +0.000 A 
ATOM      9  C   UNL     1       5.976   3.948  15.284  0.00  0.00    +0.000 A 
ATOM     10  C   UNL     1       4.817   3.725  16.043  0.00  0.00    +0.000 A 
ATOM     11  C   UNL     1       4.434   4.685  16.993  0.00  0.00    +0.000 A 
ATOM     12  N   UNL     1       3.347   4.706  17.829  0.00  0.00    +0.000 NA
ATOM     13  C   UNL     1       3.435   5.839  18.502  0.00  0.00    +0.000 A 
ATOM     14  N   UNL     1       4.568   6.528  18.150  0.00  0.00    +0.000 N 
ATOM     15  C   UNL     1       5.215   5.821  17.168  0.00  0.00    +0.000 A 
ATOM     16  C   UNL     1       6.377   6.068  16.433  0.00  0.00    +0.000 A 
ATOM     17  H   UNL     1       4.863   7.406  18.555  0.00  0.00    +0.000 HD
BRANCH   8  18
ATOM     18  O   UNL     1       7.856   5.340  14.751  0.00  0.00    +0.000 OA
ATOM     19  H   UNL     1       7.656   5.174  13.815  0.00  0.00    +0.000 HD
ENDBRANCH   8  18
ENDBRANCH   7  13
ENDBRANCH   1   7
BRANCH   4  20
ATOM     20  C   UNL     1      -0.621   9.624  17.799  0.00  0.00    +0.000 C 
BRANCH  20  21
ATOM     21  C   UNL     1      -1.906  10.340  18.151  0.00  0.00    +0.000 A 
ATOM     22  C   UNL     1      -3.135   9.866  17.665  0.00  0.00    +0.000 A 
ATOM     23  C   UNL     1      -4.319  10.561  17.924  0.00  0.00    +0.000 A 
ATOM     24  C   UNL     1      -4.283  11.728  18.685  0.00  0.00    +0.000 A 
ATOM     25  I   UNL     1      -6.029  12.814  18.994  0.00  0.00    +0.000 I 
ATOM     26  C   UNL     1      -3.079  12.180  19.222  0.00  0.00    +0.000 A 
ATOM     27  C   UNL     1      -1.896  11.485  18.959  0.00  0.00    +0.000 A 
ENDBRANCH  20  21
ENDBRANCH   4  20
TORSDOF 5
ENDMDL
