MODEL 1
REMARK VINA RESULT:      -8.7      0.000      0.000
REMARK  Name = 
REMARK  8 active torsions:
REMARK  status: ('A' for Active; 'I' for Inactive)
REMARK    1  A    between atoms: C_1  and  O_2
REMARK    2  A    between atoms: O_2  and  C_3
REMARK    3  A    between atoms: C_6  and  N_7
REMARK    4  A    between atoms: N_7  and  S_8
REMARK    5  A    between atoms: S_8  and  C_11
REMARK    6  A    between atoms: C_14  and  C_15
REMARK    7  A    between atoms: C_19  and  C_20
REMARK    8  A    between atoms: C_25  and  C_26
REMARK                            x       y       z     vdW  Elec       q    Type
REMARK                         _______ _______ _______ _____ _____    ______ ____
ROOT
ATOM      1  C   UNL     1       0.754   9.376  20.323  0.00  0.00    +0.000 A 
ATOM      2  C   UNL     1      -0.298  10.234  20.687  0.00  0.00    +0.000 A 
ATOM      3  C   UNL     1      -1.032  10.924  19.726  0.00  0.00    +0.000 A 
ATOM      4  C   UNL     1      -0.750  10.756  18.380  0.00  0.00    +0.000 A 
ATOM      5  C   UNL     1       0.258   9.879  17.991  0.00  0.00    +0.000 A 
ATOM      6  C   UNL     1       1.026   9.178  18.952  0.00  0.00    +0.000 A 
ENDROOT
BRANCH   6   7
ATOM      7  C   UNL     1       2.100   8.290  18.392  0.00  0.00    +0.000 C 
ATOM      8  O   UNL     1       2.693   8.694  17.387  0.00  0.00    +0.000 OA
ATOM      9  N   UNL     1       2.395   7.121  19.052  0.00  0.00    +0.000 N 
ATOM     10  C   UNL     1       3.348   6.257  18.573  0.00  0.00    +0.000 A 
ATOM     11  N   UNL     1       3.924   6.241  17.397  0.00  0.00    +0.000 NA
ATOM     12  C   UNL     1       4.803   5.174  17.306  0.00  0.00    +0.000 A 
ATOM     13  C   UNL     1       4.929   4.443  18.473  0.00  0.00    +0.000 A 
ATOM     14  S   UNL     1       3.834   5.038  19.661  0.00  0.00    +0.000 S 
ATOM     15  H   UNL     1       1.951   6.905  19.932  0.00  0.00    +0.000 HD
BRANCH  12  16
ATOM     16  C   UNL     1       5.508   4.878  16.062  0.00  0.00    +0.000 A 
ATOM     17  C   UNL     1       6.821   5.337  15.875  0.00  0.00    +0.000 A 
ATOM     18  C   UNL     1       7.496   5.101  14.674  0.00  0.00    +0.000 A 
ATOM     19  C   UNL     1       6.863   4.411  13.640  0.00  0.00    +0.000 A 
ATOM     20  C   UNL     1       5.559   3.953  13.809  0.00  0.00    +0.000 A 
ATOM     21  C   UNL     1       4.886   4.184  15.013  0.00  0.00    +0.000 A 
ENDBRANCH  12  16
ENDBRANCH   6   7
BRANCH   1  23
ATOM     22  C   UNL     1       1.418   9.223  22.599  0.00  0.00    +0.000 C 
ATOM     23  O   UNL     1       1.510   8.716  21.263  0.00  0.00    +0.000 OA
ENDBRANCH   1  23
BRANCH   4  24
ATOM     24  N   UNL     1      -1.527  11.480  17.436  0.00  0.00    +0.000 N 
ATOM     25  H   UNL     1      -1.027  11.999  16.713  0.00  0.00    +0.000 HD
BRANCH  24  26
ATOM     26  S   UNL     1      -2.913  10.746  16.798  0.00  0.00    +0.000 S 
ATOM     27  O   UNL     1      -2.918  11.048  15.381  0.00  0.00    +0.000 OA
ATOM     28  O   UNL     1      -2.974   9.383  17.273  0.00  0.00    +0.000 OA
BRANCH  26  29
ATOM     29  C   UNL     1      -4.236  11.673  17.541  0.00  0.00    +0.000 A 
ATOM     30  C   UNL     1      -4.210  11.951  18.910  0.00  0.00    +0.000 A 
ATOM     31  C   UNL     1      -5.296  12.605  19.497  0.00  0.00    +0.000 A 
ATOM     32  C   UNL     1      -6.397  12.995  18.718  0.00  0.00    +0.000 A 
ATOM     33  C   UNL     1      -7.581  13.681  19.334  0.00  0.00    +0.000 C 
ATOM     34  C   UNL     1      -6.390  12.738  17.341  0.00  0.00    +0.000 A 
ATOM     35  C   UNL     1      -5.312  12.079  16.750  0.00  0.00    +0.000 A 
ENDBRANCH  26  29
ENDBRANCH  24  26
ENDBRANCH   4  24
TORSDOF 6
ENDMDL
MODEL 2
REMARK VINA RESULT:      -8.6      3.806     10.381
REMARK  Name = 
REMARK  8 active torsions:
REMARK  status: ('A' for Active; 'I' for Inactive)
REMARK    1  A    between atoms: C_1  and  O_2
REMARK    2  A    between atoms: O_2  and  C_3
REMARK    3  A    between atoms: C_6  and  N_7
REMARK    4  A    between atoms: N_7  and  S_8
REMARK    5  A    between atoms: S_8  and  C_11
REMARK    6  A    between atoms: C_14  and  C_15
REMARK    7  A    between atoms: C_19  and  C_20
REMARK    8  A    between atoms: C_25  and  C_26
REMARK                            x       y       z     vdW  Elec       q    Type
REMARK                         _______ _______ _______ _____ _____    ______ ____
ROOT
ATOM      1  C   UNL     1       2.335   3.958  19.948  0.00  0.00    +0.000 A 
ATOM      2  C   UNL     1       3.086   2.797  19.692  0.00  0.00    +0.000 A 
ATOM      3  C   UNL     1       4.417   2.874  19.287  0.00  0.00    +0.000 A 
ATOM      4  C   UNL     1       5.034   4.107  19.153  0.00  0.00    +0.000 A 
ATOM      5  C   UNL     1       4.325   5.269  19.442  0.00  0.00    +0.000 A 
ATOM      6  C   UNL     1       2.968   5.215  19.841  0.00  0.00    +0.000 A 
ENDROOT
BRANCH   6   7
ATOM      7  C   UNL     1       2.318   6.546  20.091  0.00  0.00    +0.000 C 
ATOM      8  O   UNL     1       1.928   6.771  21.241  0.00  0.00    +0.000 OA
ATOM      9  N   UNL     1       2.248   7.447  19.056  0.00  0.00    +0.000 N 
ATOM     10  C   UNL     1       1.643   8.668  19.218  0.00  0.00    +0.000 A 
ATOM     11  N   UNL     1       0.876   9.080  20.195  0.00  0.00    +0.000 NA
ATOM     12  C   UNL     1       0.438  10.372  19.952  0.00  0.00    +0.000 A 
ATOM     13  C   UNL     1       0.965  10.942  18.807  0.00  0.00    +0.000 A 
ATOM     14  S   UNL     1       1.928   9.790  17.966  0.00  0.00    +0.000 S 
ATOM     15  H   UNL     1       2.689   7.243  18.170  0.00  0.00    +0.000 HD
BRANCH  12  16
ATOM     16  C   UNL     1      -0.506  11.033  20.849  0.00  0.00    +0.000 A 
ATOM     17  C   UNL     1      -0.565  10.661  22.200  0.00  0.00    +0.000 A 
ATOM     18  C   UNL     1      -1.492  11.252  23.064  0.00  0.00    +0.000 A 
ATOM     19  C   UNL     1      -2.378  12.216  22.586  0.00  0.00    +0.000 A 
ATOM     20  C   UNL     1      -2.334  12.592  21.245  0.00  0.00    +0.000 A 
ATOM     21  C   UNL     1      -1.403  12.005  20.382  0.00  0.00    +0.000 A 
ENDBRANCH  12  16
ENDBRANCH   6   7
BRANCH   1  23
ATOM     22  C   UNL     1       0.198   2.997  19.553  0.00  0.00    +0.000 C 
ATOM     23  O   UNL     1       1.011   3.898  20.314  0.00  0.00    +0.000 OA
ENDBRANCH   1  23
BRANCH   4  24
ATOM     24  N   UNL     1       6.393   4.135  18.738  0.00  0.00    +0.000 N 
ATOM     25  H   UNL     1       6.948   3.291  18.881  0.00  0.00    +0.000 HD
BRANCH  24  26
ATOM     26  S   UNL     1       6.769   4.856  17.253  0.00  0.00    +0.000 S 
ATOM     27  O   UNL     1       7.904   4.127  16.723  0.00  0.00    +0.000 OA
ATOM     28  O   UNL     1       5.551   5.003  16.489  0.00  0.00    +0.000 OA
BRANCH  26  29
ATOM     29  C   UNL     1       7.349   6.469  17.724  0.00  0.00    +0.000 A 
ATOM     30  C   UNL     1       6.997   7.587  16.962  0.00  0.00    +0.000 A 
ATOM     31  C   UNL     1       7.529   8.836  17.293  0.00  0.00    +0.000 A 
ATOM     32  C   UNL     1       8.395   8.973  18.389  0.00  0.00    +0.000 A 
ATOM     33  C   UNL     1       8.990  10.302  18.747  0.00  0.00    +0.000 C 
ATOM     34  C   UNL     1       8.709   7.847  19.161  0.00  0.00    +0.000 A 
ATOM     35  C   UNL     1       8.187   6.595  18.832  0.00  0.00    +0.000 A 
ENDBRANCH  26  29
ENDBRANCH  24  26
ENDBRANCH   4  24
TORSDOF 6
ENDMDL
MODEL 3
REMARK VINA RESULT:      -8.5      2.752      3.464
REMARK  Name = 
REMARK  8 active torsions:
REMARK  status: ('A' for Active; 'I' for Inactive)
REMARK    1  A    between atoms: C_1  and  O_2
REMARK    2  A    between atoms: O_2  and  C_3
REMARK    3  A    between atoms: C_6  and  N_7
REMARK    4  A    between atoms: N_7  and  S_8
REMARK    5  A    between atoms: S_8  and  C_11
REMARK    6  A    between atoms: C_14  and  C_15
REMARK    7  A    between atoms: C_19  and  C_20
REMARK    8  A    between atoms: C_25  and  C_26
REMARK                            x       y       z     vdW  Elec       q    Type
REMARK                         _______ _______ _______ _____ _____    ______ ____
ROOT
ATOM      1  C   UNL     1       1.884   7.572  20.023  0.00  0.00    +0.000 A 
ATOM      2  C   UNL     1       0.895   8.278  20.730  0.00  0.00    +0.000 A 
ATOM      3  C   UNL     1       0.327   9.439  20.212  0.00  0.00    +0.000 A 
ATOM      4  C   UNL     1       0.715   9.909  18.968  0.00  0.00    +0.000 A 
ATOM      5  C   UNL     1       1.663   9.206  18.229  0.00  0.00    +0.000 A 
ATOM      6  C   UNL     1       2.263   8.031  18.743  0.00  0.00    +0.000 A 
ENDROOT
BRANCH   6   7
ATOM      7  C   UNL     1       3.290   7.392  17.852  0.00  0.00    +0.000 C 
ATOM      8  O   UNL     1       3.282   7.725  16.663  0.00  0.00    +0.000 OA
ATOM      9  N   UNL     1       4.200   6.530  18.414  0.00  0.00    +0.000 N 
ATOM     10  C   UNL     1       5.145   5.896  17.645  0.00  0.00    +0.000 A 
ATOM     11  N   UNL     1       5.207   5.794  16.341  0.00  0.00    +0.000 NA
ATOM     12  C   UNL     1       6.304   5.034  15.970  0.00  0.00    +0.000 A 
ATOM     13  C   UNL     1       7.105   4.640  17.027  0.00  0.00    +0.000 A 
ATOM     14  S   UNL     1       6.396   5.135  18.516  0.00  0.00    +0.000 S 
ATOM     15  H   UNL     1       4.222   6.389  19.414  0.00  0.00    +0.000 HD
BRANCH  12  16
ATOM     16  C   UNL     1       6.551   4.694  14.572  0.00  0.00    +0.000 A 
ATOM     17  C   UNL     1       7.561   5.356  13.858  0.00  0.00    +0.000 A 
ATOM     18  C   UNL     1       7.783   5.075  12.507  0.00  0.00    +0.000 A 
ATOM     19  C   UNL     1       6.992   4.134  11.849  0.00  0.00    +0.000 A 
ATOM     20  C   UNL     1       5.982   3.472  12.543  0.00  0.00    +0.000 A 
ATOM     21  C   UNL     1       5.764   3.749  13.897  0.00  0.00    +0.000 A 
ENDBRANCH  12  16
ENDBRANCH   6   7
BRANCH   1  23
ATOM     22  C   UNL     1       1.665   5.266  20.550  0.00  0.00    +0.000 C 
ATOM     23  O   UNL     1       2.479   6.445  20.539  0.00  0.00    +0.000 OA
ENDBRANCH   1  23
BRANCH   4  24
ATOM     24  N   UNL     1       0.108  11.097  18.480  0.00  0.00    +0.000 N 
ATOM     25  H   UNL     1      -0.879  11.052  18.224  0.00  0.00    +0.000 HD
BRANCH  24  26
ATOM     26  S   UNL     1       0.460  12.562  19.254  0.00  0.00    +0.000 S 
ATOM     27  O   UNL     1       1.775  12.404  19.842  0.00  0.00    +0.000 OA
ATOM     28  O   UNL     1       0.172  13.646  18.343  0.00  0.00    +0.000 OA
BRANCH  26  29
ATOM     29  C   UNL     1      -0.714  12.604  20.588  0.00  0.00    +0.000 A 
ATOM     30  C   UNL     1      -0.267  12.606  21.912  0.00  0.00    +0.000 A 
ATOM     31  C   UNL     1      -1.200  12.553  22.950  0.00  0.00    +0.000 A 
ATOM     32  C   UNL     1      -2.575  12.515  22.670  0.00  0.00    +0.000 A 
ATOM     33  C   UNL     1      -3.591  12.438  23.771  0.00  0.00    +0.000 C 
ATOM     34  C   UNL     1      -3.005  12.548  21.337  0.00  0.00    +0.000 A 
ATOM     35  C   UNL     1      -2.079  12.594  20.295  0.00  0.00    +0.000 A 
ENDBRANCH  26  29
ENDBRANCH  24  26
ENDBRANCH   4  24
TORSDOF 6
ENDMDL
MODEL 4
REMARK VINA RESULT:      -8.5      3.958     10.018
REMARK  Name = 
REMARK  8 active torsions:
REMARK  status: ('A' for Active; 'I' for Inactive)
REMARK    1  A    between atoms: C_1  and  O_2
REMARK    2  A    between atoms: O_2  and  C_3
REMARK    3  A    between atoms: C_6  and  N_7
REMARK    4  A    between atoms: N_7  and  S_8
REMARK    5  A    between atoms: S_8  and  C_11
REMARK    6  A    between atoms: C_14  and  C_15
REMARK    7  A    between atoms: C_19  and  C_20
REMARK    8  A    between atoms: C_25  and  C_26
REMARK                            x       y       z     vdW  Elec       q    Type
REMARK                         _______ _______ _______ _____ _____    ______ ____
ROOT
ATOM      1  C   UNL     1       2.646   4.136  20.197  0.00  0.00    +0.000 A 
ATOM      2  C   UNL     1       3.421   2.966  20.124  0.00  0.00    +0.000 A 
ATOM      3  C   UNL     1       4.658   2.958  19.485  0.00  0.00    +0.000 A 
ATOM      4  C   UNL     1       5.160   4.122  18.925  0.00  0.00    +0.000 A 
ATOM      5  C   UNL     1       4.431   5.304  19.020  0.00  0.00    +0.000 A 
ATOM      6  C   UNL     1       3.165   5.331  19.653  0.00  0.00    +0.000 A 
ENDROOT
BRANCH   6   7
ATOM      7  C   UNL     1       2.478   6.667  19.657  0.00  0.00    +0.000 C 
ATOM      8  O   UNL     1       2.551   7.336  18.623  0.00  0.00    +0.000 OA
ATOM      9  N   UNL     1       1.769   7.036  20.775  0.00  0.00    +0.000 N 
ATOM     10  C   UNL     1       1.143   8.256  20.847  0.00  0.00    +0.000 A 
ATOM     11  N   UNL     1       1.283   9.297  20.066  0.00  0.00    +0.000 NA
ATOM     12  C   UNL     1       0.493  10.343  20.512  0.00  0.00    +0.000 A 
ATOM     13  C   UNL     1      -0.303  10.029  21.599  0.00  0.00    +0.000 A 
ATOM     14  S   UNL     1       0.042   8.430  22.136  0.00  0.00    +0.000 S 
ATOM     15  H   UNL     1       1.655   6.392  21.545  0.00  0.00    +0.000 HD
BRANCH  12  16
ATOM     16  C   UNL     1       0.534  11.652  19.867  0.00  0.00    +0.000 A 
ATOM     17  C   UNL     1       1.563  12.555  20.179  0.00  0.00    +0.000 A 
ATOM     18  C   UNL     1       1.594  13.828  19.603  0.00  0.00    +0.000 A 
ATOM     19  C   UNL     1       0.593  14.220  18.715  0.00  0.00    +0.000 A 
ATOM     20  C   UNL     1      -0.436  13.336  18.398  0.00  0.00    +0.000 A 
ATOM     21  C   UNL     1      -0.464  12.060  18.970  0.00  0.00    +0.000 A 
ENDBRANCH  12  16
ENDBRANCH   6   7
BRANCH   1  23
ATOM     22  C   UNL     1       1.053   2.962  21.511  0.00  0.00    +0.000 C 
ATOM     23  O   UNL     1       1.407   4.150  20.794  0.00  0.00    +0.000 OA
ENDBRANCH   1  23
BRANCH   4  24
ATOM     24  N   UNL     1       6.427   4.066  18.284  0.00  0.00    +0.000 N 
ATOM     25  H   UNL     1       6.862   3.150  18.177  0.00  0.00    +0.000 HD
BRANCH  24  26
ATOM     26  S   UNL     1       6.675   5.013  16.901  0.00  0.00    +0.000 S 
ATOM     27  O   UNL     1       7.667   4.318  16.106  0.00  0.00    +0.000 OA
ATOM     28  O   UNL     1       5.388   5.369  16.350  0.00  0.00    +0.000 OA
BRANCH  26  29
ATOM     29  C   UNL     1       7.447   6.477  17.549  0.00  0.00    +0.000 A 
ATOM     30  C   UNL     1       8.122   6.427  18.772  0.00  0.00    +0.000 A 
ATOM     31  C   UNL     1       8.650   7.603  19.312  0.00  0.00    +0.000 A 
ATOM     32  C   UNL     1       8.520   8.820  18.627  0.00  0.00    +0.000 A 
ATOM     33  C   UNL     1       9.064  10.096  19.199  0.00  0.00    +0.000 C 
ATOM     34  C   UNL     1       7.870   8.845  17.386  0.00  0.00    +0.000 A 
ATOM     35  C   UNL     1       7.334   7.676  16.844  0.00  0.00    +0.000 A 
ENDBRANCH  26  29
ENDBRANCH  24  26
ENDBRANCH   4  24
TORSDOF 6
ENDMDL
MODEL 5
REMARK VINA RESULT:      -8.5      4.171     10.050
REMARK  Name = 
REMARK  8 active torsions:
REMARK  status: ('A' for Active; 'I' for Inactive)
REMARK    1  A    between atoms: C_1  and  O_2
REMARK    2  A    between atoms: O_2  and  C_3
REMARK    3  A    between atoms: C_6  and  N_7
REMARK    4  A    between atoms: N_7  and  S_8
REMARK    5  A    between atoms: S_8  and  C_11
REMARK    6  A    between atoms: C_14  and  C_15
REMARK    7  A    between atoms: C_19  and  C_20
REMARK    8  A    between atoms: C_25  and  C_26
REMARK                            x       y       z     vdW  Elec       q    Type
REMARK                         _______ _______ _______ _____ _____    ______ ____
ROOT
ATOM      1  C   UNL     1       2.533   4.192  19.841  0.00  0.00    +0.000 A 
ATOM      2  C   UNL     1       3.280   3.006  19.740  0.00  0.00    +0.000 A 
ATOM      3  C   UNL     1       4.575   3.010  19.228  0.00  0.00    +0.000 A 
ATOM      4  C   UNL     1       5.163   4.199  18.829  0.00  0.00    +0.000 A 
ATOM      5  C   UNL     1       4.460   5.394  18.958  0.00  0.00    +0.000 A 
ATOM      6  C   UNL     1       3.137   5.410  19.462  0.00  0.00    +0.000 A 
ENDROOT
BRANCH   6   7
ATOM      7  C   UNL     1       2.488   6.764  19.519  0.00  0.00    +0.000 C 
ATOM      8  O   UNL     1       2.543   7.454  18.496  0.00  0.00    +0.000 OA
ATOM      9  N   UNL     1       1.832   7.130  20.670  0.00  0.00    +0.000 N 
ATOM     10  C   UNL     1       1.244   8.364  20.789  0.00  0.00    +0.000 A 
ATOM     11  N   UNL     1       1.385   9.417  20.025  0.00  0.00    +0.000 NA
ATOM     12  C   UNL     1       0.642  10.476  20.522  0.00  0.00    +0.000 A 
ATOM     13  C   UNL     1      -0.122  10.160  21.631  0.00  0.00    +0.000 A 
ATOM     14  S   UNL     1       0.196   8.541  22.122  0.00  0.00    +0.000 S 
ATOM     15  H   UNL     1       1.728   6.472  21.430  0.00  0.00    +0.000 HD
BRANCH  12  16
ATOM     16  C   UNL     1       0.698  11.797  19.902  0.00  0.00    +0.000 A 
ATOM     17  C   UNL     1       1.633  12.056  18.888  0.00  0.00    +0.000 A 
ATOM     18  C   UNL     1       1.730  13.326  18.313  0.00  0.00    +0.000 A 
ATOM     19  C   UNL     1       0.899  14.357  18.751  0.00  0.00    +0.000 A 
ATOM     20  C   UNL     1      -0.031  14.116  19.759  0.00  0.00    +0.000 A 
ATOM     21  C   UNL     1      -0.132  12.844  20.330  0.00  0.00    +0.000 A 
ENDBRANCH  12  16
ENDBRANCH   6   7
BRANCH   1  23
ATOM     22  C   UNL     1       0.922   3.171  21.258  0.00  0.00    +0.000 C 
ATOM     23  O   UNL     1       1.241   4.197  20.312  0.00  0.00    +0.000 OA
ENDBRANCH   1  23
BRANCH   4  24
ATOM     24  N   UNL     1       6.486   4.155  18.314  0.00  0.00    +0.000 N 
ATOM     25  H   UNL     1       6.950   3.246  18.282  0.00  0.00    +0.000 HD
BRANCH  24  26
ATOM     26  S   UNL     1       6.844   5.060  16.928  0.00  0.00    +0.000 S 
ATOM     27  O   UNL     1       7.968   4.402  16.292  0.00  0.00    +0.000 OA
ATOM     28  O   UNL     1       5.616   5.308  16.209  0.00  0.00    +0.000 OA
BRANCH  26  29
ATOM     29  C   UNL     1       7.439   6.597  17.594  0.00  0.00    +0.000 A 
ATOM     30  C   UNL     1       7.210   7.791  16.906  0.00  0.00    +0.000 A 
ATOM     31  C   UNL     1       7.756   8.980  17.396  0.00  0.00    +0.000 A 
ATOM     32  C   UNL     1       8.514   8.980  18.577  0.00  0.00    +0.000 A 
ATOM     33  C   UNL     1       9.124  10.244  19.109  0.00  0.00    +0.000 C 
ATOM     34  C   UNL     1       8.704   7.779  19.272  0.00  0.00    +0.000 A 
ATOM     35  C   UNL     1       8.168   6.587  18.785  0.00  0.00    +0.000 A 
ENDBRANCH  26  29
ENDBRANCH  24  26
ENDBRANCH   4  24
TORSDOF 6
ENDMDL
MODEL 6
REMARK VINA RESULT:      -8.4      3.027     10.987
REMARK  Name = 
REMARK  8 active torsions:
REMARK  status: ('A' for Active; 'I' for Inactive)
REMARK    1  A    between atoms: C_1  and  O_2
REMARK    2  A    between atoms: O_2  and  C_3
REMARK    3  A    between atoms: C_6  and  N_7
REMARK    4  A    between atoms: N_7  and  S_8
REMARK    5  A    between atoms: S_8  and  C_11
REMARK    6  A    between atoms: C_14  and  C_15
REMARK    7  A    between atoms: C_19  and  C_20
REMARK    8  A    between atoms: C_25  and  C_26
REMARK                            x       y       z     vdW  Elec       q    Type
REMARK                         _______ _______ _______ _____ _____    ______ ____
ROOT
ATOM      1  C   UNL     1       1.713   9.207  18.559  0.00  0.00    +0.000 A 
ATOM      2  C   UNL     1       2.584   8.272  17.974  0.00  0.00    +0.000 A 
ATOM      3  C   UNL     1       2.947   7.106  18.644  0.00  0.00    +0.000 A 
ATOM      4  C   UNL     1       2.431   6.835  19.900  0.00  0.00    +0.000 A 
ATOM      5  C   UNL     1       1.533   7.723  20.484  0.00  0.00    +0.000 A 
ATOM      6  C   UNL     1       1.161   8.922  19.827  0.00  0.00    +0.000 A 
ENDROOT
BRANCH   6   7
ATOM      7  C   UNL     1       0.208   9.801  20.586  0.00  0.00    +0.000 C 
ATOM      8  O   UNL     1      -0.559   9.242  21.375  0.00  0.00    +0.000 OA
ATOM      9  N   UNL     1       0.282  11.160  20.401  0.00  0.00    +0.000 N 
ATOM     10  C   UNL     1      -0.581  12.011  21.047  0.00  0.00    +0.000 A 
ATOM     11  N   UNL     1      -1.682  11.727  21.695  0.00  0.00    +0.000 NA
ATOM     12  C   UNL     1      -2.277  12.886  22.165  0.00  0.00    +0.000 A 
ATOM     13  C   UNL     1      -1.548  14.036  21.921  0.00  0.00    +0.000 A 
ATOM     14  S   UNL     1      -0.155  13.661  20.982  0.00  0.00    +0.000 S 
ATOM     15  H   UNL     1       1.009  11.560  19.825  0.00  0.00    +0.000 HD
BRANCH  12  16
ATOM     16  C   UNL     1      -3.568  12.852  22.846  0.00  0.00    +0.000 A 
ATOM     17  C   UNL     1      -3.655  12.360  24.157  0.00  0.00    +0.000 A 
ATOM     18  C   UNL     1      -4.889  12.279  24.810  0.00  0.00    +0.000 A 
ATOM     19  C   UNL     1      -6.054  12.680  24.156  0.00  0.00    +0.000 A 
ATOM     20  C   UNL     1      -5.983  13.166  22.852  0.00  0.00    +0.000 A 
ATOM     21  C   UNL     1      -4.748  13.252  22.202  0.00  0.00    +0.000 A 
ENDBRANCH  12  16
ENDBRANCH   6   7
BRANCH   1  23
ATOM     22  C   UNL     1       2.390  11.387  17.903  0.00  0.00    +0.000 C 
ATOM     23  O   UNL     1       1.374  10.378  17.925  0.00  0.00    +0.000 OA
ENDBRANCH   1  23
BRANCH   4  24
ATOM     24  N   UNL     1       2.829   5.633  20.544  0.00  0.00    +0.000 N 
ATOM     25  H   UNL     1       2.590   5.524  21.530  0.00  0.00    +0.000 HD
BRANCH  24  26
ATOM     26  S   UNL     1       2.634   4.169  19.715  0.00  0.00    +0.000 S 
ATOM     27  O   UNL     1       2.929   3.119  20.668  0.00  0.00    +0.000 OA
ATOM     28  O   UNL     1       1.375   4.205  19.006  0.00  0.00    +0.000 OA
BRANCH  26  29
ATOM     29  C   UNL     1       3.960   4.198  18.532  0.00  0.00    +0.000 A 
ATOM     30  C   UNL     1       5.267   4.458  18.954  0.00  0.00    +0.000 A 
ATOM     31  C   UNL     1       6.286   4.562  18.004  0.00  0.00    +0.000 A 
ATOM     32  C   UNL     1       6.006   4.392  16.640  0.00  0.00    +0.000 A 
ATOM     33  C   UNL     1       7.084   4.519  15.604  0.00  0.00    +0.000 C 
ATOM     34  C   UNL     1       4.697   4.097  16.238  0.00  0.00    +0.000 A 
ATOM     35  C   UNL     1       3.673   3.999  17.180  0.00  0.00    +0.000 A 
ENDBRANCH  26  29
ENDBRANCH  24  26
ENDBRANCH   4  24
TORSDOF 6
ENDMDL
MODEL 7
REMARK VINA RESULT:      -8.2      3.383     10.701
REMARK  Name = 
REMARK  8 active torsions:
REMARK  status: ('A' for Active; 'I' for Inactive)
REMARK    1  A    between atoms: C_1  and  O_2
REMARK    2  A    between atoms: O_2  and  C_3
REMARK    3  A    between atoms: C_6  and  N_7
REMARK    4  A    between atoms: N_7  and  S_8
REMARK    5  A    between atoms: S_8  and  C_11
REMARK    6  A    between atoms: C_14  and  C_15
REMARK    7  A    between atoms: C_19  and  C_20
REMARK    8  A    between atoms: C_25  and  C_26
REMARK                            x       y       z     vdW  Elec       q    Type
REMARK                         _______ _______ _______ _____ _____    ______ ____
ROOT
ATOM      1  C   UNL     1       2.341   4.348  18.858  0.00  0.00    +0.000 A 
ATOM      2  C   UNL     1       3.098   3.273  18.359  0.00  0.00    +0.000 A 
ATOM      3  C   UNL     1       4.377   3.469  17.846  0.00  0.00    +0.000 A 
ATOM      4  C   UNL     1       4.939   4.735  17.839  0.00  0.00    +0.000 A 
ATOM      5  C   UNL     1       4.227   5.809  18.365  0.00  0.00    +0.000 A 
ATOM      6  C   UNL     1       2.920   5.635  18.880  0.00  0.00    +0.000 A 
ENDROOT
BRANCH   6   7
ATOM      7  C   UNL     1       2.258   6.885  19.388  0.00  0.00    +0.000 C 
ATOM      8  O   UNL     1       1.832   6.860  20.546  0.00  0.00    +0.000 OA
ATOM      9  N   UNL     1       2.217   7.985  18.566  0.00  0.00    +0.000 N 
ATOM     10  C   UNL     1       1.603   9.146  18.966  0.00  0.00    +0.000 A 
ATOM     11  N   UNL     1       0.805   9.343  19.985  0.00  0.00    +0.000 NA
ATOM     12  C   UNL     1       0.370  10.658  20.008  0.00  0.00    +0.000 A 
ATOM     13  C   UNL     1       0.930  11.457  19.028  0.00  0.00    +0.000 A 
ATOM     14  S   UNL     1       1.923  10.508  17.992  0.00  0.00    +0.000 S 
ATOM     15  H   UNL     1       2.686   7.974  17.672  0.00  0.00    +0.000 HD
BRANCH  12  16
ATOM     16  C   UNL     1      -0.604  11.115  20.996  0.00  0.00    +0.000 A 
ATOM     17  C   UNL     1      -1.605  12.025  20.623  0.00  0.00    +0.000 A 
ATOM     18  C   UNL     1      -2.519  12.507  21.565  0.00  0.00    +0.000 A 
ATOM     19  C   UNL     1      -2.438  12.093  22.894  0.00  0.00    +0.000 A 
ATOM     20  C   UNL     1      -1.447  11.194  23.280  0.00  0.00    +0.000 A 
ATOM     21  C   UNL     1      -0.536  10.707  22.336  0.00  0.00    +0.000 A 
ENDBRANCH  12  16
ENDBRANCH   6   7
BRANCH   1  23
ATOM     22  C   UNL     1       0.717   2.836  19.707  0.00  0.00    +0.000 C 
ATOM     23  O   UNL     1       1.063   4.175  19.335  0.00  0.00    +0.000 OA
ENDBRANCH   1  23
BRANCH   4  24
ATOM     24  N   UNL     1       6.248   4.886  17.306  0.00  0.00    +0.000 N 
ATOM     25  H   UNL     1       6.784   4.037  17.123  0.00  0.00    +0.000 HD
BRANCH  24  26
ATOM     26  S   UNL     1       6.493   6.026  16.077  0.00  0.00    +0.000 S 
ATOM     27  O   UNL     1       5.322   6.879  16.076  0.00  0.00    +0.000 OA
ATOM     28  O   UNL     1       7.821   6.577  16.219  0.00  0.00    +0.000 OA
BRANCH  26  29
ATOM     29  C   UNL     1       6.433   5.043  14.598  0.00  0.00    +0.000 A 
ATOM     30  C   UNL     1       5.358   4.177  14.378  0.00  0.00    +0.000 A 
ATOM     31  C   UNL     1       5.366   3.347  13.254  0.00  0.00    +0.000 A 
ATOM     32  C   UNL     1       6.433   3.392  12.344  0.00  0.00    +0.000 A 
ATOM     33  C   UNL     1       6.468   2.495  11.142  0.00  0.00    +0.000 C 
ATOM     34  C   UNL     1       7.485   4.291  12.563  0.00  0.00    +0.000 A 
ATOM     35  C   UNL     1       7.488   5.117  13.687  0.00  0.00    +0.000 A 
ENDBRANCH  26  29
ENDBRANCH  24  26
ENDBRANCH   4  24
TORSDOF 6
ENDMDL
MODEL 8
REMARK VINA RESULT:      -8.2      1.007      1.223
REMARK  Name = 
REMARK  8 active torsions:
REMARK  status: ('A' for Active; 'I' for Inactive)
REMARK    1  A    between atoms: C_1  and  O_2
REMARK    2  A    between atoms: O_2  and  C_3
REMARK    3  A    between atoms: C_6  and  N_7
REMARK    4  A    between atoms: N_7  and  S_8
REMARK    5  A    between atoms: S_8  and  C_11
REMARK    6  A    between atoms: C_14  and  C_15
REMARK    7  A    between atoms: C_19  and  C_20
REMARK    8  A    between atoms: C_25  and  C_26
REMARK                            x       y       z     vdW  Elec       q    Type
REMARK                         _______ _______ _______ _____ _____    ______ ____
ROOT
ATOM      1  C   UNL     1       0.462  10.254  20.587  0.00  0.00    +0.000 A 
ATOM      2  C   UNL     1      -0.583  11.165  20.822  0.00  0.00    +0.000 A 
ATOM      3  C   UNL     1      -1.373  11.642  19.779  0.00  0.00    +0.000 A 
ATOM      4  C   UNL     1      -1.154  11.204  18.483  0.00  0.00    +0.000 A 
ATOM      5  C   UNL     1      -0.154  10.270  18.230  0.00  0.00    +0.000 A 
ATOM      6  C   UNL     1       0.670   9.783  19.273  0.00  0.00    +0.000 A 
ENDROOT
BRANCH   6   7
ATOM      7  C   UNL     1       1.728   8.803  18.851  0.00  0.00    +0.000 C 
ATOM      8  O   UNL     1       2.530   9.181  17.993  0.00  0.00    +0.000 OA
ATOM      9  N   UNL     1       1.775   7.580  19.477  0.00  0.00    +0.000 N 
ATOM     10  C   UNL     1       2.703   6.635  19.116  0.00  0.00    +0.000 A 
ATOM     11  N   UNL     1       3.474   6.605  18.059  0.00  0.00    +0.000 NA
ATOM     12  C   UNL     1       4.239   5.449  18.053  0.00  0.00    +0.000 A 
ATOM     13  C   UNL     1       4.077   4.658  19.176  0.00  0.00    +0.000 A 
ATOM     14  S   UNL     1       2.855   5.321  20.191  0.00  0.00    +0.000 S 
ATOM     15  H   UNL     1       1.160   7.377  20.251  0.00  0.00    +0.000 HD
BRANCH  12  16
ATOM     16  C   UNL     1       5.120   5.130  16.934  0.00  0.00    +0.000 A 
ATOM     17  C   UNL     1       6.442   5.603  16.926  0.00  0.00    +0.000 A 
ATOM     18  C   UNL     1       7.287   5.344  15.843  0.00  0.00    +0.000 A 
ATOM     19  C   UNL     1       6.819   4.617  14.749  0.00  0.00    +0.000 A 
ATOM     20  C   UNL     1       5.509   4.145  14.741  0.00  0.00    +0.000 A 
ATOM     21  C   UNL     1       4.665   4.399  15.827  0.00  0.00    +0.000 A 
ENDBRANCH  12  16
ENDBRANCH   6   7
BRANCH   1  23
ATOM     22  C   UNL     1       0.592   9.274  22.747  0.00  0.00    +0.000 C 
ATOM     23  O   UNL     1       1.271   9.802  21.602  0.00  0.00    +0.000 OA
ENDBRANCH   1  23
BRANCH   4  24
ATOM     24  N   UNL     1      -1.985  11.718  17.451  0.00  0.00    +0.000 N 
ATOM     25  H   UNL     1      -1.528  12.141  16.644  0.00  0.00    +0.000 HD
BRANCH  24  26
ATOM     26  S   UNL     1      -3.332  10.809  16.971  0.00  0.00    +0.000 S 
ATOM     27  O   UNL     1      -3.733  11.329  15.679  0.00  0.00    +0.000 OA
ATOM     28  O   UNL     1      -3.031   9.408  17.154  0.00  0.00    +0.000 OA
BRANCH  26  29
ATOM     29  C   UNL     1      -4.579  11.287  18.144  0.00  0.00    +0.000 A 
ATOM     30  C   UNL     1      -5.742  10.524  18.275  0.00  0.00    +0.000 A 
ATOM     31  C   UNL     1      -6.752  10.957  19.139  0.00  0.00    +0.000 A 
ATOM     32  C   UNL     1      -6.595  12.138  19.881  0.00  0.00    +0.000 A 
ATOM     33  C   UNL     1      -7.676  12.628  20.798  0.00  0.00    +0.000 C 
ATOM     34  C   UNL     1      -5.407  12.871  19.762  0.00  0.00    +0.000 A 
ATOM     35  C   UNL     1      -4.398  12.449  18.896  0.00  0.00    +0.000 A 
ENDBRANCH  26  29
ENDBRANCH  24  26
ENDBRANCH   4  24
TORSDOF 6
ENDMDL
MODEL 9
REMARK VINA RESULT:      -8.2      3.161      3.865
REMARK  Name = 
REMARK  8 active torsions:
REMARK  status: ('A' for Active; 'I' for Inactive)
REMARK    1  A    between atoms: C_1  and  O_2
REMARK    2  A    between atoms: O_2  and  C_3
REMARK    3  A    between atoms: C_6  and  N_7
REMARK    4  A    between atoms: N_7  and  S_8
REMARK    5  A    between atoms: S_8  and  C_11
REMARK    6  A    between atoms: C_14  and  C_15
REMARK    7  A    between atoms: C_19  and  C_20
REMARK    8  A    between atoms: C_25  and  C_26
REMARK                            x       y       z     vdW  Elec       q    Type
REMARK                         _______ _______ _______ _____ _____    ______ ____
ROOT
ATOM      1  C   UNL     1       1.871   6.690  20.376  0.00  0.00    +0.000 A 
ATOM      2  C   UNL     1       0.895   7.280  21.199  0.00  0.00    +0.000 A 
ATOM      3  C   UNL     1       0.384   8.545  20.918  0.00  0.00    +0.000 A 
ATOM      4  C   UNL     1       0.816   9.238  19.800  0.00  0.00    +0.000 A 
ATOM      5  C   UNL     1       1.749   8.658  18.946  0.00  0.00    +0.000 A 
ATOM      6  C   UNL     1       2.293   7.380  19.219  0.00  0.00    +0.000 A 
ENDROOT
BRANCH   6   7
ATOM      7  C   UNL     1       3.312   6.890  18.230  0.00  0.00    +0.000 C 
ATOM      8  O   UNL     1       3.190   7.277  17.064  0.00  0.00    +0.000 OA
ATOM      9  N   UNL     1       4.338   6.097  18.684  0.00  0.00    +0.000 N 
ATOM     10  C   UNL     1       5.283   5.598  17.822  0.00  0.00    +0.000 A 
ATOM     11  N   UNL     1       5.264   5.565  16.513  0.00  0.00    +0.000 NA
ATOM     12  C   UNL     1       6.400   4.937  16.031  0.00  0.00    +0.000 A 
ATOM     13  C   UNL     1       7.306   4.575  17.011  0.00  0.00    +0.000 A 
ATOM     14  S   UNL     1       6.659   4.923  18.568  0.00  0.00    +0.000 S 
ATOM     15  H   UNL     1       4.443   5.911  19.671  0.00  0.00    +0.000 HD
BRANCH  12  16
ATOM     16  C   UNL     1       6.581   4.691  14.603  0.00  0.00    +0.000 A 
ATOM     17  C   UNL     1       5.756   3.768  13.942  0.00  0.00    +0.000 A 
ATOM     18  C   UNL     1       5.942   3.488  12.585  0.00  0.00    +0.000 A 
ATOM     19  C   UNL     1       6.961   4.120  11.873  0.00  0.00    +0.000 A 
ATOM     20  C   UNL     1       7.791   5.035  12.517  0.00  0.00    +0.000 A 
ATOM     21  C   UNL     1       7.601   5.320  13.873  0.00  0.00    +0.000 A 
ENDBRANCH  12  16
ENDBRANCH   6   7
BRANCH   1  23
ATOM     22  C   UNL     1       1.472   4.378  20.753  0.00  0.00    +0.000 C 
ATOM     23  O   UNL     1       2.409   5.457  20.660  0.00  0.00    +0.000 OA
ENDBRANCH   1  23
BRANCH   4  24
ATOM     24  N   UNL     1       0.265  10.525  19.554  0.00  0.00    +0.000 N 
ATOM     25  H   UNL     1      -0.734  10.581  19.355  0.00  0.00    +0.000 HD
BRANCH  24  26
ATOM     26  S   UNL     1       0.754  11.814  20.538  0.00  0.00    +0.000 S 
ATOM     27  O   UNL     1       1.722  11.270  21.469  0.00  0.00    +0.000 OA
ATOM     28  O   UNL     1       1.078  12.941  19.694  0.00  0.00    +0.000 OA
BRANCH  26  29
ATOM     29  C   UNL     1      -0.716  12.193  21.463  0.00  0.00    +0.000 A 
ATOM     30  C   UNL     1      -1.038  11.445  22.599  0.00  0.00    +0.000 A 
ATOM     31  C   UNL     1      -2.238  11.697  23.267  0.00  0.00    +0.000 A 
ATOM     32  C   UNL     1      -3.107  12.702  22.815  0.00  0.00    +0.000 A 
ATOM     33  C   UNL     1      -4.410  12.973  23.508  0.00  0.00    +0.000 C 
ATOM     34  C   UNL     1      -2.751  13.464  21.695  0.00  0.00    +0.000 A 
ATOM     35  C   UNL     1      -1.557  13.214  21.018  0.00  0.00    +0.000 A 
ENDBRANCH  26  29
ENDBRANCH  24  26
ENDBRANCH   4  24
TORSDOF 6
ENDMDL
