MODEL 1
REMARK VINA RESULT:      -6.8      0.000      0.000
REMARK  Name = 
REMARK  21 active torsions:
REMARK  status: ('A' for Active; 'I' for Inactive)
REMARK    1  A    between atoms: C_1  and  C_2
REMARK    2  A    between atoms: C_2  and  C_3
REMARK    3  A    between atoms: C_3  and  C_4
REMARK    4  A    between atoms: C_4  and  C_5
REMARK    5  A    between atoms: C_5  and  C_6
REMARK    6  A    between atoms: C_6  and  C_7
REMARK    7  A    between atoms: C_7  and  C_8
REMARK    8  A    between atoms: C_8  and  C_9
REMARK    9  A    between atoms: C_9  and  C_10
REMARK   10  A    between atoms: C_10  and  C_11
REMARK   11  A    between atoms: C_11  and  C_12
REMARK   12  A    between atoms: C_12  and  C_13
REMARK   13  A    between atoms: C_13  and  C_14
REMARK   14  A    between atoms: C_14  and  C_15
REMARK   15  A    between atoms: C_15  and  C_16
REMARK   16  A    between atoms: C_16  and  O_18
REMARK   17  A    between atoms: O_18  and  C_19
REMARK   18  A    between atoms: C_24  and  C_25
REMARK   19  A    between atoms: C_25  and  O_26
REMARK   20  A    between atoms: O_26  and  C_27
REMARK   21  A    between atoms: C_27  and  C_28
REMARK                            x       y       z     vdW  Elec       q    Type
REMARK                         _______ _______ _______ _____ _____    ______ ____
ROOT
ATOM      1  C   UNL     1       4.588   3.500  19.016  0.00  0.00    +0.000 C 
ATOM      2  O   UNL     1       5.380   2.931  19.746  0.00  0.00    +0.000 OA
ENDROOT
BRANCH   1   3
ATOM      3  O   UNL     1       4.508   4.861  18.786  0.00  0.00    +0.000 OA
BRANCH   3   4
ATOM      4  C   UNL     1       5.525   5.394  17.957  0.00  0.00    +0.000 C 
ATOM      5  C   UNL     1       6.109   4.645  17.010  0.00  0.00    +0.000 C 
ATOM      6  C   UNL     1       7.055   5.253  16.060  0.00  0.00    +0.000 C 
ATOM      7  O   UNL     1       7.399   4.640  15.055  0.00  0.00    +0.000 OA
ATOM      8  O   UNL     1       7.501   6.511  16.321  0.00  0.00    +0.000 OA
ATOM      9  C   UNL     1       7.376   7.015  17.665  0.00  0.00    +0.000 C 
ATOM     10  C   UNL     1       5.961   6.807  18.197  0.00  0.00    +0.000 C 
BRANCH   9  11
ATOM     11  C   UNL     1       7.699   8.507  17.663  0.00  0.00    +0.000 C 
BRANCH  11  12
ATOM     12  O   UNL     1       8.786   8.735  18.542  0.00  0.00    +0.000 OA
BRANCH  12  13
ATOM     13  C   UNL     1       8.637   9.952  19.265  0.00  0.00    +0.000 C 
BRANCH  13  14
ATOM     14  C   UNL     1       9.845  10.854  19.101  0.00  0.00    +0.000 A 
ATOM     15  C   UNL     1      10.411  11.144  17.847  0.00  0.00    +0.000 A 
ATOM     16  C   UNL     1      11.602  11.870  17.749  0.00  0.00    +0.000 A 
ATOM     17  C   UNL     1      12.208  12.372  18.898  0.00  0.00    +0.000 A 
ATOM     18  C   UNL     1      11.630  12.141  20.146  0.00  0.00    +0.000 A 
ATOM     19  C   UNL     1      10.460  11.380  20.250  0.00  0.00    +0.000 A 
ENDBRANCH  13  14
ENDBRANCH  12  13
ENDBRANCH  11  12
ENDBRANCH   9  11
ENDBRANCH   3   4
ENDBRANCH   1   3
BRANCH   1  20
ATOM     20  C   UNL     1       3.468   2.770  18.316  0.00  0.00    +0.000 C 
BRANCH  20  21
ATOM     21  C   UNL     1       2.535   2.159  19.358  0.00  0.00    +0.000 C 
BRANCH  21  22
ATOM     22  C   UNL     1       2.147   3.174  20.435  0.00  0.00    +0.000 C 
BRANCH  22  23
ATOM     23  C   UNL     1       1.043   4.088  19.913  0.00  0.00    +0.000 C 
BRANCH  23  24
ATOM     24  C   UNL     1       1.119   5.447  20.589  0.00  0.00    +0.000 C 
BRANCH  24  25
ATOM     25  C   UNL     1       2.290   6.249  20.043  0.00  0.00    +0.000 C 
BRANCH  25  26
ATOM     26  C   UNL     1       1.917   7.719  19.955  0.00  0.00    +0.000 C 
BRANCH  26  27
ATOM     27  C   UNL     1       1.121   8.130  21.182  0.00  0.00    +0.000 C 
BRANCH  27  28
ATOM     28  C   UNL     1       0.218   9.304  20.847  0.00  0.00    +0.000 C 
BRANCH  28  29
ATOM     29  C   UNL     1       0.841  10.139  19.743  0.00  0.00    +0.000 C 
BRANCH  29  30
ATOM     30  C   UNL     1      -0.002  10.050  18.482  0.00  0.00    +0.000 C 
BRANCH  30  31
ATOM     31  C   UNL     1      -1.413  10.544  18.759  0.00  0.00    +0.000 C 
BRANCH  31  32
ATOM     32  C   UNL     1      -1.842  11.536  17.688  0.00  0.00    +0.000 C 
BRANCH  32  34
ATOM     33  C   UNL     1      -3.416   9.624  17.361  0.00  0.00    +0.000 C 
ATOM     34  C   UNL     1      -3.116  11.066  17.000  0.00  0.00    +0.000 C 
ENDBRANCH  32  34
ENDBRANCH  31  32
ENDBRANCH  30  31
ENDBRANCH  29  30
ENDBRANCH  28  29
ENDBRANCH  27  28
ENDBRANCH  26  27
ENDBRANCH  25  26
ENDBRANCH  24  25
ENDBRANCH  23  24
ENDBRANCH  22  23
ENDBRANCH  21  22
ENDBRANCH  20  21
ENDBRANCH   1  20
TORSDOF 20
ENDMDL
MODEL 2
REMARK VINA RESULT:      -6.8      3.795      7.771
REMARK  Name = 
REMARK  21 active torsions:
REMARK  status: ('A' for Active; 'I' for Inactive)
REMARK    1  A    between atoms: C_1  and  C_2
REMARK    2  A    between atoms: C_2  and  C_3
REMARK    3  A    between atoms: C_3  and  C_4
REMARK    4  A    between atoms: C_4  and  C_5
REMARK    5  A    between atoms: C_5  and  C_6
REMARK    6  A    between atoms: C_6  and  C_7
REMARK    7  A    between atoms: C_7  and  C_8
REMARK    8  A    between atoms: C_8  and  C_9
REMARK    9  A    between atoms: C_9  and  C_10
REMARK   10  A    between atoms: C_10  and  C_11
REMARK   11  A    between atoms: C_11  and  C_12
REMARK   12  A    between atoms: C_12  and  C_13
REMARK   13  A    between atoms: C_13  and  C_14
REMARK   14  A    between atoms: C_14  and  C_15
REMARK   15  A    between atoms: C_15  and  C_16
REMARK   16  A    between atoms: C_16  and  O_18
REMARK   17  A    between atoms: O_18  and  C_19
REMARK   18  A    between atoms: C_24  and  C_25
REMARK   19  A    between atoms: C_25  and  O_26
REMARK   20  A    between atoms: O_26  and  C_27
REMARK   21  A    between atoms: C_27  and  C_28
REMARK                            x       y       z     vdW  Elec       q    Type
REMARK                         _______ _______ _______ _____ _____    ______ ____
ROOT
ATOM      1  C   UNL     1       8.907  10.240  18.960  0.00  0.00    +0.000 C 
ATOM      2  O   UNL     1       9.198  10.625  20.078  0.00  0.00    +0.000 OA
ENDROOT
BRANCH   1   3
ATOM      3  O   UNL     1       8.573  11.031  17.876  0.00  0.00    +0.000 OA
BRANCH   3   4
ATOM      4  C   UNL     1       9.272  12.259  17.785  0.00  0.00    +0.000 C 
ATOM      5  C   UNL     1      10.566  12.293  17.431  0.00  0.00    +0.000 C 
ATOM      6  C   UNL     1      11.239  13.581  17.195  0.00  0.00    +0.000 C 
ATOM      7  O   UNL     1      12.332  13.613  16.642  0.00  0.00    +0.000 OA
ATOM      8  O   UNL     1      10.596  14.716  17.581  0.00  0.00    +0.000 OA
ATOM      9  C   UNL     1       9.529  14.603  18.544  0.00  0.00    +0.000 C 
ATOM     10  C   UNL     1       8.538  13.515  18.138  0.00  0.00    +0.000 C 
BRANCH   9  11
ATOM     11  C   UNL     1       8.801  15.942  18.631  0.00  0.00    +0.000 C 
BRANCH  11  12
ATOM     12  O   UNL     1       7.523  15.800  18.039  0.00  0.00    +0.000 OA
BRANCH  12  13
ATOM     13  C   UNL     1       6.565  16.673  18.629  0.00  0.00    +0.000 C 
BRANCH  13  14
ATOM     14  C   UNL     1       5.230  15.984  18.834  0.00  0.00    +0.000 A 
ATOM     15  C   UNL     1       4.122  16.212  18.000  0.00  0.00    +0.000 A 
ATOM     16  C   UNL     1       2.873  15.662  18.301  0.00  0.00    +0.000 A 
ATOM     17  C   UNL     1       2.728  14.822  19.403  0.00  0.00    +0.000 A 
ATOM     18  C   UNL     1       3.830  14.541  20.210  0.00  0.00    +0.000 A 
ATOM     19  C   UNL     1       5.072  15.123  19.934  0.00  0.00    +0.000 A 
ENDBRANCH  13  14
ENDBRANCH  12  13
ENDBRANCH  11  12
ENDBRANCH   9  11
ENDBRANCH   3   4
ENDBRANCH   1   3
BRANCH   1  20
ATOM     20  C   UNL     1       8.764   8.776  18.622  0.00  0.00    +0.000 C 
BRANCH  20  21
ATOM     21  C   UNL     1       7.551   8.584  17.715  0.00  0.00    +0.000 C 
BRANCH  21  22
ATOM     22  C   UNL     1       7.404   7.130  17.265  0.00  0.00    +0.000 C 
BRANCH  22  23
ATOM     23  C   UNL     1       7.314   6.216  18.483  0.00  0.00    +0.000 C 
BRANCH  23  24
ATOM     24  C   UNL     1       5.931   5.591  18.574  0.00  0.00    +0.000 C 
BRANCH  24  25
ATOM     25  C   UNL     1       5.027   6.138  17.480  0.00  0.00    +0.000 C 
BRANCH  25  26
ATOM     26  C   UNL     1       3.616   5.606  17.660  0.00  0.00    +0.000 C 
BRANCH  26  27
ATOM     27  C   UNL     1       2.708   6.704  18.190  0.00  0.00    +0.000 C 
BRANCH  27  28
ATOM     28  C   UNL     1       2.683   6.670  19.708  0.00  0.00    +0.000 C 
BRANCH  28  29
ATOM     29  C   UNL     1       1.639   5.677  20.188  0.00  0.00    +0.000 C 
BRANCH  29  30
ATOM     30  C   UNL     1       2.314   4.501  20.873  0.00  0.00    +0.000 C 
BRANCH  30  31
ATOM     31  C   UNL     1       1.335   3.345  21.014  0.00  0.00    +0.000 C 
BRANCH  31  32
ATOM     32  C   UNL     1       1.526   2.353  19.877  0.00  0.00    +0.000 C 
BRANCH  32  34
ATOM     33  C   UNL     1       3.131   2.098  17.979  0.00  0.00    +0.000 C 
ATOM     34  C   UNL     1       2.993   2.266  19.481  0.00  0.00    +0.000 C 
ENDBRANCH  32  34
ENDBRANCH  31  32
ENDBRANCH  30  31
ENDBRANCH  29  30
ENDBRANCH  28  29
ENDBRANCH  27  28
ENDBRANCH  26  27
ENDBRANCH  25  26
ENDBRANCH  24  25
ENDBRANCH  23  24
ENDBRANCH  22  23
ENDBRANCH  21  22
ENDBRANCH  20  21
ENDBRANCH   1  20
TORSDOF 20
ENDMDL
MODEL 3
REMARK VINA RESULT:      -6.7      4.079     10.794
REMARK  Name = 
REMARK  21 active torsions:
REMARK  status: ('A' for Active; 'I' for Inactive)
REMARK    1  A    between atoms: C_1  and  C_2
REMARK    2  A    between atoms: C_2  and  C_3
REMARK    3  A    between atoms: C_3  and  C_4
REMARK    4  A    between atoms: C_4  and  C_5
REMARK    5  A    between atoms: C_5  and  C_6
REMARK    6  A    between atoms: C_6  and  C_7
REMARK    7  A    between atoms: C_7  and  C_8
REMARK    8  A    between atoms: C_8  and  C_9
REMARK    9  A    between atoms: C_9  and  C_10
REMARK   10  A    between atoms: C_10  and  C_11
REMARK   11  A    between atoms: C_11  and  C_12
REMARK   12  A    between atoms: C_12  and  C_13
REMARK   13  A    between atoms: C_13  and  C_14
REMARK   14  A    between atoms: C_14  and  C_15
REMARK   15  A    between atoms: C_15  and  C_16
REMARK   16  A    between atoms: C_16  and  O_18
REMARK   17  A    between atoms: O_18  and  C_19
REMARK   18  A    between atoms: C_24  and  C_25
REMARK   19  A    between atoms: C_25  and  O_26
REMARK   20  A    between atoms: O_26  and  C_27
REMARK   21  A    between atoms: C_27  and  C_28
REMARK                            x       y       z     vdW  Elec       q    Type
REMARK                         _______ _______ _______ _____ _____    ______ ____
ROOT
ATOM      1  C   UNL     1       1.227   9.833  18.586  0.00  0.00    +0.000 C 
ATOM      2  O   UNL     1       1.802  10.907  18.577  0.00  0.00    +0.000 OA
ENDROOT
BRANCH   1   3
ATOM      3  O   UNL     1      -0.061   9.591  19.027  0.00  0.00    +0.000 OA
BRANCH   3   4
ATOM      4  C   UNL     1      -0.383  10.148  20.289  0.00  0.00    +0.000 C 
ATOM      5  C   UNL     1      -0.056   9.517  21.426  0.00  0.00    +0.000 C 
ATOM      6  C   UNL     1      -0.262  10.175  22.727  0.00  0.00    +0.000 C 
ATOM      7  O   UNL     1       0.252   9.713  23.740  0.00  0.00    +0.000 OA
ATOM      8  O   UNL     1      -1.007  11.313  22.755  0.00  0.00    +0.000 OA
ATOM      9  C   UNL     1      -1.880  11.585  21.641  0.00  0.00    +0.000 C 
ATOM     10  C   UNL     1      -1.137  11.441  20.316  0.00  0.00    +0.000 C 
BRANCH   9  11
ATOM     11  C   UNL     1      -2.410  13.011  21.770  0.00  0.00    +0.000 C 
BRANCH  11  12
ATOM     12  O   UNL     1      -2.852  13.445  20.497  0.00  0.00    +0.000 OA
BRANCH  12  13
ATOM     13  C   UNL     1      -4.216  13.855  20.520  0.00  0.00    +0.000 C 
BRANCH  13  14
ATOM     14  C   UNL     1      -5.144  12.739  20.080  0.00  0.00    +0.000 A 
ATOM     15  C   UNL     1      -6.231  12.305  20.859  0.00  0.00    +0.000 A 
ATOM     16  C   UNL     1      -6.981  11.187  20.481  0.00  0.00    +0.000 A 
ATOM     17  C   UNL     1      -6.697  10.528  19.287  0.00  0.00    +0.000 A 
ATOM     18  C   UNL     1      -5.658  10.979  18.475  0.00  0.00    +0.000 A 
ATOM     19  C   UNL     1      -4.880  12.073  18.870  0.00  0.00    +0.000 A 
ENDBRANCH  13  14
ENDBRANCH  12  13
ENDBRANCH  11  12
ENDBRANCH   9  11
ENDBRANCH   3   4
ENDBRANCH   1   3
BRANCH   1  20
ATOM     20  C   UNL     1       1.914   8.547  18.198  0.00  0.00    +0.000 C 
BRANCH  20  21
ATOM     21  C   UNL     1       2.299   7.780  19.460  0.00  0.00    +0.000 C 
BRANCH  21  22
ATOM     22  C   UNL     1       2.227   6.267  19.248  0.00  0.00    +0.000 C 
BRANCH  22  23
ATOM     23  C   UNL     1       1.796   5.581  20.541  0.00  0.00    +0.000 C 
BRANCH  23  24
ATOM     24  C   UNL     1       2.164   4.107  20.505  0.00  0.00    +0.000 C 
BRANCH  24  25
ATOM     25  C   UNL     1       2.384   3.647  19.072  0.00  0.00    +0.000 C 
BRANCH  25  26
ATOM     26  C   UNL     1       3.689   2.876  18.969  0.00  0.00    +0.000 C 
BRANCH  26  27
ATOM     27  C   UNL     1       4.860   3.840  18.893  0.00  0.00    +0.000 C 
BRANCH  27  28
ATOM     28  C   UNL     1       5.380   3.915  17.468  0.00  0.00    +0.000 C 
BRANCH  28  29
ATOM     29  C   UNL     1       4.408   4.695  16.601  0.00  0.00    +0.000 C 
BRANCH  29  30
ATOM     30  C   UNL     1       4.851   6.144  16.495  0.00  0.00    +0.000 C 
BRANCH  30  31
ATOM     31  C   UNL     1       6.366   6.237  16.586  0.00  0.00    +0.000 C 
BRANCH  31  32
ATOM     32  C   UNL     1       6.769   7.382  17.503  0.00  0.00    +0.000 C 
BRANCH  32  34
ATOM     33  C   UNL     1       7.791   5.866  19.207  0.00  0.00    +0.000 C 
ATOM     34  C   UNL     1       8.037   7.035  18.271  0.00  0.00    +0.000 C 
ENDBRANCH  32  34
ENDBRANCH  31  32
ENDBRANCH  30  31
ENDBRANCH  29  30
ENDBRANCH  28  29
ENDBRANCH  27  28
ENDBRANCH  26  27
ENDBRANCH  25  26
ENDBRANCH  24  25
ENDBRANCH  23  24
ENDBRANCH  22  23
ENDBRANCH  21  22
ENDBRANCH  20  21
ENDBRANCH   1  20
TORSDOF 20
ENDMDL
MODEL 4
REMARK VINA RESULT:      -6.7      3.922      8.534
REMARK  Name = 
REMARK  21 active torsions:
REMARK  status: ('A' for Active; 'I' for Inactive)
REMARK    1  A    between atoms: C_1  and  C_2
REMARK    2  A    between atoms: C_2  and  C_3
REMARK    3  A    between atoms: C_3  and  C_4
REMARK    4  A    between atoms: C_4  and  C_5
REMARK    5  A    between atoms: C_5  and  C_6
REMARK    6  A    between atoms: C_6  and  C_7
REMARK    7  A    between atoms: C_7  and  C_8
REMARK    8  A    between atoms: C_8  and  C_9
REMARK    9  A    between atoms: C_9  and  C_10
REMARK   10  A    between atoms: C_10  and  C_11
REMARK   11  A    between atoms: C_11  and  C_12
REMARK   12  A    between atoms: C_12  and  C_13
REMARK   13  A    between atoms: C_13  and  C_14
REMARK   14  A    between atoms: C_14  and  C_15
REMARK   15  A    between atoms: C_15  and  C_16
REMARK   16  A    between atoms: C_16  and  O_18
REMARK   17  A    between atoms: O_18  and  C_19
REMARK   18  A    between atoms: C_24  and  C_25
REMARK   19  A    between atoms: C_25  and  O_26
REMARK   20  A    between atoms: O_26  and  C_27
REMARK   21  A    between atoms: C_27  and  C_28
REMARK                            x       y       z     vdW  Elec       q    Type
REMARK                         _______ _______ _______ _____ _____    ______ ____
ROOT
ATOM      1  C   UNL     1       1.637   8.553  18.425  0.00  0.00    +0.000 C 
ATOM      2  O   UNL     1       1.170   9.174  17.486  0.00  0.00    +0.000 OA
ENDROOT
BRANCH   1   3
ATOM      3  O   UNL     1       1.963   9.060  19.670  0.00  0.00    +0.000 OA
BRANCH   3   4
ATOM      4  C   UNL     1       0.937   9.797  20.310  0.00  0.00    +0.000 C 
ATOM      5  C   UNL     1       0.484   9.442  21.521  0.00  0.00    +0.000 C 
ATOM      6  C   UNL     1      -0.474  10.300  22.238  0.00  0.00    +0.000 C 
ATOM      7  O   UNL     1      -0.701  10.111  23.428  0.00  0.00    +0.000 OA
ATOM      8  O   UNL     1      -1.064  11.312  21.546  0.00  0.00    +0.000 OA
ATOM      9  C   UNL     1      -1.059  11.250  20.106  0.00  0.00    +0.000 C 
ATOM     10  C   UNL     1       0.342  10.959  19.576  0.00  0.00    +0.000 C 
BRANCH   9  11
ATOM     11  C   UNL     1      -1.540  12.589  19.554  0.00  0.00    +0.000 C 
BRANCH  11  12
ATOM     12  O   UNL     1      -1.514  13.544  20.600  0.00  0.00    +0.000 OA
BRANCH  12  13
ATOM     13  C   UNL     1      -0.938  14.776  20.179  0.00  0.00    +0.000 C 
BRANCH  13  14
ATOM     14  C   UNL     1       0.561  14.657  19.984  0.00  0.00    +0.000 A 
ATOM     15  C   UNL     1       1.197  14.982  18.773  0.00  0.00    +0.000 A 
ATOM     16  C   UNL     1       2.561  14.732  18.591  0.00  0.00    +0.000 A 
ATOM     17  C   UNL     1       3.321  14.215  19.637  0.00  0.00    +0.000 A 
ATOM     18  C   UNL     1       2.717  13.938  20.863  0.00  0.00    +0.000 A 
ATOM     19  C   UNL     1       1.345  14.149  21.035  0.00  0.00    +0.000 A 
ENDBRANCH  13  14
ENDBRANCH  12  13
ENDBRANCH  11  12
ENDBRANCH   9  11
ENDBRANCH   3   4
ENDBRANCH   1   3
BRANCH   1  20
ATOM     20  C   UNL     1       2.038   7.102  18.313  0.00  0.00    +0.000 C 
BRANCH  20  21
ATOM     21  C   UNL     1       2.728   6.670  19.604  0.00  0.00    +0.000 C 
BRANCH  21  22
ATOM     22  C   UNL     1       1.753   5.990  20.567  0.00  0.00    +0.000 C 
BRANCH  22  23
ATOM     23  C   UNL     1       2.152   4.531  20.765  0.00  0.00    +0.000 C 
BRANCH  23  24
ATOM     24  C   UNL     1       0.973   3.616  20.475  0.00  0.00    +0.000 C 
BRANCH  24  25
ATOM     25  C   UNL     1       1.359   2.559  19.452  0.00  0.00    +0.000 C 
BRANCH  25  26
ATOM     26  C   UNL     1       1.711   3.220  18.130  0.00  0.00    +0.000 C 
BRANCH  26  27
ATOM     27  C   UNL     1       3.121   2.839  17.714  0.00  0.00    +0.000 C 
BRANCH  27  28
ATOM     28  C   UNL     1       3.729   3.943  16.866  0.00  0.00    +0.000 C 
BRANCH  28  29
ATOM     29  C   UNL     1       5.188   4.139  17.237  0.00  0.00    +0.000 C 
BRANCH  29  30
ATOM     30  C   UNL     1       5.347   4.133  18.748  0.00  0.00    +0.000 C 
BRANCH  30  31
ATOM     31  C   UNL     1       6.007   5.423  19.210  0.00  0.00    +0.000 C 
BRANCH  31  32
ATOM     32  C   UNL     1       7.468   5.447  18.788  0.00  0.00    +0.000 C 
BRANCH  32  34
ATOM     33  C   UNL     1       6.746   7.371  17.367  0.00  0.00    +0.000 C 
ATOM     34  C   UNL     1       7.849   6.819  18.250  0.00  0.00    +0.000 C 
ENDBRANCH  32  34
ENDBRANCH  31  32
ENDBRANCH  30  31
ENDBRANCH  29  30
ENDBRANCH  28  29
ENDBRANCH  27  28
ENDBRANCH  26  27
ENDBRANCH  25  26
ENDBRANCH  24  25
ENDBRANCH  23  24
ENDBRANCH  22  23
ENDBRANCH  21  22
ENDBRANCH  20  21
ENDBRANCH   1  20
TORSDOF 20
ENDMDL
MODEL 5
REMARK VINA RESULT:      -6.6      4.868      8.290
REMARK  Name = 
REMARK  21 active torsions:
REMARK  status: ('A' for Active; 'I' for Inactive)
REMARK    1  A    between atoms: C_1  and  C_2
REMARK    2  A    between atoms: C_2  and  C_3
REMARK    3  A    between atoms: C_3  and  C_4
REMARK    4  A    between atoms: C_4  and  C_5
REMARK    5  A    between atoms: C_5  and  C_6
REMARK    6  A    between atoms: C_6  and  C_7
REMARK    7  A    between atoms: C_7  and  C_8
REMARK    8  A    between atoms: C_8  and  C_9
REMARK    9  A    between atoms: C_9  and  C_10
REMARK   10  A    between atoms: C_10  and  C_11
REMARK   11  A    between atoms: C_11  and  C_12
REMARK   12  A    between atoms: C_12  and  C_13
REMARK   13  A    between atoms: C_13  and  C_14
REMARK   14  A    between atoms: C_14  and  C_15
REMARK   15  A    between atoms: C_15  and  C_16
REMARK   16  A    between atoms: C_16  and  O_18
REMARK   17  A    between atoms: O_18  and  C_19
REMARK   18  A    between atoms: C_24  and  C_25
REMARK   19  A    between atoms: C_25  and  O_26
REMARK   20  A    between atoms: O_26  and  C_27
REMARK   21  A    between atoms: C_27  and  C_28
REMARK                            x       y       z     vdW  Elec       q    Type
REMARK                         _______ _______ _______ _____ _____    ______ ____
ROOT
ATOM      1  C   UNL     1       2.191   8.447  18.113  0.00  0.00    +0.000 C 
ATOM      2  O   UNL     1       2.648   9.355  17.443  0.00  0.00    +0.000 OA
ENDROOT
BRANCH   1   3
ATOM      3  O   UNL     1       0.986   8.448  18.792  0.00  0.00    +0.000 OA
BRANCH   3   4
ATOM      4  C   UNL     1       0.886   9.388  19.845  0.00  0.00    +0.000 C 
ATOM      5  C   UNL     1       0.633   8.995  21.102  0.00  0.00    +0.000 C 
ATOM      6  C   UNL     1       0.681   9.964  22.209  0.00  0.00    +0.000 C 
ATOM      7  O   UNL     1       0.693   9.574  23.371  0.00  0.00    +0.000 OA
ATOM      8  O   UNL     1       0.740  11.287  21.896  0.00  0.00    +0.000 OA
ATOM      9  C   UNL     1       0.342  11.694  20.571  0.00  0.00    +0.000 C 
ATOM     10  C   UNL     1       1.028  10.840  19.508  0.00  0.00    +0.000 C 
BRANCH   9  11
ATOM     11  C   UNL     1       0.727  13.157  20.370  0.00  0.00    +0.000 C 
BRANCH  11  12
ATOM     12  O   UNL     1       2.055  13.212  19.882  0.00  0.00    +0.000 OA
BRANCH  12  13
ATOM     13  C   UNL     1       2.723  14.401  20.292  0.00  0.00    +0.000 C 
BRANCH  13  14
ATOM     14  C   UNL     1       2.410  15.565  19.373  0.00  0.00    +0.000 A 
ATOM     15  C   UNL     1       1.339  16.447  19.603  0.00  0.00    +0.000 A 
ATOM     16  C   UNL     1       1.003  17.426  18.663  0.00  0.00    +0.000 A 
ATOM     17  C   UNL     1       1.771  17.580  17.512  0.00  0.00    +0.000 A 
ATOM     18  C   UNL     1       2.871  16.750  17.295  0.00  0.00    +0.000 A 
ATOM     19  C   UNL     1       3.185  15.744  18.214  0.00  0.00    +0.000 A 
ENDBRANCH  13  14
ENDBRANCH  12  13
ENDBRANCH  11  12
ENDBRANCH   9  11
ENDBRANCH   3   4
ENDBRANCH   1   3
BRANCH   1  20
ATOM     20  C   UNL     1       2.964   7.181  18.392  0.00  0.00    +0.000 C 
BRANCH  20  21
ATOM     21  C   UNL     1       1.985   6.041  18.661  0.00  0.00    +0.000 C 
BRANCH  21  22
ATOM     22  C   UNL     1       2.187   5.438  20.053  0.00  0.00    +0.000 C 
BRANCH  22  23
ATOM     23  C   UNL     1       0.950   4.644  20.459  0.00  0.00    +0.000 C 
BRANCH  23  24
ATOM     24  C   UNL     1       1.285   3.165  20.574  0.00  0.00    +0.000 C 
BRANCH  24  25
ATOM     25  C   UNL     1       2.688   2.979  21.130  0.00  0.00    +0.000 C 
BRANCH  25  26
ATOM     26  C   UNL     1       3.607   2.437  20.048  0.00  0.00    +0.000 C 
BRANCH  26  27
ATOM     27  C   UNL     1       2.790   1.768  18.956  0.00  0.00    +0.000 C 
BRANCH  27  28
ATOM     28  C   UNL     1       3.065   2.435  17.619  0.00  0.00    +0.000 C 
BRANCH  28  29
ATOM     29  C   UNL     1       4.205   3.427  17.759  0.00  0.00    +0.000 C 
BRANCH  29  30
ATOM     30  C   UNL     1       4.349   4.239  16.483  0.00  0.00    +0.000 C 
BRANCH  30  31
ATOM     31  C   UNL     1       5.671   4.992  16.488  0.00  0.00    +0.000 C 
BRANCH  31  32
ATOM     32  C   UNL     1       6.193   5.146  15.068  0.00  0.00    +0.000 C 
BRANCH  32  34
ATOM     33  C   UNL     1       5.676   3.808  13.022  0.00  0.00    +0.000 C 
ATOM     34  C   UNL     1       6.323   3.787  14.394  0.00  0.00    +0.000 C 
ENDBRANCH  32  34
ENDBRANCH  31  32
ENDBRANCH  30  31
ENDBRANCH  29  30
ENDBRANCH  28  29
ENDBRANCH  27  28
ENDBRANCH  26  27
ENDBRANCH  25  26
ENDBRANCH  24  25
ENDBRANCH  23  24
ENDBRANCH  22  23
ENDBRANCH  21  22
ENDBRANCH  20  21
ENDBRANCH   1  20
TORSDOF 20
ENDMDL
MODEL 6
REMARK VINA RESULT:      -6.5      1.553      2.059
REMARK  Name = 
REMARK  21 active torsions:
REMARK  status: ('A' for Active; 'I' for Inactive)
REMARK    1  A    between atoms: C_1  and  C_2
REMARK    2  A    between atoms: C_2  and  C_3
REMARK    3  A    between atoms: C_3  and  C_4
REMARK    4  A    between atoms: C_4  and  C_5
REMARK    5  A    between atoms: C_5  and  C_6
REMARK    6  A    between atoms: C_6  and  C_7
REMARK    7  A    between atoms: C_7  and  C_8
REMARK    8  A    between atoms: C_8  and  C_9
REMARK    9  A    between atoms: C_9  and  C_10
REMARK   10  A    between atoms: C_10  and  C_11
REMARK   11  A    between atoms: C_11  and  C_12
REMARK   12  A    between atoms: C_12  and  C_13
REMARK   13  A    between atoms: C_13  and  C_14
REMARK   14  A    between atoms: C_14  and  C_15
REMARK   15  A    between atoms: C_15  and  C_16
REMARK   16  A    between atoms: C_16  and  O_18
REMARK   17  A    between atoms: O_18  and  C_19
REMARK   18  A    between atoms: C_24  and  C_25
REMARK   19  A    between atoms: C_25  and  O_26
REMARK   20  A    between atoms: O_26  and  C_27
REMARK   21  A    between atoms: C_27  and  C_28
REMARK                            x       y       z     vdW  Elec       q    Type
REMARK                         _______ _______ _______ _____ _____    ______ ____
ROOT
ATOM      1  C   UNL     1       4.588   3.351  18.379  0.00  0.00    +0.000 C 
ATOM      2  O   UNL     1       4.229   3.172  17.229  0.00  0.00    +0.000 OA
ENDROOT
BRANCH   1   3
ATOM      3  O   UNL     1       5.793   3.890  18.793  0.00  0.00    +0.000 OA
BRANCH   3   4
ATOM      4  C   UNL     1       6.381   4.814  17.895  0.00  0.00    +0.000 C 
ATOM      5  C   UNL     1       6.937   4.403  16.746  0.00  0.00    +0.000 C 
ATOM      6  C   UNL     1       7.410   5.385  15.756  0.00  0.00    +0.000 C 
ATOM      7  O   UNL     1       7.689   5.027  14.617  0.00  0.00    +0.000 OA
ATOM      8  O   UNL     1       7.494   6.688  16.140  0.00  0.00    +0.000 OA
ATOM      9  C   UNL     1       7.527   6.984  17.550  0.00  0.00    +0.000 C 
ATOM     10  C   UNL     1       6.404   6.259  18.287  0.00  0.00    +0.000 C 
BRANCH   9  11
ATOM     11  C   UNL     1       7.366   8.490  17.741  0.00  0.00    +0.000 C 
BRANCH  11  12
ATOM     12  O   UNL     1       8.653   9.069  17.863  0.00  0.00    +0.000 OA
BRANCH  12  13
ATOM     13  C   UNL     1       8.772   9.848  19.049  0.00  0.00    +0.000 C 
BRANCH  13  14
ATOM     14  C   UNL     1       9.889  10.868  18.939  0.00  0.00    +0.000 A 
ATOM     15  C   UNL     1      10.399  11.305  17.705  0.00  0.00    +0.000 A 
ATOM     16  C   UNL     1      11.517  12.144  17.648  0.00  0.00    +0.000 A 
ATOM     17  C   UNL     1      12.099  12.610  18.825  0.00  0.00    +0.000 A 
ATOM     18  C   UNL     1      11.572  12.230  20.058  0.00  0.00    +0.000 A 
ATOM     19  C   UNL     1      10.479  11.358  20.118  0.00  0.00    +0.000 A 
ENDBRANCH  13  14
ENDBRANCH  12  13
ENDBRANCH  11  12
ENDBRANCH   9  11
ENDBRANCH   3   4
ENDBRANCH   1   3
BRANCH   1  20
ATOM     20  C   UNL     1       3.772   2.889  19.561  0.00  0.00    +0.000 C 
BRANCH  20  21
ATOM     21  C   UNL     1       2.589   3.834  19.758  0.00  0.00    +0.000 C 
BRANCH  21  22
ATOM     22  C   UNL     1       2.976   5.060  20.587  0.00  0.00    +0.000 C 
BRANCH  22  23
ATOM     23  C   UNL     1       2.163   6.269  20.137  0.00  0.00    +0.000 C 
BRANCH  23  24
ATOM     24  C   UNL     1       1.124   6.628  21.187  0.00  0.00    +0.000 C 
BRANCH  24  25
ATOM     25  C   UNL     1       0.629   8.052  20.981  0.00  0.00    +0.000 C 
BRANCH  25  26
ATOM     26  C   UNL     1       1.259   8.975  22.009  0.00  0.00    +0.000 C 
BRANCH  26  27
ATOM     27  C   UNL     1       0.186   9.570  22.904  0.00  0.00    +0.000 C 
BRANCH  27  28
ATOM     28  C   UNL     1      -0.688  10.522  22.105  0.00  0.00    +0.000 C 
BRANCH  28  29
ATOM     29  C   UNL     1       0.167  11.610  21.479  0.00  0.00    +0.000 C 
BRANCH  29  30
ATOM     30  C   UNL     1       0.056  11.555  19.965  0.00  0.00    +0.000 C 
BRANCH  30  31
ATOM     31  C   UNL     1       1.179  12.359  19.328  0.00  0.00    +0.000 C 
BRANCH  31  32
ATOM     32  C   UNL     1       1.979  11.481  18.378  0.00  0.00    +0.000 C 
BRANCH  32  34
ATOM     33  C   UNL     1       2.264   9.066  17.801  0.00  0.00    +0.000 C 
ATOM     34  C   UNL     1       1.266  10.157  18.139  0.00  0.00    +0.000 C 
ENDBRANCH  32  34
ENDBRANCH  31  32
ENDBRANCH  30  31
ENDBRANCH  29  30
ENDBRANCH  28  29
ENDBRANCH  27  28
ENDBRANCH  26  27
ENDBRANCH  25  26
ENDBRANCH  24  25
ENDBRANCH  23  24
ENDBRANCH  22  23
ENDBRANCH  21  22
ENDBRANCH  20  21
ENDBRANCH   1  20
TORSDOF 20
ENDMDL
MODEL 7
REMARK VINA RESULT:      -6.5      3.797      9.267
REMARK  Name = 
REMARK  21 active torsions:
REMARK  status: ('A' for Active; 'I' for Inactive)
REMARK    1  A    between atoms: C_1  and  C_2
REMARK    2  A    between atoms: C_2  and  C_3
REMARK    3  A    between atoms: C_3  and  C_4
REMARK    4  A    between atoms: C_4  and  C_5
REMARK    5  A    between atoms: C_5  and  C_6
REMARK    6  A    between atoms: C_6  and  C_7
REMARK    7  A    between atoms: C_7  and  C_8
REMARK    8  A    between atoms: C_8  and  C_9
REMARK    9  A    between atoms: C_9  and  C_10
REMARK   10  A    between atoms: C_10  and  C_11
REMARK   11  A    between atoms: C_11  and  C_12
REMARK   12  A    between atoms: C_12  and  C_13
REMARK   13  A    between atoms: C_13  and  C_14
REMARK   14  A    between atoms: C_14  and  C_15
REMARK   15  A    between atoms: C_15  and  C_16
REMARK   16  A    between atoms: C_16  and  O_18
REMARK   17  A    between atoms: O_18  and  C_19
REMARK   18  A    between atoms: C_24  and  C_25
REMARK   19  A    between atoms: C_25  and  O_26
REMARK   20  A    between atoms: O_26  and  C_27
REMARK   21  A    between atoms: C_27  and  C_28
REMARK                            x       y       z     vdW  Elec       q    Type
REMARK                         _______ _______ _______ _____ _____    ______ ____
ROOT
ATOM      1  C   UNL     1       2.431   7.716  17.848  0.00  0.00    +0.000 C 
ATOM      2  O   UNL     1       3.588   8.025  17.620  0.00  0.00    +0.000 OA
ENDROOT
BRANCH   1   3
ATOM      3  O   UNL     1       1.307   8.475  17.578  0.00  0.00    +0.000 OA
BRANCH   3   4
ATOM      4  C   UNL     1       1.288   9.761  18.171  0.00  0.00    +0.000 C 
ATOM      5  C   UNL     1       2.254  10.655  17.913  0.00  0.00    +0.000 C 
ATOM      6  C   UNL     1       2.144  12.034  18.416  0.00  0.00    +0.000 C 
ATOM      7  O   UNL     1       2.888  12.908  17.985  0.00  0.00    +0.000 OA
ATOM      8  O   UNL     1       1.181  12.302  19.339  0.00  0.00    +0.000 OA
ATOM      9  C   UNL     1       0.613  11.198  20.072  0.00  0.00    +0.000 C 
ATOM     10  C   UNL     1       0.182  10.078  19.129  0.00  0.00    +0.000 C 
BRANCH   9  11
ATOM     11  C   UNL     1      -0.601  11.699  20.850  0.00  0.00    +0.000 C 
BRANCH  11  12
ATOM     12  O   UNL     1      -1.022  10.678  21.736  0.00  0.00    +0.000 OA
BRANCH  12  13
ATOM     13  C   UNL     1      -0.998  11.110  23.093  0.00  0.00    +0.000 C 
BRANCH  13  14
ATOM     14  C   UNL     1      -1.856  12.341  23.305  0.00  0.00    +0.000 A 
ATOM     15  C   UNL     1      -1.313  13.629  23.453  0.00  0.00    +0.000 A 
ATOM     16  C   UNL     1      -2.128  14.717  23.780  0.00  0.00    +0.000 A 
ATOM     17  C   UNL     1      -3.505  14.545  23.899  0.00  0.00    +0.000 A 
ATOM     18  C   UNL     1      -4.067  13.285  23.701  0.00  0.00    +0.000 A 
ATOM     19  C   UNL     1      -3.250  12.187  23.414  0.00  0.00    +0.000 A 
ENDBRANCH  13  14
ENDBRANCH  12  13
ENDBRANCH  11  12
ENDBRANCH   9  11
ENDBRANCH   3   4
ENDBRANCH   1   3
BRANCH   1  20
ATOM     20  C   UNL     1       2.064   6.453  18.586  0.00  0.00    +0.000 C 
BRANCH  20  21
ATOM     21  C   UNL     1       3.047   6.234  19.732  0.00  0.00    +0.000 C 
BRANCH  21  22
ATOM     22  C   UNL     1       2.497   5.255  20.771  0.00  0.00    +0.000 C 
BRANCH  22  23
ATOM     23  C   UNL     1       1.214   4.614  20.253  0.00  0.00    +0.000 C 
BRANCH  23  24
ATOM     24  C   UNL     1       1.072   3.201  20.796  0.00  0.00    +0.000 C 
BRANCH  24  25
ATOM     25  C   UNL     1       1.174   2.185  19.669  0.00  0.00    +0.000 C 
BRANCH  25  26
ATOM     26  C   UNL     1       1.505   2.889  18.364  0.00  0.00    +0.000 C 
BRANCH  26  27
ATOM     27  C   UNL     1       2.730   2.257  17.725  0.00  0.00    +0.000 C 
BRANCH  27  28
ATOM     28  C   UNL     1       3.932   3.170  17.889  0.00  0.00    +0.000 C 
BRANCH  28  29
ATOM     29  C   UNL     1       4.316   3.768  16.548  0.00  0.00    +0.000 C 
BRANCH  29  30
ATOM     30  C   UNL     1       4.959   5.130  16.749  0.00  0.00    +0.000 C 
BRANCH  30  31
ATOM     31  C   UNL     1       6.263   4.986  17.518  0.00  0.00    +0.000 C 
BRANCH  31  32
ATOM     32  C   UNL     1       7.309   5.940  16.962  0.00  0.00    +0.000 C 
BRANCH  32  34
ATOM     33  C   UNL     1       8.153   7.967  18.156  0.00  0.00    +0.000 C 
ATOM     34  C   UNL     1       6.998   7.374  17.370  0.00  0.00    +0.000 C 
ENDBRANCH  32  34
ENDBRANCH  31  32
ENDBRANCH  30  31
ENDBRANCH  29  30
ENDBRANCH  28  29
ENDBRANCH  27  28
ENDBRANCH  26  27
ENDBRANCH  25  26
ENDBRANCH  24  25
ENDBRANCH  23  24
ENDBRANCH  22  23
ENDBRANCH  21  22
ENDBRANCH  20  21
ENDBRANCH   1  20
TORSDOF 20
ENDMDL
MODEL 8
REMARK VINA RESULT:      -6.5      6.263     11.377
REMARK  Name = 
REMARK  21 active torsions:
REMARK  status: ('A' for Active; 'I' for Inactive)
REMARK    1  A    between atoms: C_1  and  C_2
REMARK    2  A    between atoms: C_2  and  C_3
REMARK    3  A    between atoms: C_3  and  C_4
REMARK    4  A    between atoms: C_4  and  C_5
REMARK    5  A    between atoms: C_5  and  C_6
REMARK    6  A    between atoms: C_6  and  C_7
REMARK    7  A    between atoms: C_7  and  C_8
REMARK    8  A    between atoms: C_8  and  C_9
REMARK    9  A    between atoms: C_9  and  C_10
REMARK   10  A    between atoms: C_10  and  C_11
REMARK   11  A    between atoms: C_11  and  C_12
REMARK   12  A    between atoms: C_12  and  C_13
REMARK   13  A    between atoms: C_13  and  C_14
REMARK   14  A    between atoms: C_14  and  C_15
REMARK   15  A    between atoms: C_15  and  C_16
REMARK   16  A    between atoms: C_16  and  O_18
REMARK   17  A    between atoms: O_18  and  C_19
REMARK   18  A    between atoms: C_24  and  C_25
REMARK   19  A    between atoms: C_25  and  O_26
REMARK   20  A    between atoms: O_26  and  C_27
REMARK   21  A    between atoms: C_27  and  C_28
REMARK                            x       y       z     vdW  Elec       q    Type
REMARK                         _______ _______ _______ _____ _____    ______ ____
ROOT
ATOM      1  C   UNL     1      -2.367  11.187  18.309  0.00  0.00    +0.000 C 
ATOM      2  O   UNL     1      -2.307   9.970  18.338  0.00  0.00    +0.000 OA
ENDROOT
BRANCH   1   3
ATOM      3  O   UNL     1      -3.494  11.952  18.066  0.00  0.00    +0.000 OA
BRANCH   3   4
ATOM      4  C   UNL     1      -4.520  11.841  19.035  0.00  0.00    +0.000 C 
ATOM      5  C   UNL     1      -5.587  11.055  18.826  0.00  0.00    +0.000 C 
ATOM      6  C   UNL     1      -6.569  10.833  19.900  0.00  0.00    +0.000 C 
ATOM      7  O   UNL     1      -7.401   9.938  19.799  0.00  0.00    +0.000 OA
ATOM      8  O   UNL     1      -6.499  11.627  21.002  0.00  0.00    +0.000 OA
ATOM      9  C   UNL     1      -5.780  12.872  20.903  0.00  0.00    +0.000 C 
ATOM     10  C   UNL     1      -4.401  12.659  20.284  0.00  0.00    +0.000 C 
BRANCH   9  11
ATOM     11  C   UNL     1      -5.619  13.460  22.302  0.00  0.00    +0.000 C 
BRANCH  11  12
ATOM     12  O   UNL     1      -5.591  12.398  23.238  0.00  0.00    +0.000 OA
BRANCH  12  13
ATOM     13  C   UNL     1      -4.631  12.621  24.265  0.00  0.00    +0.000 C 
BRANCH  13  14
ATOM     14  C   UNL     1      -3.244  12.849  23.697  0.00  0.00    +0.000 A 
ATOM     15  C   UNL     1      -2.472  11.814  23.141  0.00  0.00    +0.000 A 
ATOM     16  C   UNL     1      -1.148  12.038  22.750  0.00  0.00    +0.000 A 
ATOM     17  C   UNL     1      -0.599  13.314  22.848  0.00  0.00    +0.000 A 
ATOM     18  C   UNL     1      -1.369  14.365  23.345  0.00  0.00    +0.000 A 
ATOM     19  C   UNL     1      -2.681  14.135  23.775  0.00  0.00    +0.000 A 
ENDBRANCH  13  14
ENDBRANCH  12  13
ENDBRANCH  11  12
ENDBRANCH   9  11
ENDBRANCH   3   4
ENDBRANCH   1   3
BRANCH   1  20
ATOM     20  C   UNL     1      -1.142  12.058  18.435  0.00  0.00    +0.000 C 
BRANCH  20  21
ATOM     21  C   UNL     1      -0.122  11.367  19.335  0.00  0.00    +0.000 C 
BRANCH  21  22
ATOM     22  C   UNL     1       0.975  10.677  18.522  0.00  0.00    +0.000 C 
BRANCH  22  23
ATOM     23  C   UNL     1       1.296   9.316  19.132  0.00  0.00    +0.000 C 
BRANCH  23  24
ATOM     24  C   UNL     1       0.671   9.196  20.513  0.00  0.00    +0.000 C 
BRANCH  24  25
ATOM     25  C   UNL     1       1.152   7.930  21.206  0.00  0.00    +0.000 C 
BRANCH  25  26
ATOM     26  C   UNL     1       1.718   6.961  20.182  0.00  0.00    +0.000 C 
BRANCH  26  27
ATOM     27  C   UNL     1       1.965   5.607  20.825  0.00  0.00    +0.000 C 
BRANCH  27  28
ATOM     28  C   UNL     1       0.895   4.622  20.389  0.00  0.00    +0.000 C 
BRANCH  28  29
ATOM     29  C   UNL     1       1.414   3.201  20.517  0.00  0.00    +0.000 C 
BRANCH  29  30
ATOM     30  C   UNL     1       2.924   3.180  20.350  0.00  0.00    +0.000 C 
BRANCH  30  31
ATOM     31  C   UNL     1       3.314   2.220  19.236  0.00  0.00    +0.000 C 
BRANCH  31  32
ATOM     32  C   UNL     1       2.301   2.291  18.104  0.00  0.00    +0.000 C 
BRANCH  32  34
ATOM     33  C   UNL     1       4.113   3.757  17.204  0.00  0.00    +0.000 C 
ATOM     34  C   UNL     1       2.630   3.438  17.158  0.00  0.00    +0.000 C 
ENDBRANCH  32  34
ENDBRANCH  31  32
ENDBRANCH  30  31
ENDBRANCH  29  30
ENDBRANCH  28  29
ENDBRANCH  27  28
ENDBRANCH  26  27
ENDBRANCH  25  26
ENDBRANCH  24  25
ENDBRANCH  23  24
ENDBRANCH  22  23
ENDBRANCH  21  22
ENDBRANCH  20  21
ENDBRANCH   1  20
TORSDOF 20
ENDMDL
MODEL 9
REMARK VINA RESULT:      -6.4      3.716      9.666
REMARK  Name = 
REMARK  21 active torsions:
REMARK  status: ('A' for Active; 'I' for Inactive)
REMARK    1  A    between atoms: C_1  and  C_2
REMARK    2  A    between atoms: C_2  and  C_3
REMARK    3  A    between atoms: C_3  and  C_4
REMARK    4  A    between atoms: C_4  and  C_5
REMARK    5  A    between atoms: C_5  and  C_6
REMARK    6  A    between atoms: C_6  and  C_7
REMARK    7  A    between atoms: C_7  and  C_8
REMARK    8  A    between atoms: C_8  and  C_9
REMARK    9  A    between atoms: C_9  and  C_10
REMARK   10  A    between atoms: C_10  and  C_11
REMARK   11  A    between atoms: C_11  and  C_12
REMARK   12  A    between atoms: C_12  and  C_13
REMARK   13  A    between atoms: C_13  and  C_14
REMARK   14  A    between atoms: C_14  and  C_15
REMARK   15  A    between atoms: C_15  and  C_16
REMARK   16  A    between atoms: C_16  and  O_18
REMARK   17  A    between atoms: O_18  and  C_19
REMARK   18  A    between atoms: C_24  and  C_25
REMARK   19  A    between atoms: C_25  and  O_26
REMARK   20  A    between atoms: O_26  and  C_27
REMARK   21  A    between atoms: C_27  and  C_28
REMARK                            x       y       z     vdW  Elec       q    Type
REMARK                         _______ _______ _______ _____ _____    ______ ____
ROOT
ATOM      1  C   UNL     1       8.497   9.597  18.250  0.00  0.00    +0.000 C 
ATOM      2  O   UNL     1       9.347   9.452  19.111  0.00  0.00    +0.000 OA
ENDROOT
BRANCH   1   3
ATOM      3  O   UNL     1       8.179   8.701  17.245  0.00  0.00    +0.000 OA
BRANCH   3   4
ATOM      4  C   UNL     1       7.628   7.473  17.683  0.00  0.00    +0.000 C 
ATOM      5  C   UNL     1       8.129   6.831  18.749  0.00  0.00    +0.000 C 
ATOM      6  C   UNL     1       7.454   5.636  19.282  0.00  0.00    +0.000 C 
ATOM      7  O   UNL     1       7.761   5.195  20.384  0.00  0.00    +0.000 OA
ATOM      8  O   UNL     1       6.473   5.068  18.530  0.00  0.00    +0.000 OA
ATOM      9  C   UNL     1       6.423   5.382  17.124  0.00  0.00    +0.000 C 
ATOM     10  C   UNL     1       6.496   6.889  16.896  0.00  0.00    +0.000 C 
BRANCH   9  11
ATOM     11  C   UNL     1       5.115   4.846  16.547  0.00  0.00    +0.000 C 
BRANCH  11  12
ATOM     12  O   UNL     1       4.675   3.767  17.351  0.00  0.00    +0.000 OA
BRANCH  12  13
ATOM     13  C   UNL     1       3.257   3.636  17.333  0.00  0.00    +0.000 C 
BRANCH  13  14
ATOM     14  C   UNL     1       2.689   3.493  18.731  0.00  0.00    +0.000 A 
ATOM     15  C   UNL     1       3.415   2.921  19.791  0.00  0.00    +0.000 A 
ATOM     16  C   UNL     1       2.810   2.685  21.029  0.00  0.00    +0.000 A 
ATOM     17  C   UNL     1       1.491   3.078  21.246  0.00  0.00    +0.000 A 
ATOM     18  C   UNL     1       0.774   3.697  20.224  0.00  0.00    +0.000 A 
ATOM     19  C   UNL     1       1.364   3.897  18.971  0.00  0.00    +0.000 A 
ENDBRANCH  13  14
ENDBRANCH  12  13
ENDBRANCH  11  12
ENDBRANCH   9  11
ENDBRANCH   3   4
ENDBRANCH   1   3
BRANCH   1  20
ATOM     20  C   UNL     1       7.716  10.879  18.095  0.00  0.00    +0.000 C 
BRANCH  20  21
ATOM     21  C   UNL     1       8.501  11.844  17.210  0.00  0.00    +0.000 C 
BRANCH  21  22
ATOM     22  C   UNL     1       9.488  12.683  18.024  0.00  0.00    +0.000 C 
BRANCH  22  23
ATOM     23  C   UNL     1      10.910  12.433  17.533  0.00  0.00    +0.000 C 
BRANCH  23  24
ATOM     24  C   UNL     1      11.783  11.933  18.673  0.00  0.00    +0.000 C 
BRANCH  24  25
ATOM     25  C   UNL     1      11.613  12.816  19.900  0.00  0.00    +0.000 C 
BRANCH  25  26
ATOM     26  C   UNL     1      10.683  12.146  20.896  0.00  0.00    +0.000 C 
BRANCH  26  27
ATOM     27  C   UNL     1       9.876  13.193  21.643  0.00  0.00    +0.000 C 
BRANCH  27  28
ATOM     28  C   UNL     1       8.407  12.805  21.657  0.00  0.00    +0.000 C 
BRANCH  28  29
ATOM     29  C   UNL     1       8.172  11.697  22.667  0.00  0.00    +0.000 C 
BRANCH  29  30
ATOM     30  C   UNL     1       8.496  12.189  24.067  0.00  0.00    +0.000 C 
BRANCH  30  31
ATOM     31  C   UNL     1       7.391  13.108  24.568  0.00  0.00    +0.000 C 
BRANCH  31  32
ATOM     32  C   UNL     1       6.129  12.307  24.848  0.00  0.00    +0.000 C 
BRANCH  32  34
ATOM     33  C   UNL     1       6.564  11.879  27.271  0.00  0.00    +0.000 C 
ATOM     34  C   UNL     1       6.392  11.243  25.905  0.00  0.00    +0.000 C 
ENDBRANCH  32  34
ENDBRANCH  31  32
ENDBRANCH  30  31
ENDBRANCH  29  30
ENDBRANCH  28  29
ENDBRANCH  27  28
ENDBRANCH  26  27
ENDBRANCH  25  26
ENDBRANCH  24  25
ENDBRANCH  23  24
ENDBRANCH  22  23
ENDBRANCH  21  22
ENDBRANCH  20  21
ENDBRANCH   1  20
TORSDOF 20
ENDMDL
