MODEL 1
REMARK VINA RESULT:      -8.4      0.000      0.000
REMARK  Name = 
REMARK  5 active torsions:
REMARK  status: ('A' for Active; 'I' for Inactive)
REMARK    1  A    between atoms: C_2  and  C_12
REMARK    2  A    between atoms: N_3  and  C_4
REMARK    3  A    between atoms: C_4  and  C_5
REMARK    4  A    between atoms: C_5  and  C_6
REMARK    5  A    between atoms: C_17  and  C_19
REMARK                            x       y       z     vdW  Elec       q    Type
REMARK                         _______ _______ _______ _____ _____    ______ ____
ROOT
ATOM      1  O   UNL     1       8.331   5.049  19.084  0.00  0.00    +0.000 OA
ATOM      2  C   UNL     1       7.711   5.435  18.099  0.00  0.00    +0.000 C 
ATOM      3  N   UNL     1       7.574   6.774  17.748  0.00  0.00    +0.000 N 
ATOM      4  H   UNL     1       7.226   6.983  16.822  0.00  0.00    +0.000 HD
ENDROOT
BRANCH   2   5
ATOM      5  C   UNL     1       6.843   4.515  17.212  0.00  0.00    +0.000 C 
ATOM      6  C   UNL     1       7.046   4.965  15.757  0.00  0.00    +0.000 C 
ATOM      7  C   UNL     1       5.933   4.267  15.006  0.00  0.00    +0.000 C 
ATOM      8  C   UNL     1       4.826   4.135  16.030  0.00  0.00    +0.000 C 
ATOM      9  N   UNL     1       5.389   4.462  17.326  0.00  0.00    +0.000 N 
ATOM     10  C   UNL     1       4.809   4.149  18.546  0.00  0.00    +0.000 C 
ATOM     11  O   UNL     1       5.450   4.222  19.593  0.00  0.00    +0.000 OA
BRANCH  10  12
ATOM     12  C   UNL     1       3.409   3.621  18.579  0.00  0.00    +0.000 C 
ATOM     13  C   UNL     1       3.183   2.307  18.746  0.00  0.00    +0.000 C 
ATOM     14  C   UNL     1       1.758   1.939  18.522  0.00  0.00    +0.000 C 
ATOM     15  C   UNL     1       1.038   3.281  18.538  0.00  0.00    +0.000 C 
ATOM     16  C   UNL     1       2.117   4.344  18.351  0.00  0.00    +0.000 C 
ENDBRANCH  10  12
ENDBRANCH   2   5
BRANCH   3  17
ATOM     17  C   UNL     1       8.278   7.845  18.434  0.00  0.00    +0.000 C 
BRANCH  17  18
ATOM     18  C   UNL     1       8.072   9.177  17.707  0.00  0.00    +0.000 C 
BRANCH  18  19
ATOM     19  C   UNL     1       8.770  10.320  18.397  0.00  0.00    +0.000 A 
ATOM     20  C   UNL     1       9.372  10.143  19.650  0.00  0.00    +0.000 A 
ATOM     21  C   UNL     1       9.999  11.214  20.287  0.00  0.00    +0.000 A 
ATOM     22  C   UNL     1      10.028  12.469  19.683  0.00  0.00    +0.000 A 
ATOM     23  C   UNL     1       9.426  12.657  18.439  0.00  0.00    +0.000 A 
ATOM     24  C   UNL     1       8.799  11.588  17.799  0.00  0.00    +0.000 A 
ENDBRANCH  18  19
ENDBRANCH  17  18
ENDBRANCH   3  17
TORSDOF 5
ENDMDL
MODEL 2
REMARK VINA RESULT:      -8.3      0.298      1.050
REMARK  Name = 
REMARK  5 active torsions:
REMARK  status: ('A' for Active; 'I' for Inactive)
REMARK    1  A    between atoms: C_2  and  C_12
REMARK    2  A    between atoms: N_3  and  C_4
REMARK    3  A    between atoms: C_4  and  C_5
REMARK    4  A    between atoms: C_5  and  C_6
REMARK    5  A    between atoms: C_17  and  C_19
REMARK                            x       y       z     vdW  Elec       q    Type
REMARK                         _______ _______ _______ _____ _____    ______ ____
ROOT
ATOM      1  O   UNL     1       8.134   5.291  19.614  0.00  0.00    +0.000 OA
ATOM      2  C   UNL     1       7.710   5.561  18.495  0.00  0.00    +0.000 C 
ATOM      3  N   UNL     1       7.735   6.839  17.948  0.00  0.00    +0.000 N 
ATOM      4  H   UNL     1       7.557   6.928  16.957  0.00  0.00    +0.000 HD
ENDROOT
BRANCH   2   5
ATOM      5  C   UNL     1       6.926   4.569  17.608  0.00  0.00    +0.000 C 
ATOM      6  C   UNL     1       7.241   4.921  16.146  0.00  0.00    +0.000 C 
ATOM      7  C   UNL     1       6.200   4.156  15.359  0.00  0.00    +0.000 C 
ATOM      8  C   UNL     1       5.015   4.079  16.298  0.00  0.00    +0.000 C 
ATOM      9  N   UNL     1       5.468   4.503  17.608  0.00  0.00    +0.000 N 
ATOM     10  C   UNL     1       4.793   4.266  18.797  0.00  0.00    +0.000 C 
ATOM     11  O   UNL     1       5.347   4.420  19.884  0.00  0.00    +0.000 OA
BRANCH  10  12
ATOM     12  C   UNL     1       3.400   3.721  18.754  0.00  0.00    +0.000 C 
ATOM     13  C   UNL     1       3.172   2.422  19.014  0.00  0.00    +0.000 C 
ATOM     14  C   UNL     1       1.774   2.015  18.700  0.00  0.00    +0.000 C 
ATOM     15  C   UNL     1       1.045   3.341  18.538  0.00  0.00    +0.000 C 
ATOM     16  C   UNL     1       2.127   4.401  18.354  0.00  0.00    +0.000 C 
ENDBRANCH  10  12
ENDBRANCH   2   5
BRANCH   3  17
ATOM     17  C   UNL     1       8.402   7.959  18.591  0.00  0.00    +0.000 C 
BRANCH  17  18
ATOM     18  C   UNL     1       8.101   9.264  17.848  0.00  0.00    +0.000 C 
BRANCH  18  19
ATOM     19  C   UNL     1       8.803  10.448  18.460  0.00  0.00    +0.000 A 
ATOM     20  C   UNL     1       8.805  11.693  17.818  0.00  0.00    +0.000 A 
ATOM     21  C   UNL     1       9.474  12.778  18.386  0.00  0.00    +0.000 A 
ATOM     22  C   UNL     1      10.149  12.629  19.596  0.00  0.00    +0.000 A 
ATOM     23  C   UNL     1      10.158  11.391  20.240  0.00  0.00    +0.000 A 
ATOM     24  C   UNL     1       9.489  10.305  19.674  0.00  0.00    +0.000 A 
ENDBRANCH  18  19
ENDBRANCH  17  18
ENDBRANCH   3  17
TORSDOF 5
ENDMDL
MODEL 3
REMARK VINA RESULT:      -8.0      1.697      3.894
REMARK  Name = 
REMARK  5 active torsions:
REMARK  status: ('A' for Active; 'I' for Inactive)
REMARK    1  A    between atoms: C_2  and  C_12
REMARK    2  A    between atoms: N_3  and  C_4
REMARK    3  A    between atoms: C_4  and  C_5
REMARK    4  A    between atoms: C_5  and  C_6
REMARK    5  A    between atoms: C_17  and  C_19
REMARK                            x       y       z     vdW  Elec       q    Type
REMARK                         _______ _______ _______ _____ _____    ______ ____
ROOT
ATOM      1  O   UNL     1       7.980   5.453  18.981  0.00  0.00    +0.000 OA
ATOM      2  C   UNL     1       7.282   6.025  18.151  0.00  0.00    +0.000 C 
ATOM      3  N   UNL     1       7.432   7.364  17.808  0.00  0.00    +0.000 N 
ATOM      4  H   UNL     1       6.956   7.692  16.979  0.00  0.00    +0.000 HD
ENDROOT
BRANCH   2   5
ATOM      5  C   UNL     1       6.026   5.401  17.505  0.00  0.00    +0.000 C 
ATOM      6  C   UNL     1       5.354   4.526  18.575  0.00  0.00    +0.000 C 
ATOM      7  C   UNL     1       4.357   3.700  17.791  0.00  0.00    +0.000 C 
ATOM      8  C   UNL     1       4.989   3.568  16.421  0.00  0.00    +0.000 C 
ATOM      9  N   UNL     1       6.101   4.497  16.362  0.00  0.00    +0.000 N 
ATOM     10  C   UNL     1       6.722   4.919  15.195  0.00  0.00    +0.000 C 
ATOM     11  O   UNL     1       7.475   5.891  15.192  0.00  0.00    +0.000 OA
BRANCH  10  12
ATOM     12  C   UNL     1       6.393   4.241  13.903  0.00  0.00    +0.000 C 
ATOM     13  C   UNL     1       7.364   3.963  13.016  0.00  0.00    +0.000 C 
ATOM     14  C   UNL     1       6.826   3.505  11.705  0.00  0.00    +0.000 C 
ATOM     15  C   UNL     1       5.368   3.189  12.010  0.00  0.00    +0.000 C 
ATOM     16  C   UNL     1       5.055   3.868  13.340  0.00  0.00    +0.000 C 
ENDBRANCH  10  12
ENDBRANCH   2   5
BRANCH   3  17
ATOM     17  C   UNL     1       8.531   8.184  18.291  0.00  0.00    +0.000 C 
BRANCH  17  18
ATOM     18  C   UNL     1       8.184   9.671  18.176  0.00  0.00    +0.000 C 
BRANCH  18  19
ATOM     19  C   UNL     1       9.269  10.557  18.732  0.00  0.00    +0.000 A 
ATOM     20  C   UNL     1      10.194  11.179  17.883  0.00  0.00    +0.000 A 
ATOM     21  C   UNL     1      11.205  11.982  18.411  0.00  0.00    +0.000 A 
ATOM     22  C   UNL     1      11.304  12.170  19.788  0.00  0.00    +0.000 A 
ATOM     23  C   UNL     1      10.391  11.551  20.642  0.00  0.00    +0.000 A 
ATOM     24  C   UNL     1       9.378  10.747  20.117  0.00  0.00    +0.000 A 
ENDBRANCH  18  19
ENDBRANCH  17  18
ENDBRANCH   3  17
TORSDOF 5
ENDMDL
MODEL 4
REMARK VINA RESULT:      -7.9      1.703      3.792
REMARK  Name = 
REMARK  5 active torsions:
REMARK  status: ('A' for Active; 'I' for Inactive)
REMARK    1  A    between atoms: C_2  and  C_12
REMARK    2  A    between atoms: N_3  and  C_4
REMARK    3  A    between atoms: C_4  and  C_5
REMARK    4  A    between atoms: C_5  and  C_6
REMARK    5  A    between atoms: C_17  and  C_19
REMARK                            x       y       z     vdW  Elec       q    Type
REMARK                         _______ _______ _______ _____ _____    ______ ____
ROOT
ATOM      1  O   UNL     1       7.996   5.577  18.887  0.00  0.00    +0.000 OA
ATOM      2  C   UNL     1       7.277   6.246  18.154  0.00  0.00    +0.000 C 
ATOM      3  N   UNL     1       7.426   7.616  17.965  0.00  0.00    +0.000 N 
ATOM      4  H   UNL     1       6.926   8.041  17.196  0.00  0.00    +0.000 HD
ENDROOT
BRANCH   2   5
ATOM      5  C   UNL     1       5.995   5.707  17.479  0.00  0.00    +0.000 C 
ATOM      6  C   UNL     1       5.180   4.989  18.566  0.00  0.00    +0.000 C 
ATOM      7  C   UNL     1       4.143   4.213  17.783  0.00  0.00    +0.000 C 
ATOM      8  C   UNL     1       4.826   3.914  16.466  0.00  0.00    +0.000 C 
ATOM      9  N   UNL     1       6.032   4.718  16.408  0.00  0.00    +0.000 N 
ATOM     10  C   UNL     1       6.753   4.985  15.253  0.00  0.00    +0.000 C 
ATOM     11  O   UNL     1       7.606   5.871  15.227  0.00  0.00    +0.000 OA
BRANCH  10  12
ATOM     12  C   UNL     1       6.421   4.249  13.993  0.00  0.00    +0.000 C 
ATOM     13  C   UNL     1       7.375   4.005  13.078  0.00  0.00    +0.000 C 
ATOM     14  C   UNL     1       6.819   3.475  11.802  0.00  0.00    +0.000 C 
ATOM     15  C   UNL     1       5.396   3.079  12.171  0.00  0.00    +0.000 C 
ATOM     16  C   UNL     1       5.090   3.778  13.493  0.00  0.00    +0.000 C 
ENDBRANCH  10  12
ENDBRANCH   2   5
BRANCH   3  17
ATOM     17  C   UNL     1       8.546   8.369  18.506  0.00  0.00    +0.000 C 
BRANCH  17  18
ATOM     18  C   UNL     1       8.531   9.807  17.981  0.00  0.00    +0.000 C 
BRANCH  18  19
ATOM     19  C   UNL     1       9.531  10.685  18.687  0.00  0.00    +0.000 A 
ATOM     20  C   UNL     1       9.481  10.856  20.077  0.00  0.00    +0.000 A 
ATOM     21  C   UNL     1      10.401  11.687  20.718  0.00  0.00    +0.000 A 
ATOM     22  C   UNL     1      11.375  12.355  19.979  0.00  0.00    +0.000 A 
ATOM     23  C   UNL     1      11.429  12.196  18.594  0.00  0.00    +0.000 A 
ATOM     24  C   UNL     1      10.511  11.366  17.951  0.00  0.00    +0.000 A 
ENDBRANCH  18  19
ENDBRANCH  17  18
ENDBRANCH   3  17
TORSDOF 5
ENDMDL
MODEL 5
REMARK VINA RESULT:      -7.7      0.749      1.498
REMARK  Name = 
REMARK  5 active torsions:
REMARK  status: ('A' for Active; 'I' for Inactive)
REMARK    1  A    between atoms: C_2  and  C_12
REMARK    2  A    between atoms: N_3  and  C_4
REMARK    3  A    between atoms: C_4  and  C_5
REMARK    4  A    between atoms: C_5  and  C_6
REMARK    5  A    between atoms: C_17  and  C_19
REMARK                            x       y       z     vdW  Elec       q    Type
REMARK                         _______ _______ _______ _____ _____    ______ ____
ROOT
ATOM      1  O   UNL     1       7.983   6.501  19.064  0.00  0.00    +0.000 OA
ATOM      2  C   UNL     1       7.531   6.473  17.925  0.00  0.00    +0.000 C 
ATOM      3  N   UNL     1       7.259   7.611  17.173  0.00  0.00    +0.000 N 
ATOM      4  H   UNL     1       7.084   7.490  16.185  0.00  0.00    +0.000 HD
ENDROOT
BRANCH   2   5
ATOM      5  C   UNL     1       7.027   5.189  17.230  0.00  0.00    +0.000 C 
ATOM      6  C   UNL     1       7.401   5.301  15.744  0.00  0.00    +0.000 C 
ATOM      7  C   UNL     1       6.595   4.202  15.085  0.00  0.00    +0.000 C 
ATOM      8  C   UNL     1       5.365   4.077  15.960  0.00  0.00    +0.000 C 
ATOM      9  N   UNL     1       5.612   4.834  17.172  0.00  0.00    +0.000 N 
ATOM     10  C   UNL     1       4.889   4.707  18.348  0.00  0.00    +0.000 C 
ATOM     11  O   UNL     1       5.305   5.181  19.405  0.00  0.00    +0.000 OA
BRANCH  10  12
ATOM     12  C   UNL     1       3.631   3.897  18.353  0.00  0.00    +0.000 C 
ATOM     13  C   UNL     1       2.452   4.472  18.055  0.00  0.00    +0.000 C 
ATOM     14  C   UNL     1       1.295   3.577  18.334  0.00  0.00    +0.000 C 
ATOM     15  C   UNL     1       1.938   2.209  18.518  0.00  0.00    +0.000 C 
ATOM     16  C   UNL     1       3.425   2.467  18.748  0.00  0.00    +0.000 C 
ENDBRANCH  10  12
ENDBRANCH   2   5
BRANCH   3  17
ATOM     17  C   UNL     1       7.623   8.949  17.608  0.00  0.00    +0.000 C 
BRANCH  17  18
ATOM     18  C   UNL     1       8.748   8.890  18.646  0.00  0.00    +0.000 C 
BRANCH  18  19
ATOM     19  C   UNL     1       9.297  10.254  18.975  0.00  0.00    +0.000 A 
ATOM     20  C   UNL     1       9.531  11.197  17.965  0.00  0.00    +0.000 A 
ATOM     21  C   UNL     1      10.057  12.450  18.279  0.00  0.00    +0.000 A 
ATOM     22  C   UNL     1      10.356  12.773  19.601  0.00  0.00    +0.000 A 
ATOM     23  C   UNL     1      10.132  11.838  20.614  0.00  0.00    +0.000 A 
ATOM     24  C   UNL     1       9.606  10.585  20.301  0.00  0.00    +0.000 A 
ENDBRANCH  18  19
ENDBRANCH  17  18
ENDBRANCH   3  17
TORSDOF 5
ENDMDL
MODEL 6
REMARK VINA RESULT:      -7.6      3.779      7.511
REMARK  Name = 
REMARK  5 active torsions:
REMARK  status: ('A' for Active; 'I' for Inactive)
REMARK    1  A    between atoms: C_2  and  C_12
REMARK    2  A    between atoms: N_3  and  C_4
REMARK    3  A    between atoms: C_4  and  C_5
REMARK    4  A    between atoms: C_5  and  C_6
REMARK    5  A    between atoms: C_17  and  C_19
REMARK                            x       y       z     vdW  Elec       q    Type
REMARK                         _______ _______ _______ _____ _____    ______ ____
ROOT
ATOM      1  O   UNL     1       6.974   5.298  19.776  0.00  0.00    +0.000 OA
ATOM      2  C   UNL     1       6.131   5.105  18.906  0.00  0.00    +0.000 C 
ATOM      3  N   UNL     1       5.387   3.935  18.799  0.00  0.00    +0.000 N 
ATOM      4  H   UNL     1       4.584   3.945  18.185  0.00  0.00    +0.000 HD
ENDROOT
BRANCH   2   5
ATOM      5  C   UNL     1       5.904   6.046  17.703  0.00  0.00    +0.000 C 
ATOM      6  C   UNL     1       4.550   6.738  17.919  0.00  0.00    +0.000 C 
ATOM      7  C   UNL     1       4.244   7.361  16.574  0.00  0.00    +0.000 C 
ATOM      8  C   UNL     1       4.926   6.442  15.582  0.00  0.00    +0.000 C 
ATOM      9  N   UNL     1       5.790   5.553  16.334  0.00  0.00    +0.000 N 
ATOM     10  C   UNL     1       6.819   4.798  15.790  0.00  0.00    +0.000 C 
ATOM     11  O   UNL     1       7.668   4.271  16.507  0.00  0.00    +0.000 OA
BRANCH  10  12
ATOM     12  C   UNL     1       6.954   4.705  14.303  0.00  0.00    +0.000 C 
ATOM     13  C   UNL     1       6.243   3.796  13.613  0.00  0.00    +0.000 C 
ATOM     14  C   UNL     1       6.675   3.695  12.191  0.00  0.00    +0.000 C 
ATOM     15  C   UNL     1       7.532   4.937  11.989  0.00  0.00    +0.000 C 
ATOM     16  C   UNL     1       7.880   5.444  13.386  0.00  0.00    +0.000 C 
ENDBRANCH  10  12
ENDBRANCH   2   5
BRANCH   3  17
ATOM     17  C   UNL     1       5.429   2.879  19.798  0.00  0.00    +0.000 C 
BRANCH  17  18
ATOM     18  C   UNL     1       4.370   1.814  19.499  0.00  0.00    +0.000 C 
BRANCH  18  19
ATOM     19  C   UNL     1       2.967   2.345  19.641  0.00  0.00    +0.000 A 
ATOM     20  C   UNL     1       2.439   2.651  20.902  0.00  0.00    +0.000 A 
ATOM     21  C   UNL     1       1.132   3.124  21.023  0.00  0.00    +0.000 A 
ATOM     22  C   UNL     1       0.341   3.293  19.889  0.00  0.00    +0.000 A 
ATOM     23  C   UNL     1       0.855   2.985  18.629  0.00  0.00    +0.000 A 
ATOM     24  C   UNL     1       2.162   2.512  18.506  0.00  0.00    +0.000 A 
ENDBRANCH  18  19
ENDBRANCH  17  18
ENDBRANCH   3  17
TORSDOF 5
ENDMDL
MODEL 7
REMARK VINA RESULT:      -7.6      3.949      6.913
REMARK  Name = 
REMARK  5 active torsions:
REMARK  status: ('A' for Active; 'I' for Inactive)
REMARK    1  A    between atoms: C_2  and  C_12
REMARK    2  A    between atoms: N_3  and  C_4
REMARK    3  A    between atoms: C_4  and  C_5
REMARK    4  A    between atoms: C_5  and  C_6
REMARK    5  A    between atoms: C_17  and  C_19
REMARK                            x       y       z     vdW  Elec       q    Type
REMARK                         _______ _______ _______ _____ _____    ______ ____
ROOT
ATOM      1  O   UNL     1       6.875   6.117  16.991  0.00  0.00    +0.000 OA
ATOM      2  C   UNL     1       5.878   5.717  16.400  0.00  0.00    +0.000 C 
ATOM      3  N   UNL     1       5.917   5.065  15.173  0.00  0.00    +0.000 N 
ATOM      4  H   UNL     1       5.076   4.596  14.864  0.00  0.00    +0.000 HD
ENDROOT
BRANCH   2   5
ATOM      5  C   UNL     1       4.432   6.040  16.837  0.00  0.00    +0.000 C 
ATOM      6  C   UNL     1       4.374   7.546  17.136  0.00  0.00    +0.000 C 
ATOM      7  C   UNL     1       3.060   7.718  17.868  0.00  0.00    +0.000 C 
ATOM      8  C   UNL     1       2.857   6.392  18.571  0.00  0.00    +0.000 C 
ATOM      9  N   UNL     1       3.827   5.459  18.031  0.00  0.00    +0.000 N 
ATOM     10  C   UNL     1       3.759   4.079  18.162  0.00  0.00    +0.000 C 
ATOM     11  O   UNL     1       4.459   3.340  17.472  0.00  0.00    +0.000 OA
BRANCH  10  12
ATOM     12  C   UNL     1       2.749   3.479  19.089  0.00  0.00    +0.000 C 
ATOM     13  C   UNL     1       1.546   3.098  18.626  0.00  0.00    +0.000 C 
ATOM     14  C   UNL     1       0.600   2.743  19.721  0.00  0.00    +0.000 C 
ATOM     15  C   UNL     1       1.501   2.612  20.941  0.00  0.00    +0.000 C 
ATOM     16  C   UNL     1       2.815   3.295  20.574  0.00  0.00    +0.000 C 
ENDBRANCH  10  12
ENDBRANCH   2   5
BRANCH   3  17
ATOM     17  C   UNL     1       7.158   4.658  14.536  0.00  0.00    +0.000 C 
BRANCH  17  18
ATOM     18  C   UNL     1       7.090   4.895  13.024  0.00  0.00    +0.000 C 
BRANCH  18  19
ATOM     19  C   UNL     1       6.636   3.671  12.272  0.00  0.00    +0.000 A 
ATOM     20  C   UNL     1       5.272   3.391  12.112  0.00  0.00    +0.000 A 
ATOM     21  C   UNL     1       4.864   2.245  11.429  0.00  0.00    +0.000 A 
ATOM     22  C   UNL     1       5.810   1.368  10.904  0.00  0.00    +0.000 A 
ATOM     23  C   UNL     1       7.171   1.635  11.063  0.00  0.00    +0.000 A 
ATOM     24  C   UNL     1       7.581   2.781  11.745  0.00  0.00    +0.000 A 
ENDBRANCH  18  19
ENDBRANCH  17  18
ENDBRANCH   3  17
TORSDOF 5
ENDMDL
MODEL 8
REMARK VINA RESULT:      -7.5      3.973      6.881
REMARK  Name = 
REMARK  5 active torsions:
REMARK  status: ('A' for Active; 'I' for Inactive)
REMARK    1  A    between atoms: C_2  and  C_12
REMARK    2  A    between atoms: N_3  and  C_4
REMARK    3  A    between atoms: C_4  and  C_5
REMARK    4  A    between atoms: C_5  and  C_6
REMARK    5  A    between atoms: C_17  and  C_19
REMARK                            x       y       z     vdW  Elec       q    Type
REMARK                         _______ _______ _______ _____ _____    ______ ____
ROOT
ATOM      1  O   UNL     1       6.759   4.376  16.953  0.00  0.00    +0.000 OA
ATOM      2  C   UNL     1       5.952   4.946  16.227  0.00  0.00    +0.000 C 
ATOM      3  N   UNL     1       6.216   5.304  14.910  0.00  0.00    +0.000 N 
ATOM      4  H   UNL     1       5.434   5.580  14.333  0.00  0.00    +0.000 HD
ENDROOT
BRANCH   2   5
ATOM      5  C   UNL     1       4.600   5.510  16.718  0.00  0.00    +0.000 C 
ATOM      6  C   UNL     1       4.792   7.018  16.938  0.00  0.00    +0.000 C 
ATOM      7  C   UNL     1       3.565   7.426  17.724  0.00  0.00    +0.000 C 
ATOM      8  C   UNL     1       3.202   6.182  18.508  0.00  0.00    +0.000 C 
ATOM      9  N   UNL     1       3.983   5.085  17.971  0.00  0.00    +0.000 N 
ATOM     10  C   UNL     1       3.713   3.741  18.180  0.00  0.00    +0.000 C 
ATOM     11  O   UNL     1       4.249   2.870  17.496  0.00  0.00    +0.000 OA
BRANCH  10  12
ATOM     12  C   UNL     1       2.678   3.348  19.187  0.00  0.00    +0.000 C 
ATOM     13  C   UNL     1       1.411   3.115  18.804  0.00  0.00    +0.000 C 
ATOM     14  C   UNL     1       0.483   2.967  19.959  0.00  0.00    +0.000 C 
ATOM     15  C   UNL     1       1.419   2.783  21.146  0.00  0.00    +0.000 C 
ATOM     16  C   UNL     1       2.795   3.249  20.677  0.00  0.00    +0.000 C 
ENDBRANCH  10  12
ENDBRANCH   2   5
BRANCH   3  17
ATOM     17  C   UNL     1       7.429   4.906  14.213  0.00  0.00    +0.000 C 
BRANCH  17  18
ATOM     18  C   UNL     1       7.231   4.992  12.697  0.00  0.00    +0.000 C 
BRANCH  18  19
ATOM     19  C   UNL     1       6.736   3.696  12.109  0.00  0.00    +0.000 A 
ATOM     20  C   UNL     1       7.635   2.746  11.607  0.00  0.00    +0.000 A 
ATOM     21  C   UNL     1       7.164   1.557  11.048  0.00  0.00    +0.000 A 
ATOM     22  C   UNL     1       5.795   1.308  10.982  0.00  0.00    +0.000 A 
ATOM     23  C   UNL     1       4.891   2.251  11.474  0.00  0.00    +0.000 A 
ATOM     24  C   UNL     1       5.360   3.440  12.034  0.00  0.00    +0.000 A 
ENDBRANCH  18  19
ENDBRANCH  17  18
ENDBRANCH   3  17
TORSDOF 5
ENDMDL
MODEL 9
REMARK VINA RESULT:      -7.5      3.015      5.577
REMARK  Name = 
REMARK  5 active torsions:
REMARK  status: ('A' for Active; 'I' for Inactive)
REMARK    1  A    between atoms: C_2  and  C_12
REMARK    2  A    between atoms: N_3  and  C_4
REMARK    3  A    between atoms: C_4  and  C_5
REMARK    4  A    between atoms: C_5  and  C_6
REMARK    5  A    between atoms: C_17  and  C_19
REMARK                            x       y       z     vdW  Elec       q    Type
REMARK                         _______ _______ _______ _____ _____    ______ ____
ROOT
ATOM      1  O   UNL     1       5.267   2.738  19.664  0.00  0.00    +0.000 OA
ATOM      2  C   UNL     1       4.223   3.181  19.197  0.00  0.00    +0.000 C 
ATOM      3  N   UNL     1       4.037   3.455  17.847  0.00  0.00    +0.000 N 
ATOM      4  H   UNL     1       3.091   3.621  17.528  0.00  0.00    +0.000 HD
ENDROOT
BRANCH   2   5
ATOM      5  C   UNL     1       3.036   3.671  20.055  0.00  0.00    +0.000 C 
ATOM      6  C   UNL     1       1.959   2.576  20.005  0.00  0.00    +0.000 C 
ATOM      7  C   UNL     1       0.728   3.256  20.564  0.00  0.00    +0.000 C 
ATOM      8  C   UNL     1       0.912   4.712  20.190  0.00  0.00    +0.000 C 
ATOM      9  N   UNL     1       2.277   4.873  19.727  0.00  0.00    +0.000 N 
ATOM     10  C   UNL     1       2.936   6.088  19.608  0.00  0.00    +0.000 C 
ATOM     11  O   UNL     1       4.156   6.137  19.460  0.00  0.00    +0.000 OA
BRANCH  10  12
ATOM     12  C   UNL     1       2.164   7.361  19.761  0.00  0.00    +0.000 C 
ATOM     13  C   UNL     1       1.617   7.685  20.945  0.00  0.00    +0.000 C 
ATOM     14  C   UNL     1       0.701   8.855  20.850  0.00  0.00    +0.000 C 
ATOM     15  C   UNL     1       1.026   9.451  19.487  0.00  0.00    +0.000 C 
ATOM     16  C   UNL     1       1.787   8.372  18.722  0.00  0.00    +0.000 C 
ENDBRANCH  10  12
ENDBRANCH   2   5
BRANCH   3  17
ATOM     17  C   UNL     1       5.013   3.103  16.829  0.00  0.00    +0.000 C 
BRANCH  17  18
ATOM     18  C   UNL     1       5.451   4.347  16.050  0.00  0.00    +0.000 C 
BRANCH  18  19
ATOM     19  C   UNL     1       6.295   5.276  16.882  0.00  0.00    +0.000 A 
ATOM     20  C   UNL     1       6.232   6.664  16.697  0.00  0.00    +0.000 A 
ATOM     21  C   UNL     1       7.033   7.513  17.461  0.00  0.00    +0.000 A 
ATOM     22  C   UNL     1       7.904   6.987  18.412  0.00  0.00    +0.000 A 
ATOM     23  C   UNL     1       7.979   5.606  18.600  0.00  0.00    +0.000 A 
ATOM     24  C   UNL     1       7.179   4.755  17.837  0.00  0.00    +0.000 A 
ENDBRANCH  18  19
ENDBRANCH  17  18
ENDBRANCH   3  17
TORSDOF 5
ENDMDL
