MODEL 1
REMARK VINA RESULT:      -8.0      0.000      0.000
REMARK  Name = 
REMARK  9 active torsions:
REMARK  status: ('A' for Active; 'I' for Inactive)
REMARK    1  A    between atoms: C_1  and  O_2
REMARK    2  A    between atoms: O_2  and  C_3
REMARK    3  A    between atoms: C_8  and  O_9
REMARK    4  A    between atoms: O_9  and  C_10
REMARK    5  A    between atoms: C_10  and  C_11
REMARK    6  A    between atoms: C_14  and  S_15
REMARK    7  A    between atoms: S_15  and  C_16
REMARK    8  A    between atoms: C_16  and  C_17
REMARK    9  A    between atoms: N_25  and  C_26
REMARK                            x       y       z     vdW  Elec       q    Type
REMARK                         _______ _______ _______ _____ _____    ______ ____
ROOT
ATOM      1  C   UNL     1       3.146   6.214  18.032  0.00  0.00    +0.000 A 
ATOM      2  N   UNL     1       3.248   7.492  17.712  0.00  0.00    +0.000 NA
ATOM      3  N   UNL     1       2.540   8.232  18.624  0.00  0.00    +0.000 NA
ATOM      4  C   UNL     1       2.023   7.402  19.500  0.00  0.00    +0.000 A 
ATOM      5  N   UNL     1       2.382   6.093  19.197  0.00  0.00    +0.000 N 
ENDROOT
BRANCH   5   6
ATOM      6  C   UNL     1       2.054   4.897  19.907  0.00  0.00    +0.000 A 
ATOM      7  C   UNL     1       1.116   3.992  19.389  0.00  0.00    +0.000 A 
ATOM      8  C   UNL     1       0.740   2.865  20.123  0.00  0.00    +0.000 A 
ATOM      9  C   UNL     1       1.323   2.610  21.360  0.00  0.00    +0.000 A 
ATOM     10  C   UNL     1       2.290   3.479  21.861  0.00  0.00    +0.000 A 
ATOM     11  C   UNL     1       2.650   4.621  21.143  0.00  0.00    +0.000 A 
ENDBRANCH   5   6
BRANCH   1  12
ATOM     12  C   UNL     1       3.536   5.077  17.130  0.00  0.00    +0.000 C 
BRANCH  12  13
ATOM     13  O   UNL     1       4.711   4.444  17.642  0.00  0.00    +0.000 OA
BRANCH  13  19
ATOM     14  C   UNL     1       6.526   6.032  16.933  0.00  0.00    +0.000 A 
ATOM     15  C   UNL     1       7.624   6.790  17.361  0.00  0.00    +0.000 A 
ATOM     16  C   UNL     1       8.106   6.687  18.662  0.00  0.00    +0.000 A 
ATOM     17  C   UNL     1       7.463   5.849  19.563  0.00  0.00    +0.000 A 
ATOM     18  C   UNL     1       6.325   5.136  19.164  0.00  0.00    +0.000 A 
ATOM     19  C   UNL     1       5.830   5.220  17.851  0.00  0.00    +0.000 A 
BRANCH  14  21
ATOM     20  C   UNL     1       6.506   5.067  14.770  0.00  0.00    +0.000 C 
ATOM     21  O   UNL     1       6.091   6.122  15.638  0.00  0.00    +0.000 OA
ENDBRANCH  14  21
ENDBRANCH  13  19
ENDBRANCH  12  13
ENDBRANCH   1  12
BRANCH   4  22
ATOM     22  S   UNL     1       1.278   7.916  20.987  0.00  0.00    +0.000 S 
BRANCH  22  23
ATOM     23  C   UNL     1       0.203   9.276  20.454  0.00  0.00    +0.000 C 
BRANCH  23  24
ATOM     24  C   UNL     1       0.556  10.638  21.054  0.00  0.00    +0.000 C 
ATOM     25  O   UNL     1       0.709  10.809  22.266  0.00  0.00    +0.000 OA
ATOM     26  N   UNL     1       0.734  11.689  20.148  0.00  0.00    +0.000 N 
ATOM     27  C   UNL     1       1.239  12.979  20.621  0.00  0.00    +0.000 C 
ATOM     28  C   UNL     1       0.243  14.100  20.329  0.00  0.00    +0.000 C 
ATOM     29  C   UNL     1      -0.157  14.115  18.853  0.00  0.00    +0.000 C 
ATOM     30  C   UNL     1      -0.640  12.736  18.401  0.00  0.00    +0.000 C 
ATOM     31  C   UNL     1       0.388  11.652  18.727  0.00  0.00    +0.000 C 
ENDBRANCH  23  24
ENDBRANCH  22  23
ENDBRANCH   4  22
TORSDOF 8
ENDMDL
MODEL 2
REMARK VINA RESULT:      -8.0      4.043      7.169
REMARK  Name = 
REMARK  9 active torsions:
REMARK  status: ('A' for Active; 'I' for Inactive)
REMARK    1  A    between atoms: C_1  and  O_2
REMARK    2  A    between atoms: O_2  and  C_3
REMARK    3  A    between atoms: C_8  and  O_9
REMARK    4  A    between atoms: O_9  and  C_10
REMARK    5  A    between atoms: C_10  and  C_11
REMARK    6  A    between atoms: C_14  and  S_15
REMARK    7  A    between atoms: S_15  and  C_16
REMARK    8  A    between atoms: C_16  and  C_17
REMARK    9  A    between atoms: N_25  and  C_26
REMARK                            x       y       z     vdW  Elec       q    Type
REMARK                         _______ _______ _______ _____ _____    ______ ____
ROOT
ATOM      1  C   UNL     1       7.002   7.115  17.174  0.00  0.00    +0.000 A 
ATOM      2  N   UNL     1       7.857   6.576  16.323  0.00  0.00    +0.000 NA
ATOM      3  N   UNL     1       7.282   5.463  15.766  0.00  0.00    +0.000 NA
ATOM      4  C   UNL     1       6.077   5.339  16.271  0.00  0.00    +0.000 A 
ATOM      5  N   UNL     1       5.818   6.371  17.167  0.00  0.00    +0.000 N 
ENDROOT
BRANCH   5   6
ATOM      6  C   UNL     1       4.623   6.621  17.911  0.00  0.00    +0.000 A 
ATOM      7  C   UNL     1       4.377   5.948  19.116  0.00  0.00    +0.000 A 
ATOM      8  C   UNL     1       3.173   6.135  19.799  0.00  0.00    +0.000 A 
ATOM      9  C   UNL     1       2.222   7.024  19.306  0.00  0.00    +0.000 A 
ATOM     10  C   UNL     1       2.479   7.732  18.134  0.00  0.00    +0.000 A 
ATOM     11  C   UNL     1       3.670   7.528  17.434  0.00  0.00    +0.000 A 
ENDBRANCH   5   6
BRANCH   1  12
ATOM     12  C   UNL     1       7.357   8.169  18.186  0.00  0.00    +0.000 C 
BRANCH  12  13
ATOM     13  O   UNL     1       7.564   9.417  17.520  0.00  0.00    +0.000 OA
BRANCH  13  19
ATOM     14  C   UNL     1       8.444  11.742  17.894  0.00  0.00    +0.000 A 
ATOM     15  C   UNL     1       9.304  12.537  18.664  0.00  0.00    +0.000 A 
ATOM     16  C   UNL     1      10.163  11.970  19.601  0.00  0.00    +0.000 A 
ATOM     17  C   UNL     1      10.139  10.597  19.805  0.00  0.00    +0.000 A 
ATOM     18  C   UNL     1       9.238   9.800  19.087  0.00  0.00    +0.000 A 
ATOM     19  C   UNL     1       8.370  10.354  18.129  0.00  0.00    +0.000 A 
BRANCH  14  21
ATOM     20  C   UNL     1       7.057  13.573  17.316  0.00  0.00    +0.000 C 
ATOM     21  O   UNL     1       7.634  12.317  16.953  0.00  0.00    +0.000 OA
ENDBRANCH  14  21
ENDBRANCH  13  19
ENDBRANCH  12  13
ENDBRANCH   1  12
BRANCH   4  22
ATOM     22  S   UNL     1       4.886   4.230  15.652  0.00  0.00    +0.000 S 
BRANCH  22  23
ATOM     23  C   UNL     1       4.443   3.251  17.112  0.00  0.00    +0.000 C 
BRANCH  23  24
ATOM     24  C   UNL     1       2.952   3.256  17.453  0.00  0.00    +0.000 C 
ATOM     25  O   UNL     1       2.106   3.771  16.718  0.00  0.00    +0.000 OA
ATOM     26  N   UNL     1       2.583   2.609  18.637  0.00  0.00    +0.000 N 
ATOM     27  C   UNL     1       1.166   2.418  18.950  0.00  0.00    +0.000 C 
ATOM     28  C   UNL     1       0.799   3.089  20.272  0.00  0.00    +0.000 C 
ATOM     29  C   UNL     1       1.730   2.639  21.399  0.00  0.00    +0.000 C 
ATOM     30  C   UNL     1       3.196   2.824  21.006  0.00  0.00    +0.000 C 
ATOM     31  C   UNL     1       3.506   2.143  19.673  0.00  0.00    +0.000 C 
ENDBRANCH  23  24
ENDBRANCH  22  23
ENDBRANCH   4  22
TORSDOF 8
ENDMDL
MODEL 3
REMARK VINA RESULT:      -8.0      2.149      8.109
REMARK  Name = 
REMARK  9 active torsions:
REMARK  status: ('A' for Active; 'I' for Inactive)
REMARK    1  A    between atoms: C_1  and  O_2
REMARK    2  A    between atoms: O_2  and  C_3
REMARK    3  A    between atoms: C_8  and  O_9
REMARK    4  A    between atoms: O_9  and  C_10
REMARK    5  A    between atoms: C_10  and  C_11
REMARK    6  A    between atoms: C_14  and  S_15
REMARK    7  A    between atoms: S_15  and  C_16
REMARK    8  A    between atoms: C_16  and  C_17
REMARK    9  A    between atoms: N_25  and  C_26
REMARK                            x       y       z     vdW  Elec       q    Type
REMARK                         _______ _______ _______ _____ _____    ______ ____
ROOT
ATOM      1  C   UNL     1       2.320   7.422  19.008  0.00  0.00    +0.000 A 
ATOM      2  N   UNL     1       2.946   8.187  18.131  0.00  0.00    +0.000 NA
ATOM      3  N   UNL     1       3.774   7.399  17.372  0.00  0.00    +0.000 NA
ATOM      4  C   UNL     1       3.638   6.160  17.784  0.00  0.00    +0.000 A 
ATOM      5  N   UNL     1       2.709   6.093  18.818  0.00  0.00    +0.000 N 
ENDROOT
BRANCH   5   6
ATOM      6  C   UNL     1       2.252   4.938  19.524  0.00  0.00    +0.000 A 
ATOM      7  C   UNL     1       1.362   4.037  18.922  0.00  0.00    +0.000 A 
ATOM      8  C   UNL     1       0.856   2.953  19.642  0.00  0.00    +0.000 A 
ATOM      9  C   UNL     1       1.263   2.736  20.955  0.00  0.00    +0.000 A 
ATOM     10  C   UNL     1       2.183   3.599  21.546  0.00  0.00    +0.000 A 
ATOM     11  C   UNL     1       2.671   4.700  20.838  0.00  0.00    +0.000 A 
ENDBRANCH   5   6
BRANCH   1  12
ATOM     12  C   UNL     1       1.553   7.939  20.193  0.00  0.00    +0.000 C 
BRANCH  12  13
ATOM     13  O   UNL     1       1.089   9.264  19.919  0.00  0.00    +0.000 OA
BRANCH  13  19
ATOM     14  C   UNL     1      -0.367  11.121  20.785  0.00  0.00    +0.000 A 
ATOM     15  C   UNL     1      -1.127  11.577  21.871  0.00  0.00    +0.000 A 
ATOM     16  C   UNL     1      -1.133  10.892  23.082  0.00  0.00    +0.000 A 
ATOM     17  C   UNL     1      -0.406   9.716  23.205  0.00  0.00    +0.000 A 
ATOM     18  C   UNL     1       0.306   9.218  22.107  0.00  0.00    +0.000 A 
ATOM     19  C   UNL     1       0.333   9.900  20.878  0.00  0.00    +0.000 A 
BRANCH  14  21
ATOM     20  C   UNL     1      -1.564  11.826  18.867  0.00  0.00    +0.000 C 
ATOM     21  O   UNL     1      -0.346  11.829  19.614  0.00  0.00    +0.000 OA
ENDBRANCH  14  21
ENDBRANCH  13  19
ENDBRANCH  12  13
ENDBRANCH   1  12
BRANCH   4  22
ATOM     22  S   UNL     1       4.286   4.788  16.931  0.00  0.00    +0.000 S 
BRANCH  22  23
ATOM     23  C   UNL     1       6.055   4.867  17.320  0.00  0.00    +0.000 C 
BRANCH  23  24
ATOM     24  C   UNL     1       6.926   5.451  16.205  0.00  0.00    +0.000 C 
ATOM     25  O   UNL     1       7.486   6.545  16.306  0.00  0.00    +0.000 OA
ATOM     26  N   UNL     1       7.088   4.659  15.063  0.00  0.00    +0.000 N 
ATOM     27  C   UNL     1       8.038   5.063  14.027  0.00  0.00    +0.000 C 
ATOM     28  C   UNL     1       7.338   5.258  12.684  0.00  0.00    +0.000 C 
ATOM     29  C   UNL     1       6.520   4.023  12.301  0.00  0.00    +0.000 C 
ATOM     30  C   UNL     1       5.572   3.621  13.432  0.00  0.00    +0.000 C 
ATOM     31  C   UNL     1       6.322   3.451  14.753  0.00  0.00    +0.000 C 
ENDBRANCH  23  24
ENDBRANCH  22  23
ENDBRANCH   4  22
TORSDOF 8
ENDMDL
MODEL 4
REMARK VINA RESULT:      -7.8      2.271      4.498
REMARK  Name = 
REMARK  9 active torsions:
REMARK  status: ('A' for Active; 'I' for Inactive)
REMARK    1  A    between atoms: C_1  and  O_2
REMARK    2  A    between atoms: O_2  and  C_3
REMARK    3  A    between atoms: C_8  and  O_9
REMARK    4  A    between atoms: O_9  and  C_10
REMARK    5  A    between atoms: C_10  and  C_11
REMARK    6  A    between atoms: C_14  and  S_15
REMARK    7  A    between atoms: S_15  and  C_16
REMARK    8  A    between atoms: C_16  and  C_17
REMARK    9  A    between atoms: N_25  and  C_26
REMARK                            x       y       z     vdW  Elec       q    Type
REMARK                         _______ _______ _______ _____ _____    ______ ____
ROOT
ATOM      1  C   UNL     1       4.045   3.852  17.030  0.00  0.00    +0.000 A 
ATOM      2  N   UNL     1       2.847   3.346  17.265  0.00  0.00    +0.000 NA
ATOM      3  N   UNL     1       2.354   3.901  18.418  0.00  0.00    +0.000 NA
ATOM      4  C   UNL     1       3.248   4.750  18.870  0.00  0.00    +0.000 A 
ATOM      5  N   UNL     1       4.351   4.787  18.023  0.00  0.00    +0.000 N 
ENDROOT
BRANCH   5   6
ATOM      6  C   UNL     1       5.527   5.592  18.135  0.00  0.00    +0.000 A 
ATOM      7  C   UNL     1       5.692   6.731  17.333  0.00  0.00    +0.000 A 
ATOM      8  C   UNL     1       6.876   7.469  17.388  0.00  0.00    +0.000 A 
ATOM      9  C   UNL     1       7.888   7.103  18.271  0.00  0.00    +0.000 A 
ATOM     10  C   UNL     1       7.711   6.001  19.105  0.00  0.00    +0.000 A 
ATOM     11  C   UNL     1       6.541   5.244  19.034  0.00  0.00    +0.000 A 
ENDBRANCH   5   6
BRANCH   1  12
ATOM     12  C   UNL     1       5.023   3.297  16.032  0.00  0.00    +0.000 C 
BRANCH  12  13
ATOM     13  O   UNL     1       4.719   3.808  14.732  0.00  0.00    +0.000 OA
BRANCH  13  19
ATOM     14  C   UNL     1       6.062   3.621  12.616  0.00  0.00    +0.000 A 
ATOM     15  C   UNL     1       7.160   4.120  11.901  0.00  0.00    +0.000 A 
ATOM     16  C   UNL     1       8.027   5.048  12.471  0.00  0.00    +0.000 A 
ATOM     17  C   UNL     1       7.778   5.517  13.753  0.00  0.00    +0.000 A 
ATOM     18  C   UNL     1       6.648   5.074  14.452  0.00  0.00    +0.000 A 
ATOM     19  C   UNL     1       5.766   4.129  13.897  0.00  0.00    +0.000 A 
BRANCH  14  21
ATOM     20  C   UNL     1       4.161   3.193  11.269  0.00  0.00    +0.000 C 
ATOM     21  O   UNL     1       5.243   2.682  12.050  0.00  0.00    +0.000 OA
ENDBRANCH  14  21
ENDBRANCH  13  19
ENDBRANCH  12  13
ENDBRANCH   1  12
BRANCH   4  22
ATOM     22  S   UNL     1       2.934   5.882  20.155  0.00  0.00    +0.000 S 
BRANCH  22  23
ATOM     23  C   UNL     1       2.262   7.318  19.275  0.00  0.00    +0.000 C 
BRANCH  23  24
ATOM     24  C   UNL     1       1.602   8.364  20.175  0.00  0.00    +0.000 C 
ATOM     25  O   UNL     1       1.551   8.245  21.402  0.00  0.00    +0.000 OA
ATOM     26  N   UNL     1       1.082   9.495  19.537  0.00  0.00    +0.000 N 
ATOM     27  C   UNL     1       0.590  10.619  20.335  0.00  0.00    +0.000 C 
ATOM     28  C   UNL     1      -0.884  10.896  20.044  0.00  0.00    +0.000 C 
ATOM     29  C   UNL     1      -1.128  11.071  18.544  0.00  0.00    +0.000 C 
ATOM     30  C   UNL     1      -0.562   9.890  17.754  0.00  0.00    +0.000 C 
ATOM     31  C   UNL     1       0.910   9.650  18.092  0.00  0.00    +0.000 C 
ENDBRANCH  23  24
ENDBRANCH  22  23
ENDBRANCH   4  22
TORSDOF 8
ENDMDL
MODEL 5
REMARK VINA RESULT:      -7.7      2.579      7.970
REMARK  Name = 
REMARK  9 active torsions:
REMARK  status: ('A' for Active; 'I' for Inactive)
REMARK    1  A    between atoms: C_1  and  O_2
REMARK    2  A    between atoms: O_2  and  C_3
REMARK    3  A    between atoms: C_8  and  O_9
REMARK    4  A    between atoms: O_9  and  C_10
REMARK    5  A    between atoms: C_10  and  C_11
REMARK    6  A    between atoms: C_14  and  S_15
REMARK    7  A    between atoms: S_15  and  C_16
REMARK    8  A    between atoms: C_16  and  C_17
REMARK    9  A    between atoms: N_25  and  C_26
REMARK                            x       y       z     vdW  Elec       q    Type
REMARK                         _______ _______ _______ _____ _____    ______ ____
ROOT
ATOM      1  C   UNL     1       3.027   7.189  17.756  0.00  0.00    +0.000 A 
ATOM      2  N   UNL     1       4.084   7.772  17.217  0.00  0.00    +0.000 NA
ATOM      3  N   UNL     1       5.190   7.003  17.474  0.00  0.00    +0.000 NA
ATOM      4  C   UNL     1       4.799   5.952  18.155  0.00  0.00    +0.000 A 
ATOM      5  N   UNL     1       3.423   5.992  18.359  0.00  0.00    +0.000 N 
ENDROOT
BRANCH   5   6
ATOM      6  C   UNL     1       2.598   5.034  19.027  0.00  0.00    +0.000 A 
ATOM      7  C   UNL     1       2.518   5.011  20.426  0.00  0.00    +0.000 A 
ATOM      8  C   UNL     1       1.774   4.024  21.077  0.00  0.00    +0.000 A 
ATOM      9  C   UNL     1       1.072   3.077  20.337  0.00  0.00    +0.000 A 
ATOM     10  C   UNL     1       1.108   3.122  18.945  0.00  0.00    +0.000 A 
ATOM     11  C   UNL     1       1.872   4.090  18.291  0.00  0.00    +0.000 A 
ENDBRANCH   5   6
BRANCH   1  12
ATOM     12  C   UNL     1       1.691   7.852  17.940  0.00  0.00    +0.000 C 
BRANCH  12  13
ATOM     13  O   UNL     1       1.869   9.111  18.592  0.00  0.00    +0.000 OA
BRANCH  13  19
ATOM     14  C   UNL     1       0.081  10.329  19.872  0.00  0.00    +0.000 A 
ATOM     15  C   UNL     1      -0.610  10.411  21.089  0.00  0.00    +0.000 A 
ATOM     16  C   UNL     1      -0.239   9.632  22.181  0.00  0.00    +0.000 A 
ATOM     17  C   UNL     1       0.808   8.731  22.051  0.00  0.00    +0.000 A 
ATOM     18  C   UNL     1       1.464   8.594  20.822  0.00  0.00    +0.000 A 
ATOM     19  C   UNL     1       1.110   9.379  19.710  0.00  0.00    +0.000 A 
BRANCH  14  21
ATOM     20  C   UNL     1      -1.441  10.721  18.100  0.00  0.00    +0.000 C 
ATOM     21  O   UNL     1      -0.278  11.129  18.822  0.00  0.00    +0.000 OA
ENDBRANCH  14  21
ENDBRANCH  13  19
ENDBRANCH  12  13
ENDBRANCH   1  12
BRANCH   4  22
ATOM     22  S   UNL     1       5.816   4.572  18.461  0.00  0.00    +0.000 S 
BRANCH  22  23
ATOM     23  C   UNL     1       6.797   4.447  16.942  0.00  0.00    +0.000 C 
BRANCH  23  24
ATOM     24  C   UNL     1       6.081   3.759  15.778  0.00  0.00    +0.000 C 
ATOM     25  O   UNL     1       5.411   2.734  15.924  0.00  0.00    +0.000 OA
ATOM     26  N   UNL     1       6.193   4.377  14.527  0.00  0.00    +0.000 N 
ATOM     27  C   UNL     1       5.402   3.883  13.399  0.00  0.00    +0.000 C 
ATOM     28  C   UNL     1       6.302   3.438  12.248  0.00  0.00    +0.000 C 
ATOM     29  C   UNL     1       7.285   4.542  11.856  0.00  0.00    +0.000 C 
ATOM     30  C   UNL     1       8.058   5.048  13.075  0.00  0.00    +0.000 C 
ATOM     31  C   UNL     1       7.111   5.469  14.199  0.00  0.00    +0.000 C 
ENDBRANCH  23  24
ENDBRANCH  22  23
ENDBRANCH   4  22
TORSDOF 8
ENDMDL
MODEL 6
REMARK VINA RESULT:      -7.7      0.794      1.092
REMARK  Name = 
REMARK  9 active torsions:
REMARK  status: ('A' for Active; 'I' for Inactive)
REMARK    1  A    between atoms: C_1  and  O_2
REMARK    2  A    between atoms: O_2  and  C_3
REMARK    3  A    between atoms: C_8  and  O_9
REMARK    4  A    between atoms: O_9  and  C_10
REMARK    5  A    between atoms: C_10  and  C_11
REMARK    6  A    between atoms: C_14  and  S_15
REMARK    7  A    between atoms: S_15  and  C_16
REMARK    8  A    between atoms: C_16  and  C_17
REMARK    9  A    between atoms: N_25  and  C_26
REMARK                            x       y       z     vdW  Elec       q    Type
REMARK                         _______ _______ _______ _____ _____    ______ ____
ROOT
ATOM      1  C   UNL     1       3.074   6.341  18.102  0.00  0.00    +0.000 A 
ATOM      2  N   UNL     1       3.139   7.629  17.812  0.00  0.00    +0.000 NA
ATOM      3  N   UNL     1       2.397   8.325  18.732  0.00  0.00    +0.000 NA
ATOM      4  C   UNL     1       1.897   7.460  19.582  0.00  0.00    +0.000 A 
ATOM      5  N   UNL     1       2.302   6.170  19.255  0.00  0.00    +0.000 N 
ENDROOT
BRANCH   5   6
ATOM      6  C   UNL     1       2.004   4.948  19.935  0.00  0.00    +0.000 A 
ATOM      7  C   UNL     1       1.061   4.051  19.414  0.00  0.00    +0.000 A 
ATOM      8  C   UNL     1       0.714   2.898  20.121  0.00  0.00    +0.000 A 
ATOM      9  C   UNL     1       1.334   2.609  21.333  0.00  0.00    +0.000 A 
ATOM     10  C   UNL     1       2.307   3.471  21.835  0.00  0.00    +0.000 A 
ATOM     11  C   UNL     1       2.637   4.639  21.145  0.00  0.00    +0.000 A 
ENDBRANCH   5   6
BRANCH   1  12
ATOM     12  C   UNL     1       3.510   5.237  17.180  0.00  0.00    +0.000 C 
BRANCH  12  13
ATOM     13  O   UNL     1       4.654   4.580  17.731  0.00  0.00    +0.000 OA
BRANCH  13  19
ATOM     14  C   UNL     1       6.496   6.120  16.986  0.00  0.00    +0.000 A 
ATOM     15  C   UNL     1       7.631   6.838  17.389  0.00  0.00    +0.000 A 
ATOM     16  C   UNL     1       8.147   6.703  18.674  0.00  0.00    +0.000 A 
ATOM     17  C   UNL     1       7.506   5.874  19.584  0.00  0.00    +0.000 A 
ATOM     18  C   UNL     1       6.335   5.202  19.212  0.00  0.00    +0.000 A 
ATOM     19  C   UNL     1       5.803   5.318  17.915  0.00  0.00    +0.000 A 
BRANCH  14  21
ATOM     20  C   UNL     1       6.389   5.189  14.811  0.00  0.00    +0.000 C 
ATOM     21  O   UNL     1       6.026   6.241  15.706  0.00  0.00    +0.000 OA
ENDBRANCH  14  21
ENDBRANCH  13  19
ENDBRANCH  12  13
ENDBRANCH   1  12
BRANCH   4  22
ATOM     22  S   UNL     1       1.120   7.917  21.072  0.00  0.00    +0.000 S 
BRANCH  22  23
ATOM     23  C   UNL     1       1.272   9.723  21.072  0.00  0.00    +0.000 C 
BRANCH  23  24
ATOM     24  C   UNL     1       0.170  10.455  20.304  0.00  0.00    +0.000 C 
ATOM     25  O   UNL     1      -0.795   9.867  19.809  0.00  0.00    +0.000 OA
ATOM     26  N   UNL     1       0.289  11.846  20.218  0.00  0.00    +0.000 N 
ATOM     27  C   UNL     1      -0.805  12.636  19.653  0.00  0.00    +0.000 C 
ATOM     28  C   UNL     1      -0.338  13.431  18.435  0.00  0.00    +0.000 C 
ATOM     29  C   UNL     1       0.902  14.266  18.761  0.00  0.00    +0.000 C 
ATOM     30  C   UNL     1       1.999  13.401  19.383  0.00  0.00    +0.000 C 
ATOM     31  C   UNL     1       1.475  12.620  20.589  0.00  0.00    +0.000 C 
ENDBRANCH  23  24
ENDBRANCH  22  23
ENDBRANCH   4  22
TORSDOF 8
ENDMDL
MODEL 7
REMARK VINA RESULT:      -7.7      2.142      7.343
REMARK  Name = 
REMARK  9 active torsions:
REMARK  status: ('A' for Active; 'I' for Inactive)
REMARK    1  A    between atoms: C_1  and  O_2
REMARK    2  A    between atoms: O_2  and  C_3
REMARK    3  A    between atoms: C_8  and  O_9
REMARK    4  A    between atoms: O_9  and  C_10
REMARK    5  A    between atoms: C_10  and  C_11
REMARK    6  A    between atoms: C_14  and  S_15
REMARK    7  A    between atoms: S_15  and  C_16
REMARK    8  A    between atoms: C_16  and  C_17
REMARK    9  A    between atoms: N_25  and  C_26
REMARK                            x       y       z     vdW  Elec       q    Type
REMARK                         _______ _______ _______ _____ _____    ______ ____
ROOT
ATOM      1  C   UNL     1       2.395   7.273  19.048  0.00  0.00    +0.000 A 
ATOM      2  N   UNL     1       3.021   7.957  18.105  0.00  0.00    +0.000 NA
ATOM      3  N   UNL     1       3.702   7.078  17.303  0.00  0.00    +0.000 NA
ATOM      4  C   UNL     1       3.477   5.866  17.753  0.00  0.00    +0.000 A 
ATOM      5  N   UNL     1       2.633   5.909  18.858  0.00  0.00    +0.000 N 
ENDROOT
BRANCH   5   6
ATOM      6  C   UNL     1       2.122   4.817  19.626  0.00  0.00    +0.000 A 
ATOM      7  C   UNL     1       2.525   4.626  20.955  0.00  0.00    +0.000 A 
ATOM      8  C   UNL     1       2.085   3.514  21.676  0.00  0.00    +0.000 A 
ATOM      9  C   UNL     1       1.209   2.605  21.091  0.00  0.00    +0.000 A 
ATOM     10  C   UNL     1       0.766   2.812  19.787  0.00  0.00    +0.000 A 
ATOM     11  C   UNL     1       1.225   3.908  19.053  0.00  0.00    +0.000 A 
ENDBRANCH   5   6
BRANCH   1  12
ATOM     12  C   UNL     1       1.781   7.883  20.277  0.00  0.00    +0.000 C 
BRANCH  12  13
ATOM     13  O   UNL     1       1.184   9.138  19.938  0.00  0.00    +0.000 OA
BRANCH  13  19
ATOM     14  C   UNL     1      -0.326  10.965  20.776  0.00  0.00    +0.000 A 
ATOM     15  C   UNL     1      -1.087  11.422  21.860  0.00  0.00    +0.000 A 
ATOM     16  C   UNL     1      -1.052  10.770  23.089  0.00  0.00    +0.000 A 
ATOM     17  C   UNL     1      -0.282   9.625  23.232  0.00  0.00    +0.000 A 
ATOM     18  C   UNL     1       0.433   9.122  22.137  0.00  0.00    +0.000 A 
ATOM     19  C   UNL     1       0.418   9.772  20.891  0.00  0.00    +0.000 A 
BRANCH  14  21
ATOM     20  C   UNL     1      -1.637  11.829  19.003  0.00  0.00    +0.000 C 
ATOM     21  O   UNL     1      -0.346  11.642  19.586  0.00  0.00    +0.000 OA
ENDBRANCH  14  21
ENDBRANCH  13  19
ENDBRANCH  12  13
ENDBRANCH   1  12
BRANCH   4  22
ATOM     22  S   UNL     1       3.915   4.422  16.884  0.00  0.00    +0.000 S 
BRANCH  22  23
ATOM     23  C   UNL     1       5.021   3.571  18.042  0.00  0.00    +0.000 C 
BRANCH  23  24
ATOM     24  C   UNL     1       5.889   4.501  18.891  0.00  0.00    +0.000 C 
ATOM     25  O   UNL     1       5.731   4.627  20.108  0.00  0.00    +0.000 OA
ATOM     26  N   UNL     1       6.909   5.184  18.220  0.00  0.00    +0.000 N 
ATOM     27  C   UNL     1       7.890   5.957  18.983  0.00  0.00    +0.000 C 
ATOM     28  C   UNL     1       7.874   7.427  18.569  0.00  0.00    +0.000 C 
ATOM     29  C   UNL     1       8.035   7.578  17.056  0.00  0.00    +0.000 C 
ATOM     30  C   UNL     1       7.013   6.721  16.307  0.00  0.00    +0.000 C 
ATOM     31  C   UNL     1       7.064   5.264  16.767  0.00  0.00    +0.000 C 
ENDBRANCH  23  24
ENDBRANCH  22  23
ENDBRANCH   4  22
TORSDOF 8
ENDMDL
MODEL 8
REMARK VINA RESULT:      -7.7      0.998      2.150
REMARK  Name = 
REMARK  9 active torsions:
REMARK  status: ('A' for Active; 'I' for Inactive)
REMARK    1  A    between atoms: C_1  and  O_2
REMARK    2  A    between atoms: O_2  and  C_3
REMARK    3  A    between atoms: C_8  and  O_9
REMARK    4  A    between atoms: O_9  and  C_10
REMARK    5  A    between atoms: C_10  and  C_11
REMARK    6  A    between atoms: C_14  and  S_15
REMARK    7  A    between atoms: S_15  and  C_16
REMARK    8  A    between atoms: C_16  and  C_17
REMARK    9  A    between atoms: N_25  and  C_26
REMARK                            x       y       z     vdW  Elec       q    Type
REMARK                         _______ _______ _______ _____ _____    ______ ____
ROOT
ATOM      1  C   UNL     1       3.269   5.962  18.066  0.00  0.00    +0.000 A 
ATOM      2  N   UNL     1       3.451   7.204  17.652  0.00  0.00    +0.000 NA
ATOM      3  N   UNL     1       2.745   8.048  18.470  0.00  0.00    +0.000 NA
ATOM      4  C   UNL     1       2.148   7.317  19.382  0.00  0.00    +0.000 A 
ATOM      5  N   UNL     1       2.451   5.972  19.200  0.00  0.00    +0.000 N 
ENDROOT
BRANCH   5   6
ATOM      6  C   UNL     1       2.031   4.854  19.985  0.00  0.00    +0.000 A 
ATOM      7  C   UNL     1       2.660   4.560  21.204  0.00  0.00    +0.000 A 
ATOM      8  C   UNL     1       2.300   3.422  21.929  0.00  0.00    +0.000 A 
ATOM      9  C   UNL     1       1.285   2.591  21.466  0.00  0.00    +0.000 A 
ATOM     10  C   UNL     1       0.623   2.902  20.281  0.00  0.00    +0.000 A 
ATOM     11  C   UNL     1       0.997   4.023  19.538  0.00  0.00    +0.000 A 
ENDBRANCH   5   6
BRANCH   1  12
ATOM     12  C   UNL     1       3.638   4.739  17.274  0.00  0.00    +0.000 C 
BRANCH  12  13
ATOM     13  O   UNL     1       5.047   4.518  17.367  0.00  0.00    +0.000 OA
BRANCH  13  19
ATOM     14  C   UNL     1       7.043   5.262  16.032  0.00  0.00    +0.000 A 
ATOM     15  C   UNL     1       7.675   5.210  14.782  0.00  0.00    +0.000 A 
ATOM     16  C   UNL     1       7.057   4.615  13.687  0.00  0.00    +0.000 A 
ATOM     17  C   UNL     1       5.809   4.027  13.844  0.00  0.00    +0.000 A 
ATOM     18  C   UNL     1       5.196   4.017  15.103  0.00  0.00    +0.000 A 
ATOM     19  C   UNL     1       5.800   4.621  16.219  0.00  0.00    +0.000 A 
BRANCH  14  21
ATOM     20  C   UNL     1       7.217   7.216  17.359  0.00  0.00    +0.000 C 
ATOM     21  O   UNL     1       7.654   5.884  17.087  0.00  0.00    +0.000 OA
ENDBRANCH  14  21
ENDBRANCH  13  19
ENDBRANCH  12  13
ENDBRANCH   1  12
BRANCH   4  22
ATOM     22  S   UNL     1       1.368   7.985  20.789  0.00  0.00    +0.000 S 
BRANCH  22  23
ATOM     23  C   UNL     1       0.508   9.437  20.125  0.00  0.00    +0.000 C 
BRANCH  23  24
ATOM     24  C   UNL     1       0.747  10.730  20.907  0.00  0.00    +0.000 C 
ATOM     25  O   UNL     1       0.838  10.753  22.137  0.00  0.00    +0.000 OA
ATOM     26  N   UNL     1       0.895  11.896  20.149  0.00  0.00    +0.000 N 
ATOM     27  C   UNL     1       1.295  13.142  20.804  0.00  0.00    +0.000 C 
ATOM     28  C   UNL     1       0.243  14.231  20.605  0.00  0.00    +0.000 C 
ATOM     29  C   UNL     1      -0.095  14.411  19.124  0.00  0.00    +0.000 C 
ATOM     30  C   UNL     1      -0.469  13.075  18.480  0.00  0.00    +0.000 C 
ATOM     31  C   UNL     1       0.612  12.021  18.719  0.00  0.00    +0.000 C 
ENDBRANCH  23  24
ENDBRANCH  22  23
ENDBRANCH   4  22
TORSDOF 8
ENDMDL
MODEL 9
REMARK VINA RESULT:      -7.6      2.217      8.203
REMARK  Name = 
REMARK  9 active torsions:
REMARK  status: ('A' for Active; 'I' for Inactive)
REMARK    1  A    between atoms: C_1  and  O_2
REMARK    2  A    between atoms: O_2  and  C_3
REMARK    3  A    between atoms: C_8  and  O_9
REMARK    4  A    between atoms: O_9  and  C_10
REMARK    5  A    between atoms: C_10  and  C_11
REMARK    6  A    between atoms: C_14  and  S_15
REMARK    7  A    between atoms: S_15  and  C_16
REMARK    8  A    between atoms: C_16  and  C_17
REMARK    9  A    between atoms: N_25  and  C_26
REMARK                            x       y       z     vdW  Elec       q    Type
REMARK                         _______ _______ _______ _____ _____    ______ ____
ROOT
ATOM      1  C   UNL     1       2.333   7.273  18.908  0.00  0.00    +0.000 A 
ATOM      2  N   UNL     1       3.154   7.977  18.148  0.00  0.00    +0.000 NA
ATOM      3  N   UNL     1       4.217   7.184  17.797  0.00  0.00    +0.000 NA
ATOM      4  C   UNL     1       4.030   6.001  18.335  0.00  0.00    +0.000 A 
ATOM      5  N   UNL     1       2.835   5.976  19.046  0.00  0.00    +0.000 N 
ENDROOT
BRANCH   5   6
ATOM      6  C   UNL     1       2.249   4.881  19.754  0.00  0.00    +0.000 A 
ATOM      7  C   UNL     1       2.562   4.652  21.102  0.00  0.00    +0.000 A 
ATOM      8  C   UNL     1       2.049   3.536  21.768  0.00  0.00    +0.000 A 
ATOM      9  C   UNL     1       1.189   2.663  21.108  0.00  0.00    +0.000 A 
ATOM     10  C   UNL     1       0.835   2.911  19.783  0.00  0.00    +0.000 A 
ATOM     11  C   UNL     1       1.367   4.009  19.105  0.00  0.00    +0.000 A 
ENDBRANCH   5   6
BRANCH   1  12
ATOM     12  C   UNL     1       1.212   7.860  19.721  0.00  0.00    +0.000 C 
BRANCH  12  13
ATOM     13  O   UNL     1       1.355   9.281  19.773  0.00  0.00    +0.000 OA
BRANCH  13  19
ATOM     14  C   UNL     1       0.101  11.280  20.638  0.00  0.00    +0.000 A 
ATOM     15  C   UNL     1      -0.662  11.790  21.698  0.00  0.00    +0.000 A 
ATOM     16  C   UNL     1      -0.835  11.066  22.873  0.00  0.00    +0.000 A 
ATOM     17  C   UNL     1      -0.276   9.800  22.983  0.00  0.00    +0.000 A 
ATOM     18  C   UNL     1       0.434   9.254  21.906  0.00  0.00    +0.000 A 
ATOM     19  C   UNL     1       0.628   9.975  20.715  0.00  0.00    +0.000 A 
BRANCH  14  21
ATOM     20  C   UNL     1      -0.816  12.840  19.109  0.00  0.00    +0.000 C 
ATOM     21  O   UNL     1       0.289  12.025  19.505  0.00  0.00    +0.000 OA
ENDBRANCH  14  21
ENDBRANCH  13  19
ENDBRANCH  12  13
ENDBRANCH   1  12
BRANCH   4  22
ATOM     22  S   UNL     1       4.984   4.602  17.931  0.00  0.00    +0.000 S 
BRANCH  22  23
ATOM     23  C   UNL     1       4.869   4.540  16.123  0.00  0.00    +0.000 C 
BRANCH  23  24
ATOM     24  C   UNL     1       6.019   5.233  15.388  0.00  0.00    +0.000 C 
ATOM     25  O   UNL     1       6.433   6.349  15.709  0.00  0.00    +0.000 OA
ATOM     26  N   UNL     1       6.611   4.516  14.343  0.00  0.00    +0.000 N 
ATOM     27  C   UNL     1       7.823   5.030  13.704  0.00  0.00    +0.000 C 
ATOM     28  C   UNL     1       7.601   5.259  12.210  0.00  0.00    +0.000 C 
ATOM     29  C   UNL     1       7.050   4.003  11.533  0.00  0.00    +0.000 C 
ATOM     30  C   UNL     1       5.809   3.486  12.262  0.00  0.00    +0.000 C 
ATOM     31  C   UNL     1       6.083   3.285  13.752  0.00  0.00    +0.000 C 
ENDBRANCH  23  24
ENDBRANCH  22  23
ENDBRANCH   4  22
TORSDOF 8
ENDMDL
