MODEL 1
REMARK VINA RESULT:      -8.1      0.000      0.000
REMARK  Name = 
REMARK  8 active torsions:
REMARK  status: ('A' for Active; 'I' for Inactive)
REMARK    1  A    between atoms: C_1  and  C_2
REMARK    2  A    between atoms: C_7  and  C_8
REMARK    3  A    between atoms: N_10  and  C_11
REMARK    4  A    between atoms: C_11  and  C_12
REMARK    5  A    between atoms: C_15  and  S_16
REMARK    6  A    between atoms: S_16  and  C_19
REMARK    7  A    between atoms: C_25  and  N_26
REMARK    8  A    between atoms: C_28  and  C_29
REMARK                            x       y       z     vdW  Elec       q    Type
REMARK                         _______ _______ _______ _____ _____    ______ ____
ROOT
ATOM      1  C   UNL     1       0.410  10.339  18.820  0.00  0.00    +0.000 C 
ATOM      2  O   UNL     1       1.090  10.743  19.765  0.00  0.00    +0.000 OA
ATOM      3  N   UNL     1       0.931   9.471  17.870  0.00  0.00    +0.000 N 
ATOM      4  H   UNL     1       0.317   9.197  17.114  0.00  0.00    +0.000 HD
ENDROOT
BRANCH   1  11
ATOM      5  C   UNL     1      -6.814  12.790  18.571  0.00  0.00    +0.000 C 
ATOM      6  C   UNL     1      -5.476  12.149  18.329  0.00  0.00    +0.000 A 
ATOM      7  N   UNL     1      -5.416  11.423  17.191  0.00  0.00    +0.000 NA
ATOM      8  N   UNL     1      -4.318  10.817  16.855  0.00  0.00    +0.000 NA
ATOM      9  C   UNL     1      -3.246  10.931  17.660  0.00  0.00    +0.000 A 
ATOM     10  S   UNL     1      -1.818  10.150  17.223  0.00  0.00    +0.000 S 
ATOM     11  C   UNL     1      -0.993  10.717  18.612  0.00  0.00    +0.000 A 
ATOM     12  C   UNL     1      -1.837  11.496  19.400  0.00  0.00    +0.000 A 
ATOM     13  C   UNL     1      -3.181  11.644  18.851  0.00  0.00    +0.000 A 
ATOM     14  C   UNL     1      -4.391  12.307  19.225  0.00  0.00    +0.000 A 
ATOM     15  C   UNL     1      -4.611  13.145  20.458  0.00  0.00    +0.000 C 
BRANCH  12  16
ATOM     16  N   UNL     1      -1.405  12.048  20.555  0.00  0.00    +0.000 N 
ATOM     17  H   UNL     1      -1.542  13.044  20.746  0.00  0.00    +0.000 HD
ATOM     18  H   UNL     1      -0.893  11.572  21.283  0.00  0.00    +0.000 HD
ENDBRANCH  12  16
ENDBRANCH   1  11
BRANCH   3  19
ATOM     19  C   UNL     1       2.249   8.878  17.909  0.00  0.00    +0.000 C 
BRANCH  19  20
ATOM     20  C   UNL     1       2.257   7.498  18.524  0.00  0.00    +0.000 A 
ATOM     21  C   UNL     1       2.117   7.349  19.913  0.00  0.00    +0.000 A 
ATOM     22  C   UNL     1       2.089   6.081  20.499  0.00  0.00    +0.000 A 
ATOM     23  C   UNL     1       2.180   4.944  19.696  0.00  0.00    +0.000 A 
ATOM     24  C   UNL     1       2.337   5.067  18.312  0.00  0.00    +0.000 A 
ATOM     25  C   UNL     1       2.368   6.342  17.731  0.00  0.00    +0.000 A 
BRANCH  23  26
ATOM     26  S   UNL     1       2.222   3.329  20.467  0.00  0.00    +0.000 S 
ATOM     27  O   UNL     1       2.147   3.572  21.901  0.00  0.00    +0.000 OA
ATOM     28  O   UNL     1       1.166   2.556  19.825  0.00  0.00    +0.000 OA
BRANCH  26  29
ATOM     29  C   UNL     1       3.864   2.675  20.011  0.00  0.00    +0.000 C 
ATOM     30  F   UNL     1       4.765   3.656  19.711  0.00  0.00    +0.000 F 
ATOM     31  F   UNL     1       4.429   1.939  21.012  0.00  0.00    +0.000 F 
ATOM     32  F   UNL     1       3.818   1.858  18.920  0.00  0.00    +0.000 F 
ENDBRANCH  26  29
ENDBRANCH  23  26
ENDBRANCH  19  20
ENDBRANCH   3  19
TORSDOF 6
ENDMDL
MODEL 2
REMARK VINA RESULT:      -8.1      1.337      1.597
REMARK  Name = 
REMARK  8 active torsions:
REMARK  status: ('A' for Active; 'I' for Inactive)
REMARK    1  A    between atoms: C_1  and  C_2
REMARK    2  A    between atoms: C_7  and  C_8
REMARK    3  A    between atoms: N_10  and  C_11
REMARK    4  A    between atoms: C_11  and  C_12
REMARK    5  A    between atoms: C_15  and  S_16
REMARK    6  A    between atoms: S_16  and  C_19
REMARK    7  A    between atoms: C_25  and  N_26
REMARK    8  A    between atoms: C_28  and  C_29
REMARK                            x       y       z     vdW  Elec       q    Type
REMARK                         _______ _______ _______ _____ _____    ______ ____
ROOT
ATOM      1  C   UNL     1       0.301  10.943  18.788  0.00  0.00    +0.000 C 
ATOM      2  O   UNL     1       1.010  11.525  19.611  0.00  0.00    +0.000 OA
ATOM      3  N   UNL     1       0.827  10.003  17.914  0.00  0.00    +0.000 N 
ATOM      4  H   UNL     1       0.187   9.580  17.255  0.00  0.00    +0.000 HD
ENDROOT
BRANCH   1  11
ATOM      5  C   UNL     1      -7.146  12.608  18.946  0.00  0.00    +0.000 C 
ATOM      6  C   UNL     1      -5.762  12.120  18.623  0.00  0.00    +0.000 A 
ATOM      7  N   UNL     1      -5.681  11.433  17.463  0.00  0.00    +0.000 NA
ATOM      8  N   UNL     1      -4.542  10.957  17.059  0.00  0.00    +0.000 NA
ATOM      9  C   UNL     1      -3.450  11.166  17.816  0.00  0.00    +0.000 A 
ATOM     10  S   UNL     1      -1.971  10.554  17.291  0.00  0.00    +0.000 S 
ATOM     11  C   UNL     1      -1.143  11.173  18.656  0.00  0.00    +0.000 A 
ATOM     12  C   UNL     1      -2.026  11.838  19.505  0.00  0.00    +0.000 A 
ATOM     13  C   UNL     1      -3.403  11.853  19.023  0.00  0.00    +0.000 A 
ATOM     14  C   UNL     1      -4.657  12.373  19.472  0.00  0.00    +0.000 A 
ATOM     15  C   UNL     1      -4.903  13.153  20.738  0.00  0.00    +0.000 C 
BRANCH  12  16
ATOM     16  N   UNL     1      -1.598  12.405  20.654  0.00  0.00    +0.000 N 
ATOM     17  H   UNL     1      -2.011  13.277  20.997  0.00  0.00    +0.000 HD
ATOM     18  H   UNL     1      -0.841  12.071  21.233  0.00  0.00    +0.000 HD
ENDBRANCH  12  16
ENDBRANCH   1  11
BRANCH   3  19
ATOM     19  C   UNL     1       2.194   9.531  17.912  0.00  0.00    +0.000 C 
BRANCH  19  20
ATOM     20  C   UNL     1       2.335   8.130  18.461  0.00  0.00    +0.000 A 
ATOM     21  C   UNL     1       1.828   7.820  19.732  0.00  0.00    +0.000 A 
ATOM     22  C   UNL     1       1.919   6.524  20.245  0.00  0.00    +0.000 A 
ATOM     23  C   UNL     1       2.501   5.515  19.478  0.00  0.00    +0.000 A 
ATOM     24  C   UNL     1       3.028   5.801  18.216  0.00  0.00    +0.000 A 
ATOM     25  C   UNL     1       2.937   7.105  17.709  0.00  0.00    +0.000 A 
BRANCH  23  26
ATOM     26  S   UNL     1       2.680   3.877  20.178  0.00  0.00    +0.000 S 
ATOM     27  O   UNL     1       3.994   3.408  19.759  0.00  0.00    +0.000 OA
ATOM     28  O   UNL     1       2.402   4.020  21.601  0.00  0.00    +0.000 OA
BRANCH  26  29
ATOM     29  C   UNL     1       1.364   2.912  19.360  0.00  0.00    +0.000 C 
ATOM     30  F   UNL     1       1.642   1.577  19.296  0.00  0.00    +0.000 F 
ATOM     31  F   UNL     1       0.164   3.017  20.001  0.00  0.00    +0.000 F 
ATOM     32  F   UNL     1       1.143   3.314  18.074  0.00  0.00    +0.000 F 
ENDBRANCH  26  29
ENDBRANCH  23  26
ENDBRANCH  19  20
ENDBRANCH   3  19
TORSDOF 6
ENDMDL
MODEL 3
REMARK VINA RESULT:      -8.1      2.627      3.673
REMARK  Name = 
REMARK  8 active torsions:
REMARK  status: ('A' for Active; 'I' for Inactive)
REMARK    1  A    between atoms: C_1  and  C_2
REMARK    2  A    between atoms: C_7  and  C_8
REMARK    3  A    between atoms: N_10  and  C_11
REMARK    4  A    between atoms: C_11  and  C_12
REMARK    5  A    between atoms: C_15  and  S_16
REMARK    6  A    between atoms: S_16  and  C_19
REMARK    7  A    between atoms: C_25  and  N_26
REMARK    8  A    between atoms: C_28  and  C_29
REMARK                            x       y       z     vdW  Elec       q    Type
REMARK                         _______ _______ _______ _____ _____    ______ ____
ROOT
ATOM      1  C   UNL     1      -1.187  12.212  19.317  0.00  0.00    +0.000 C 
ATOM      2  O   UNL     1      -1.109  12.981  18.357  0.00  0.00    +0.000 OA
ATOM      3  N   UNL     1      -0.283  11.175  19.490  0.00  0.00    +0.000 N 
ATOM      4  H   UNL     1      -0.421  10.575  20.293  0.00  0.00    +0.000 HD
ENDROOT
BRANCH   1  11
ATOM      5  C   UNL     1      -7.163  12.936  24.010  0.00  0.00    +0.000 C 
ATOM      6  C   UNL     1      -5.813  12.749  23.377  0.00  0.00    +0.000 A 
ATOM      7  N   UNL     1      -4.822  12.508  24.264  0.00  0.00    +0.000 NA
ATOM      8  N   UNL     1      -3.604  12.322  23.855  0.00  0.00    +0.000 NA
ATOM      9  C   UNL     1      -3.353  12.371  22.534  0.00  0.00    +0.000 A 
ATOM     10  S   UNL     1      -1.773  12.126  22.000  0.00  0.00    +0.000 S 
ATOM     11  C   UNL     1      -2.217  12.319  20.358  0.00  0.00    +0.000 A 
ATOM     12  C   UNL     1      -3.581  12.581  20.246  0.00  0.00    +0.000 A 
ATOM     13  C   UNL     1      -4.280  12.610  21.527  0.00  0.00    +0.000 A 
ATOM     14  C   UNL     1      -5.621  12.820  21.976  0.00  0.00    +0.000 A 
ATOM     15  C   UNL     1      -6.823  13.100  21.112  0.00  0.00    +0.000 C 
BRANCH  12  16
ATOM     16  N   UNL     1      -4.159  12.777  19.041  0.00  0.00    +0.000 N 
ATOM     17  H   UNL     1      -3.593  12.961  18.208  0.00  0.00    +0.000 HD
ATOM     18  H   UNL     1      -5.152  12.805  18.858  0.00  0.00    +0.000 HD
ENDBRANCH  12  16
ENDBRANCH   1  11
BRANCH   3  19
ATOM     19  C   UNL     1       0.874  10.922  18.660  0.00  0.00    +0.000 C 
BRANCH  19  20
ATOM     20  C   UNL     1       1.455   9.542  18.864  0.00  0.00    +0.000 A 
ATOM     21  C   UNL     1       1.308   8.894  20.100  0.00  0.00    +0.000 A 
ATOM     22  C   UNL     1       1.810   7.605  20.299  0.00  0.00    +0.000 A 
ATOM     23  C   UNL     1       2.448   6.941  19.252  0.00  0.00    +0.000 A 
ATOM     24  C   UNL     1       2.621   7.571  18.017  0.00  0.00    +0.000 A 
ATOM     25  C   UNL     1       2.119   8.865  17.825  0.00  0.00    +0.000 A 
BRANCH  23  26
ATOM     26  S   UNL     1       3.154   5.322  19.545  0.00  0.00    +0.000 S 
ATOM     27  O   UNL     1       4.598   5.510  19.530  0.00  0.00    +0.000 OA
ATOM     28  O   UNL     1       2.518   4.825  20.758  0.00  0.00    +0.000 OA
BRANCH  26  29
ATOM     29  C   UNL     1       2.618   4.350  18.095  0.00  0.00    +0.000 C 
ATOM     30  F   UNL     1       3.402   4.553  16.996  0.00  0.00    +0.000 F 
ATOM     31  F   UNL     1       2.641   3.005  18.330  0.00  0.00    +0.000 F 
ATOM     32  F   UNL     1       1.343   4.645  17.709  0.00  0.00    +0.000 F 
ENDBRANCH  26  29
ENDBRANCH  23  26
ENDBRANCH  19  20
ENDBRANCH   3  19
TORSDOF 6
ENDMDL
MODEL 4
REMARK VINA RESULT:      -8.0      1.292      1.793
REMARK  Name = 
REMARK  8 active torsions:
REMARK  status: ('A' for Active; 'I' for Inactive)
REMARK    1  A    between atoms: C_1  and  C_2
REMARK    2  A    between atoms: C_7  and  C_8
REMARK    3  A    between atoms: N_10  and  C_11
REMARK    4  A    between atoms: C_11  and  C_12
REMARK    5  A    between atoms: C_15  and  S_16
REMARK    6  A    between atoms: S_16  and  C_19
REMARK    7  A    between atoms: C_25  and  N_26
REMARK    8  A    between atoms: C_28  and  C_29
REMARK                            x       y       z     vdW  Elec       q    Type
REMARK                         _______ _______ _______ _____ _____    ______ ____
ROOT
ATOM      1  C   UNL     1       0.419  10.715  18.863  0.00  0.00    +0.000 C 
ATOM      2  O   UNL     1       1.109  11.155  19.784  0.00  0.00    +0.000 OA
ATOM      3  N   UNL     1       0.954   9.884  17.889  0.00  0.00    +0.000 N 
ATOM      4  H   UNL     1       0.329   9.577  17.155  0.00  0.00    +0.000 HD
ENDROOT
BRANCH   1  11
ATOM      5  C   UNL     1      -6.934  12.764  18.884  0.00  0.00    +0.000 C 
ATOM      6  C   UNL     1      -5.575  12.190  18.596  0.00  0.00    +0.000 A 
ATOM      7  N   UNL     1      -5.525  11.439  17.474  0.00  0.00    +0.000 NA
ATOM      8  N   UNL     1      -4.410  10.886  17.103  0.00  0.00    +0.000 NA
ATOM      9  C   UNL     1      -3.312  11.079  17.856  0.00  0.00    +0.000 A 
ATOM     10  S   UNL     1      -1.863  10.365  17.373  0.00  0.00    +0.000 S 
ATOM     11  C   UNL     1      -1.011  11.012  18.709  0.00  0.00    +0.000 A 
ATOM     12  C   UNL     1      -1.862  11.764  19.517  0.00  0.00    +0.000 A 
ATOM     13  C   UNL     1      -3.235  11.824  19.025  0.00  0.00    +0.000 A 
ATOM     14  C   UNL     1      -4.462  12.430  19.439  0.00  0.00    +0.000 A 
ATOM     15  C   UNL     1      -4.673  13.286  20.661  0.00  0.00    +0.000 C 
BRANCH  12  16
ATOM     16  N   UNL     1      -1.411  12.368  20.638  0.00  0.00    +0.000 N 
ATOM     17  H   UNL     1      -2.051  12.614  21.398  0.00  0.00    +0.000 HD
ATOM     18  H   UNL     1      -0.460  12.661  20.810  0.00  0.00    +0.000 HD
ENDBRANCH  12  16
ENDBRANCH   1  11
BRANCH   3  19
ATOM     19  C   UNL     1       2.305   9.370  17.875  0.00  0.00    +0.000 C 
BRANCH  19  20
ATOM     20  C   UNL     1       2.412   7.978  18.456  0.00  0.00    +0.000 A 
ATOM     21  C   UNL     1       3.086   6.972  17.747  0.00  0.00    +0.000 A 
ATOM     22  C   UNL     1       3.223   5.688  18.280  0.00  0.00    +0.000 A 
ATOM     23  C   UNL     1       2.706   5.403  19.543  0.00  0.00    +0.000 A 
ATOM     24  C   UNL     1       2.017   6.384  20.262  0.00  0.00    +0.000 A 
ATOM     25  C   UNL     1       1.878   7.668  19.719  0.00  0.00    +0.000 A 
BRANCH  23  26
ATOM     26  S   UNL     1       2.822   3.734  20.181  0.00  0.00    +0.000 S 
ATOM     27  O   UNL     1       4.134   3.246  19.777  0.00  0.00    +0.000 OA
ATOM     28  O   UNL     1       2.509   3.828  21.600  0.00  0.00    +0.000 OA
BRANCH  26  29
ATOM     29  C   UNL     1       1.503   2.840  19.290  0.00  0.00    +0.000 C 
ATOM     30  F   UNL     1       0.252   3.138  19.748  0.00  0.00    +0.000 F 
ATOM     31  F   UNL     1       1.492   3.120  17.954  0.00  0.00    +0.000 F 
ATOM     32  F   UNL     1       1.629   1.485  19.392  0.00  0.00    +0.000 F 
ENDBRANCH  26  29
ENDBRANCH  23  26
ENDBRANCH  19  20
ENDBRANCH   3  19
TORSDOF 6
ENDMDL
MODEL 5
REMARK VINA RESULT:      -8.0      1.410      2.063
REMARK  Name = 
REMARK  8 active torsions:
REMARK  status: ('A' for Active; 'I' for Inactive)
REMARK    1  A    between atoms: C_1  and  C_2
REMARK    2  A    between atoms: C_7  and  C_8
REMARK    3  A    between atoms: N_10  and  C_11
REMARK    4  A    between atoms: C_11  and  C_12
REMARK    5  A    between atoms: C_15  and  S_16
REMARK    6  A    between atoms: S_16  and  C_19
REMARK    7  A    between atoms: C_25  and  N_26
REMARK    8  A    between atoms: C_28  and  C_29
REMARK                            x       y       z     vdW  Elec       q    Type
REMARK                         _______ _______ _______ _____ _____    ______ ____
ROOT
ATOM      1  C   UNL     1       1.097  10.631  18.435  0.00  0.00    +0.000 C 
ATOM      2  O   UNL     1       2.050  11.380  18.212  0.00  0.00    +0.000 OA
ATOM      3  N   UNL     1       1.214   9.254  18.323  0.00  0.00    +0.000 N 
ATOM      4  H   UNL     1       0.384   8.706  18.505  0.00  0.00    +0.000 HD
ENDROOT
BRANCH   1  11
ATOM      5  C   UNL     1      -6.112  12.803  19.693  0.00  0.00    +0.000 C 
ATOM      6  C   UNL     1      -4.638  12.512  19.755  0.00  0.00    +0.000 A 
ATOM      7  N   UNL     1      -4.051  12.905  20.907  0.00  0.00    +0.000 NA
ATOM      8  N   UNL     1      -2.781  12.711  21.096  0.00  0.00    +0.000 NA
ATOM      9  C   UNL     1      -2.068  12.110  20.127  0.00  0.00    +0.000 A 
ATOM     10  S   UNL     1      -0.421  11.853  20.373  0.00  0.00    +0.000 S 
ATOM     11  C   UNL     1      -0.230  11.110  18.842  0.00  0.00    +0.000 A 
ATOM     12  C   UNL     1      -1.443  11.080  18.157  0.00  0.00    +0.000 A 
ATOM     13  C   UNL     1      -2.553  11.663  18.904  0.00  0.00    +0.000 A 
ATOM     14  C   UNL     1      -3.950  11.881  18.690  0.00  0.00    +0.000 A 
ATOM     15  C   UNL     1      -4.740  11.503  17.464  0.00  0.00    +0.000 C 
BRANCH  12  16
ATOM     16  N   UNL     1      -1.535  10.545  16.920  0.00  0.00    +0.000 N 
ATOM     17  H   UNL     1      -0.997  10.929  16.138  0.00  0.00    +0.000 HD
ATOM     18  H   UNL     1      -2.142   9.785  16.647  0.00  0.00    +0.000 HD
ENDBRANCH  12  16
ENDBRANCH   1  11
BRANCH   3  19
ATOM     19  C   UNL     1       2.436   8.536  18.034  0.00  0.00    +0.000 C 
BRANCH  19  20
ATOM     20  C   UNL     1       2.462   7.149  18.634  0.00  0.00    +0.000 A 
ATOM     21  C   UNL     1       2.161   6.968  19.993  0.00  0.00    +0.000 A 
ATOM     22  C   UNL     1       2.148   5.691  20.560  0.00  0.00    +0.000 A 
ATOM     23  C   UNL     1       2.415   4.576  19.765  0.00  0.00    +0.000 A 
ATOM     24  C   UNL     1       2.732   4.733  18.413  0.00  0.00    +0.000 A 
ATOM     25  C   UNL     1       2.748   6.017  17.851  0.00  0.00    +0.000 A 
BRANCH  23  26
ATOM     26  S   UNL     1       2.470   2.955  20.522  0.00  0.00    +0.000 S 
ATOM     27  O   UNL     1       2.357   3.182  21.956  0.00  0.00    +0.000 OA
ATOM     28  O   UNL     1       1.445   2.167  19.848  0.00  0.00    +0.000 OA
BRANCH  26  29
ATOM     29  C   UNL     1       4.135   2.338  20.099  0.00  0.00    +0.000 C 
ATOM     30  F   UNL     1       4.128   1.444  19.067  0.00  0.00    +0.000 F 
ATOM     31  F   UNL     1       4.983   3.340  19.724  0.00  0.00    +0.000 F 
ATOM     32  F   UNL     1       4.739   1.703  21.145  0.00  0.00    +0.000 F 
ENDBRANCH  26  29
ENDBRANCH  23  26
ENDBRANCH  19  20
ENDBRANCH   3  19
TORSDOF 6
ENDMDL
MODEL 6
REMARK VINA RESULT:      -8.0      2.274      3.194
REMARK  Name = 
REMARK  8 active torsions:
REMARK  status: ('A' for Active; 'I' for Inactive)
REMARK    1  A    between atoms: C_1  and  C_2
REMARK    2  A    between atoms: C_7  and  C_8
REMARK    3  A    between atoms: N_10  and  C_11
REMARK    4  A    between atoms: C_11  and  C_12
REMARK    5  A    between atoms: C_15  and  S_16
REMARK    6  A    between atoms: S_16  and  C_19
REMARK    7  A    between atoms: C_25  and  N_26
REMARK    8  A    between atoms: C_28  and  C_29
REMARK                            x       y       z     vdW  Elec       q    Type
REMARK                         _______ _______ _______ _____ _____    ______ ____
ROOT
ATOM      1  C   UNL     1       1.015  11.064  18.996  0.00  0.00    +0.000 C 
ATOM      2  O   UNL     1       1.736  11.920  18.482  0.00  0.00    +0.000 OA
ATOM      3  N   UNL     1       1.180   9.715  18.718  0.00  0.00    +0.000 N 
ATOM      4  H   UNL     1       0.539   9.072  19.165  0.00  0.00    +0.000 HD
ENDROOT
BRANCH   1  11
ATOM      5  C   UNL     1      -5.008  13.156  23.191  0.00  0.00    +0.000 C 
ATOM      6  C   UNL     1      -3.717  12.601  22.658  0.00  0.00    +0.000 A 
ATOM      7  N   UNL     1      -3.003  11.907  23.570  0.00  0.00    +0.000 NA
ATOM      8  N   UNL     1      -1.867  11.368  23.244  0.00  0.00    +0.000 NA
ATOM      9  C   UNL     1      -1.424  11.512  21.982  0.00  0.00    +0.000 A 
ATOM     10  S   UNL     1       0.047  10.809  21.555  0.00  0.00    +0.000 S 
ATOM     11  C   UNL     1      -0.062  11.375  19.943  0.00  0.00    +0.000 A 
ATOM     12  C   UNL     1      -1.232  12.110  19.760  0.00  0.00    +0.000 A 
ATOM     13  C   UNL     1      -2.062  12.199  20.957  0.00  0.00    +0.000 A 
ATOM     14  C   UNL     1      -3.310  12.799  21.316  0.00  0.00    +0.000 A 
ATOM     15  C   UNL     1      -4.212  13.600  20.414  0.00  0.00    +0.000 C 
BRANCH  12  16
ATOM     16  N   UNL     1      -1.531  12.663  18.564  0.00  0.00    +0.000 N 
ATOM     17  H   UNL     1      -1.774  13.655  18.489  0.00  0.00    +0.000 HD
ATOM     18  H   UNL     1      -1.585  12.174  17.683  0.00  0.00    +0.000 HD
ENDBRANCH  12  16
ENDBRANCH   1  11
BRANCH   3  19
ATOM     19  C   UNL     1       2.229   9.149  17.898  0.00  0.00    +0.000 C 
BRANCH  19  20
ATOM     20  C   UNL     1       2.589   7.736  18.295  0.00  0.00    +0.000 A 
ATOM     21  C   UNL     1       3.593   7.046  17.598  0.00  0.00    +0.000 A 
ATOM     22  C   UNL     1       3.963   5.750  17.968  0.00  0.00    +0.000 A 
ATOM     23  C   UNL     1       3.346   5.138  19.059  0.00  0.00    +0.000 A 
ATOM     24  C   UNL     1       2.332   5.799  19.759  0.00  0.00    +0.000 A 
ATOM     25  C   UNL     1       1.962   7.096  19.379  0.00  0.00    +0.000 A 
BRANCH  23  26
ATOM     26  S   UNL     1       3.776   3.451  19.475  0.00  0.00    +0.000 S 
ATOM     27  O   UNL     1       5.223   3.364  19.333  0.00  0.00    +0.000 OA
ATOM     28  O   UNL     1       3.177   3.198  20.779  0.00  0.00    +0.000 OA
BRANCH  26  29
ATOM     29  C   UNL     1       2.944   2.464  18.184  0.00  0.00    +0.000 C 
ATOM     30  F   UNL     1       3.680   1.389  17.776  0.00  0.00    +0.000 F 
ATOM     31  F   UNL     1       1.745   1.963  18.601  0.00  0.00    +0.000 F 
ATOM     32  F   UNL     1       2.680   3.190  17.059  0.00  0.00    +0.000 F 
ENDBRANCH  26  29
ENDBRANCH  23  26
ENDBRANCH  19  20
ENDBRANCH   3  19
TORSDOF 6
ENDMDL
MODEL 7
REMARK VINA RESULT:      -7.9      2.180      3.324
REMARK  Name = 
REMARK  8 active torsions:
REMARK  status: ('A' for Active; 'I' for Inactive)
REMARK    1  A    between atoms: C_1  and  C_2
REMARK    2  A    between atoms: C_7  and  C_8
REMARK    3  A    between atoms: N_10  and  C_11
REMARK    4  A    between atoms: C_11  and  C_12
REMARK    5  A    between atoms: C_15  and  S_16
REMARK    6  A    between atoms: S_16  and  C_19
REMARK    7  A    between atoms: C_25  and  N_26
REMARK    8  A    between atoms: C_28  and  C_29
REMARK                            x       y       z     vdW  Elec       q    Type
REMARK                         _______ _______ _______ _____ _____    ______ ____
ROOT
ATOM      1  C   UNL     1      -0.066  10.255  18.567  0.00  0.00    +0.000 C 
ATOM      2  O   UNL     1      -0.669   9.890  17.556  0.00  0.00    +0.000 OA
ATOM      3  N   UNL     1       1.289  10.007  18.732  0.00  0.00    +0.000 N 
ATOM      4  H   UNL     1       1.711  10.323  19.596  0.00  0.00    +0.000 HD
ENDROOT
BRANCH   1  11
ATOM      5  C   UNL     1      -4.013  14.357  23.651  0.00  0.00    +0.000 C 
ATOM      6  C   UNL     1      -3.039  13.477  22.920  0.00  0.00    +0.000 A 
ATOM      7  N   UNL     1      -2.076  12.953  23.711  0.00  0.00    +0.000 NA
ATOM      8  N   UNL     1      -1.170  12.169  23.211  0.00  0.00    +0.000 NA
ATOM      9  C   UNL     1      -1.213  11.890  21.895  0.00  0.00    +0.000 A 
ATOM     10  S   UNL     1      -0.040  10.869  21.245  0.00  0.00    +0.000 S 
ATOM     11  C   UNL     1      -0.704  10.983  19.671  0.00  0.00    +0.000 A 
ATOM     12  C   UNL     1      -1.819  11.818  19.668  0.00  0.00    +0.000 A 
ATOM     13  C   UNL     1      -2.146  12.364  20.982  0.00  0.00    +0.000 A 
ATOM     14  C   UNL     1      -3.142  13.231  21.529  0.00  0.00    +0.000 A 
ATOM     15  C   UNL     1      -4.270  13.890  20.778  0.00  0.00    +0.000 C 
BRANCH  12  16
ATOM     16  N   UNL     1      -2.506  12.065  18.531  0.00  0.00    +0.000 N 
ATOM     17  H   UNL     1      -3.514  12.241  18.553  0.00  0.00    +0.000 HD
ATOM     18  H   UNL     1      -2.125  12.056  17.596  0.00  0.00    +0.000 HD
ENDBRANCH  12  16
ENDBRANCH   1  11
BRANCH   3  19
ATOM     19  C   UNL     1       2.157   9.399  17.749  0.00  0.00    +0.000 C 
BRANCH  19  20
ATOM     20  C   UNL     1       2.614   8.013  18.143  0.00  0.00    +0.000 A 
ATOM     21  C   UNL     1       2.077   7.395  19.283  0.00  0.00    +0.000 A 
ATOM     22  C   UNL     1       2.462   6.103  19.648  0.00  0.00    +0.000 A 
ATOM     23  C   UNL     1       3.376   5.404  18.859  0.00  0.00    +0.000 A 
ATOM     24  C   UNL     1       3.937   6.004  17.729  0.00  0.00    +0.000 A 
ATOM     25  C   UNL     1       3.550   7.302  17.371  0.00  0.00    +0.000 A 
BRANCH  23  26
ATOM     26  S   UNL     1       3.918   3.779  19.380  0.00  0.00    +0.000 S 
ATOM     27  O   UNL     1       5.362   3.877  19.545  0.00  0.00    +0.000 OA
ATOM     28  O   UNL     1       3.097   3.437  20.533  0.00  0.00    +0.000 OA
BRANCH  26  29
ATOM     29  C   UNL     1       3.506   2.711  17.958  0.00  0.00    +0.000 C 
ATOM     30  F   UNL     1       3.443   1.387  18.285  0.00  0.00    +0.000 F 
ATOM     31  F   UNL     1       2.297   3.021  17.405  0.00  0.00    +0.000 F 
ATOM     32  F   UNL     1       4.420   2.808  16.949  0.00  0.00    +0.000 F 
ENDBRANCH  26  29
ENDBRANCH  23  26
ENDBRANCH  19  20
ENDBRANCH   3  19
TORSDOF 6
ENDMDL
MODEL 8
REMARK VINA RESULT:      -7.9      2.628      3.252
REMARK  Name = 
REMARK  8 active torsions:
REMARK  status: ('A' for Active; 'I' for Inactive)
REMARK    1  A    between atoms: C_1  and  C_2
REMARK    2  A    between atoms: C_7  and  C_8
REMARK    3  A    between atoms: N_10  and  C_11
REMARK    4  A    between atoms: C_11  and  C_12
REMARK    5  A    between atoms: C_15  and  S_16
REMARK    6  A    between atoms: S_16  and  C_19
REMARK    7  A    between atoms: C_25  and  N_26
REMARK    8  A    between atoms: C_28  and  C_29
REMARK                            x       y       z     vdW  Elec       q    Type
REMARK                         _______ _______ _______ _____ _____    ______ ____
ROOT
ATOM      1  C   UNL     1       1.362  10.704  18.837  0.00  0.00    +0.000 C 
ATOM      2  O   UNL     1       2.015  11.494  18.153  0.00  0.00    +0.000 OA
ATOM      3  N   UNL     1       1.522   9.331  18.709  0.00  0.00    +0.000 N 
ATOM      4  H   UNL     1       0.938   8.745  19.292  0.00  0.00    +0.000 HD
ENDROOT
BRANCH   1  11
ATOM      5  C   UNL     1      -4.010  13.579  23.434  0.00  0.00    +0.000 C 
ATOM      6  C   UNL     1      -2.900  12.797  22.789  0.00  0.00    +0.000 A 
ATOM      7  N   UNL     1      -2.432  11.783  23.550  0.00  0.00    +0.000 NA
ATOM      8  N   UNL     1      -1.475  11.022  23.114  0.00  0.00    +0.000 NA
ATOM      9  C   UNL     1      -0.965  11.262  21.892  0.00  0.00    +0.000 A 
ATOM     10  S   UNL     1       0.274  10.271  21.322  0.00  0.00    +0.000 S 
ATOM     11  C   UNL     1       0.377  11.123  19.841  0.00  0.00    +0.000 A 
ATOM     12  C   UNL     1      -0.542  12.170  19.812  0.00  0.00    +0.000 A 
ATOM     13  C   UNL     1      -1.358  12.268  21.018  0.00  0.00    +0.000 A 
ATOM     14  C   UNL     1      -2.408  13.111  21.499  0.00  0.00    +0.000 A 
ATOM     15  C   UNL     1      -3.028  14.276  20.771  0.00  0.00    +0.000 C 
BRANCH  12  16
ATOM     16  N   UNL     1      -0.638  12.988  18.741  0.00  0.00    +0.000 N 
ATOM     17  H   UNL     1      -1.267  13.796  18.749  0.00  0.00    +0.000 HD
ATOM     18  H   UNL     1      -0.162  12.866  17.859  0.00  0.00    +0.000 HD
ENDBRANCH  12  16
ENDBRANCH   1  11
BRANCH   3  19
ATOM     19  C   UNL     1       2.495   8.674  17.864  0.00  0.00    +0.000 C 
BRANCH  19  20
ATOM     20  C   UNL     1       2.830   7.276  18.329  0.00  0.00    +0.000 A 
ATOM     21  C   UNL     1       2.164   6.726  19.436  0.00  0.00    +0.000 A 
ATOM     22  C   UNL     1       2.437   5.424  19.863  0.00  0.00    +0.000 A 
ATOM     23  C   UNL     1       3.365   4.648  19.170  0.00  0.00    +0.000 A 
ATOM     24  C   UNL     1       4.052   5.178  18.075  0.00  0.00    +0.000 A 
ATOM     25  C   UNL     1       3.778   6.486  17.655  0.00  0.00    +0.000 A 
BRANCH  23  26
ATOM     26  S   UNL     1       3.760   3.009  19.774  0.00  0.00    +0.000 S 
ATOM     27  O   UNL     1       5.212   2.912  19.735  0.00  0.00    +0.000 OA
ATOM     28  O   UNL     1       3.077   2.883  21.055  0.00  0.00    +0.000 OA
BRANCH  26  29
ATOM     29  C   UNL     1       3.008   1.900  18.534  0.00  0.00    +0.000 C 
ATOM     30  F   UNL     1       1.813   1.379  18.937  0.00  0.00    +0.000 F 
ATOM     31  F   UNL     1       2.764   2.531  17.349  0.00  0.00    +0.000 F 
ATOM     32  F   UNL     1       3.805   0.832  18.237  0.00  0.00    +0.000 F 
ENDBRANCH  26  29
ENDBRANCH  23  26
ENDBRANCH  19  20
ENDBRANCH   3  19
TORSDOF 6
ENDMDL
MODEL 9
REMARK VINA RESULT:      -7.9      2.121      3.371
REMARK  Name = 
REMARK  8 active torsions:
REMARK  status: ('A' for Active; 'I' for Inactive)
REMARK    1  A    between atoms: C_1  and  C_2
REMARK    2  A    between atoms: C_7  and  C_8
REMARK    3  A    between atoms: N_10  and  C_11
REMARK    4  A    between atoms: C_11  and  C_12
REMARK    5  A    between atoms: C_15  and  S_16
REMARK    6  A    between atoms: S_16  and  C_19
REMARK    7  A    between atoms: C_25  and  N_26
REMARK    8  A    between atoms: C_28  and  C_29
REMARK                            x       y       z     vdW  Elec       q    Type
REMARK                         _______ _______ _______ _____ _____    ______ ____
ROOT
ATOM      1  C   UNL     1       0.226   9.983  18.565  0.00  0.00    +0.000 C 
ATOM      2  O   UNL     1      -0.330   9.743  17.491  0.00  0.00    +0.000 OA
ATOM      3  N   UNL     1       1.491   9.492  18.852  0.00  0.00    +0.000 N 
ATOM      4  H   UNL     1       1.876   9.718  19.761  0.00  0.00    +0.000 HD
ENDROOT
BRANCH   1  11
ATOM      5  C   UNL     1      -3.653  14.368  23.462  0.00  0.00    +0.000 C 
ATOM      6  C   UNL     1      -2.653  13.505  22.745  0.00  0.00    +0.000 A 
ATOM      7  N   UNL     1      -1.538  13.249  23.464  0.00  0.00    +0.000 NA
ATOM      8  N   UNL     1      -0.591  12.511  22.968  0.00  0.00    +0.000 NA
ATOM      9  C   UNL     1      -0.748  12.007  21.730  0.00  0.00    +0.000 A 
ATOM     10  S   UNL     1       0.477  11.045  21.086  0.00  0.00    +0.000 S 
ATOM     11  C   UNL     1      -0.377  10.803  19.623  0.00  0.00    +0.000 A 
ATOM     12  C   UNL     1      -1.595  11.479  19.648  0.00  0.00    +0.000 A 
ATOM     13  C   UNL     1      -1.841  12.197  20.895  0.00  0.00    +0.000 A 
ATOM     14  C   UNL     1      -2.882  13.014  21.437  0.00  0.00    +0.000 A 
ATOM     15  C   UNL     1      -4.175  13.387  20.759  0.00  0.00    +0.000 C 
BRANCH  12  16
ATOM     16  N   UNL     1      -2.440  11.439  18.595  0.00  0.00    +0.000 N 
ATOM     17  H   UNL     1      -2.826  10.551  18.262  0.00  0.00    +0.000 HD
ATOM     18  H   UNL     1      -2.724  12.229  18.034  0.00  0.00    +0.000 HD
ENDBRANCH  12  16
ENDBRANCH   1  11
BRANCH   3  19
ATOM     19  C   UNL     1       2.329   8.746  17.940  0.00  0.00    +0.000 C 
BRANCH  19  20
ATOM     20  C   UNL     1       2.626   7.345  18.424  0.00  0.00    +0.000 A 
ATOM     21  C   UNL     1       3.520   6.532  17.712  0.00  0.00    +0.000 A 
ATOM     22  C   UNL     1       3.833   5.245  18.159  0.00  0.00    +0.000 A 
ATOM     23  C   UNL     1       3.268   4.767  19.341  0.00  0.00    +0.000 A 
ATOM     24  C   UNL     1       2.362   5.552  20.060  0.00  0.00    +0.000 A 
ATOM     25  C   UNL     1       2.050   6.839  19.603  0.00  0.00    +0.000 A 
BRANCH  23  26
ATOM     26  S   UNL     1       3.617   3.090  19.861  0.00  0.00    +0.000 S 
ATOM     27  O   UNL     1       5.058   2.925  19.726  0.00  0.00    +0.000 OA
ATOM     28  O   UNL     1       3.010   2.948  21.178  0.00  0.00    +0.000 OA
BRANCH  26  29
ATOM     29  C   UNL     1       2.735   2.065  18.634  0.00  0.00    +0.000 C 
ATOM     30  F   UNL     1       2.430   2.746  17.491  0.00  0.00    +0.000 F 
ATOM     31  F   UNL     1       3.462   0.978  18.244  0.00  0.00    +0.000 F 
ATOM     32  F   UNL     1       1.553   1.579  19.111  0.00  0.00    +0.000 F 
ENDBRANCH  26  29
ENDBRANCH  23  26
ENDBRANCH  19  20
ENDBRANCH   3  19
TORSDOF 6
ENDMDL
