MODEL 1
REMARK VINA RESULT:      -7.6      0.000      0.000
REMARK  Name = 
REMARK  8 active torsions:
REMARK  status: ('A' for Active; 'I' for Inactive)
REMARK    1  A    between atoms: C_2  and  C_3
REMARK    2  A    between atoms: C_3  and  N_4
REMARK    3  A    between atoms: N_8  and  C_9
REMARK    4  A    between atoms: C_9  and  C_10
REMARK    5  A    between atoms: C_17  and  N_18
REMARK    6  A    between atoms: N_18  and  C_19
REMARK    7  A    between atoms: C_19  and  C_20
REMARK    8  A    between atoms: C_19  and  C_26
REMARK                            x       y       z     vdW  Elec       q    Type
REMARK                         _______ _______ _______ _____ _____    ______ ____
ROOT
ATOM      1  N   UNL     1       2.352  15.285  19.910  0.00  0.00    +0.000 N 
ATOM      2  C   UNL     1       1.531  14.285  20.441  0.00  0.00    +0.000 A 
ATOM      3  N   UNL     1       0.464  14.684  21.116  0.00  0.00    +0.000 NA
ATOM      4  C   UNL     1      -0.181  13.735  21.776  0.00  0.00    +0.000 A 
ATOM      5  N   UNL     1      -1.207  14.146  22.613  0.00  0.00    +0.000 N 
ATOM      6  N   UNL     1       0.101  12.444  21.675  0.00  0.00    +0.000 NA
ATOM      7  C   UNL     1       1.064  12.118  20.828  0.00  0.00    +0.000 A 
ATOM      8  N   UNL     1       1.179  10.785  20.499  0.00  0.00    +0.000 N 
ATOM      9  C   UNL     1       1.795  10.411  19.238  0.00  0.00    +0.000 C 
ATOM     10  C   UNL     1       1.075   9.155  18.735  0.00  0.00    +0.000 C 
ATOM     11  C   UNL     1       1.047   8.010  19.774  0.00  0.00    +0.000 C 
ATOM     12  C   UNL     1       0.533   8.546  21.123  0.00  0.00    +0.000 C 
ATOM     13  C   UNL     1       1.250   9.818  21.581  0.00  0.00    +0.000 C 
ATOM     14  N   UNL     1       1.828  13.012  20.224  0.00  0.00    +0.000 NA
ATOM     15  H   UNL     1       1.886  15.619  19.075  0.00  0.00    +0.000 HD
ATOM     16  H   UNL     1      -1.923  14.574  22.033  0.00  0.00    +0.000 HD
ENDROOT
BRANCH  11  17
ATOM     17  N   UNL     1       2.374   7.380  19.809  0.00  0.00    +0.000 NA
ATOM     18  H   UNL     1       2.519   6.918  20.705  0.00  0.00    +0.000 HD
BRANCH  17  19
ATOM     19  C   UNL     1       2.661   6.383  18.756  0.00  0.00    +0.000 C 
BRANCH  19  20
ATOM     20  C   UNL     1       4.142   6.225  18.416  0.00  0.00    +0.000 A 
ATOM     21  C   UNL     1       4.719   6.860  17.305  0.00  0.00    +0.000 A 
ATOM     22  C   UNL     1       6.091   6.767  17.059  0.00  0.00    +0.000 A 
ATOM     23  C   UNL     1       6.906   6.024  17.909  0.00  0.00    +0.000 A 
ATOM     24  C   UNL     1       6.348   5.360  18.999  0.00  0.00    +0.000 A 
ATOM     25  C   UNL     1       4.977   5.458  19.250  0.00  0.00    +0.000 A 
ENDBRANCH  19  20
BRANCH  19  26
ATOM     26  C   UNL     1       2.021   5.034  19.111  0.00  0.00    +0.000 A 
ATOM     27  C   UNL     1       1.735   4.726  20.451  0.00  0.00    +0.000 A 
ATOM     28  C   UNL     1       1.154   3.502  20.793  0.00  0.00    +0.000 A 
ATOM     29  C   UNL     1       0.845   2.572  19.802  0.00  0.00    +0.000 A 
ATOM     30  C   UNL     1       1.104   2.868  18.467  0.00  0.00    +0.000 A 
ATOM     31  C   UNL     1       1.679   4.092  18.123  0.00  0.00    +0.000 A 
ENDBRANCH  19  26
ENDBRANCH  17  19
ENDBRANCH  11  17
BRANCH   1  32
ATOM     32  C   UNL     1       3.706  14.836  19.658  0.00  0.00    +0.000 C 
BRANCH  32  34
ATOM     33  C   UNL     1       3.454  15.742  17.331  0.00  0.00    +0.000 C 
ATOM     34  C   UNL     1       4.198  15.538  18.427  0.00  0.00    +0.000 C 
ENDBRANCH  32  34
ENDBRANCH   1  32
BRANCH   5  35
ATOM     35  C   UNL     1      -1.707  13.122  23.509  0.00  0.00    +0.000 C 
BRANCH  35  36
ATOM     36  C   UNL     1      -2.993  13.634  24.075  0.00  0.00    +0.000 C 
ATOM     37  C   UNL     1      -4.146  12.953  24.105  0.00  0.00    +0.000 C 
ENDBRANCH  35  36
ENDBRANCH   5  35
TORSDOF 8
ENDMDL
MODEL 2
REMARK VINA RESULT:      -7.5      1.246      3.324
REMARK  Name = 
REMARK  8 active torsions:
REMARK  status: ('A' for Active; 'I' for Inactive)
REMARK    1  A    between atoms: C_2  and  C_3
REMARK    2  A    between atoms: C_3  and  N_4
REMARK    3  A    between atoms: N_8  and  C_9
REMARK    4  A    between atoms: C_9  and  C_10
REMARK    5  A    between atoms: C_17  and  N_18
REMARK    6  A    between atoms: N_18  and  C_19
REMARK    7  A    between atoms: C_19  and  C_20
REMARK    8  A    between atoms: C_19  and  C_26
REMARK                            x       y       z     vdW  Elec       q    Type
REMARK                         _______ _______ _______ _____ _____    ______ ____
ROOT
ATOM      1  N   UNL     1       0.770  14.521  18.673  0.00  0.00    +0.000 N 
ATOM      2  C   UNL     1       0.310  13.426  19.411  0.00  0.00    +0.000 A 
ATOM      3  N   UNL     1      -0.807  13.595  20.099  0.00  0.00    +0.000 NA
ATOM      4  C   UNL     1      -1.111  12.621  20.942  0.00  0.00    +0.000 A 
ATOM      5  N   UNL     1      -2.190  12.841  21.785  0.00  0.00    +0.000 N 
ATOM      6  N   UNL     1      -0.450  11.475  21.015  0.00  0.00    +0.000 NA
ATOM      7  C   UNL     1       0.542  11.314  20.154  0.00  0.00    +0.000 A 
ATOM      8  N   UNL     1       1.051  10.041  20.021  0.00  0.00    +0.000 N 
ATOM      9  C   UNL     1       1.716   9.663  18.786  0.00  0.00    +0.000 C 
ATOM     10  C   UNL     1       1.403   8.184  18.536  0.00  0.00    +0.000 C 
ATOM     11  C   UNL     1       1.756   7.272  19.734  0.00  0.00    +0.000 C 
ATOM     12  C   UNL     1       1.141   7.848  21.023  0.00  0.00    +0.000 C 
ATOM     13  C   UNL     1       1.446   9.334  21.228  0.00  0.00    +0.000 C 
ATOM     14  N   UNL     1       0.978  12.281  19.365  0.00  0.00    +0.000 NA
ATOM     15  H   UNL     1       0.200  14.557  17.836  0.00  0.00    +0.000 HD
ATOM     16  H   UNL     1      -3.019  12.933  21.205  0.00  0.00    +0.000 HD
ENDROOT
BRANCH  11  17
ATOM     17  N   UNL     1       3.213   7.082  19.761  0.00  0.00    +0.000 NA
ATOM     18  H   UNL     1       3.594   7.419  20.643  0.00  0.00    +0.000 HD
BRANCH  17  19
ATOM     19  C   UNL     1       3.703   5.700  19.576  0.00  0.00    +0.000 C 
BRANCH  19  20
ATOM     20  C   UNL     1       2.609   4.633  19.567  0.00  0.00    +0.000 A 
ATOM     21  C   UNL     1       2.070   4.135  18.370  0.00  0.00    +0.000 A 
ATOM     22  C   UNL     1       1.129   3.102  18.383  0.00  0.00    +0.000 A 
ATOM     23  C   UNL     1       0.699   2.563  19.592  0.00  0.00    +0.000 A 
ATOM     24  C   UNL     1       1.198   3.065  20.792  0.00  0.00    +0.000 A 
ATOM     25  C   UNL     1       2.144   4.092  20.780  0.00  0.00    +0.000 A 
ENDBRANCH  19  20
BRANCH  19  26
ATOM     26  C   UNL     1       4.583   5.609  18.322  0.00  0.00    +0.000 A 
ATOM     27  C   UNL     1       5.605   4.647  18.253  0.00  0.00    +0.000 A 
ATOM     28  C   UNL     1       6.417   4.551  17.120  0.00  0.00    +0.000 A 
ATOM     29  C   UNL     1       6.217   5.408  16.040  0.00  0.00    +0.000 A 
ATOM     30  C   UNL     1       5.198   6.355  16.084  0.00  0.00    +0.000 A 
ATOM     31  C   UNL     1       4.382   6.449  17.212  0.00  0.00    +0.000 A 
ENDBRANCH  19  26
ENDBRANCH  17  19
ENDBRANCH  11  17
BRANCH   1  32
ATOM     32  C   UNL     1       2.189  14.462  18.386  0.00  0.00    +0.000 C 
BRANCH  32  34
ATOM     33  C   UNL     1       3.995  16.182  18.660  0.00  0.00    +0.000 C 
ATOM     34  C   UNL     1       2.840  15.632  19.060  0.00  0.00    +0.000 C 
ENDBRANCH  32  34
ENDBRANCH   1  32
BRANCH   5  35
ATOM     35  C   UNL     1      -2.327  11.879  22.861  0.00  0.00    +0.000 C 
BRANCH  35  36
ATOM     36  C   UNL     1      -3.481  12.329  23.698  0.00  0.00    +0.000 C 
ATOM     37  C   UNL     1      -3.691  13.587  24.107  0.00  0.00    +0.000 C 
ENDBRANCH  35  36
ENDBRANCH   5  35
TORSDOF 8
ENDMDL
MODEL 3
REMARK VINA RESULT:      -7.5      1.465      1.547
REMARK  Name = 
REMARK  8 active torsions:
REMARK  status: ('A' for Active; 'I' for Inactive)
REMARK    1  A    between atoms: C_2  and  C_3
REMARK    2  A    between atoms: C_3  and  N_4
REMARK    3  A    between atoms: N_8  and  C_9
REMARK    4  A    between atoms: C_9  and  C_10
REMARK    5  A    between atoms: C_17  and  N_18
REMARK    6  A    between atoms: N_18  and  C_19
REMARK    7  A    between atoms: C_19  and  C_20
REMARK    8  A    between atoms: C_19  and  C_26
REMARK                            x       y       z     vdW  Elec       q    Type
REMARK                         _______ _______ _______ _____ _____    ______ ____
ROOT
ATOM      1  N   UNL     1       2.787  15.440  18.875  0.00  0.00    +0.000 N 
ATOM      2  C   UNL     1       1.790  14.494  19.132  0.00  0.00    +0.000 A 
ATOM      3  N   UNL     1       0.579  14.959  19.398  0.00  0.00    +0.000 NA
ATOM      4  C   UNL     1      -0.293  14.063  19.832  0.00  0.00    +0.000 A 
ATOM      5  N   UNL     1      -1.519  14.546  20.264  0.00  0.00    +0.000 N 
ATOM      6  N   UNL     1      -0.055  12.760  19.873  0.00  0.00    +0.000 NA
ATOM      7  C   UNL     1       1.119  12.363  19.408  0.00  0.00    +0.000 A 
ATOM      8  N   UNL     1       1.275  11.013  19.179  0.00  0.00    +0.000 N 
ATOM      9  C   UNL     1       2.258  10.562  18.210  0.00  0.00    +0.000 C 
ATOM     10  C   UNL     1       1.689   9.310  17.535  0.00  0.00    +0.000 C 
ATOM     11  C   UNL     1       1.262   8.214  18.540  0.00  0.00    +0.000 C 
ATOM     12  C   UNL     1       0.353   8.829  19.621  0.00  0.00    +0.000 C 
ATOM     13  C   UNL     1       0.935  10.096  20.253  0.00  0.00    +0.000 C 
ATOM     14  N   UNL     1       2.082  13.202  19.068  0.00  0.00    +0.000 NA
ATOM     15  H   UNL     1       2.642  15.751  17.923  0.00  0.00    +0.000 HD
ATOM     16  H   UNL     1      -1.979  14.971  19.464  0.00  0.00    +0.000 HD
ENDROOT
BRANCH  11  17
ATOM     17  N   UNL     1       2.470   7.543  19.038  0.00  0.00    +0.000 NA
ATOM     18  H   UNL     1       2.337   7.255  20.006  0.00  0.00    +0.000 HD
BRANCH  17  19
ATOM     19  C   UNL     1       2.919   6.350  18.289  0.00  0.00    +0.000 C 
BRANCH  19  20
ATOM     20  C   UNL     1       4.435   6.169  18.231  0.00  0.00    +0.000 A 
ATOM     21  C   UNL     1       5.213   6.759  17.222  0.00  0.00    +0.000 A 
ATOM     22  C   UNL     1       6.606   6.647  17.234  0.00  0.00    +0.000 A 
ATOM     23  C   UNL     1       7.242   5.930  18.244  0.00  0.00    +0.000 A 
ATOM     24  C   UNL     1       6.486   5.310  19.236  0.00  0.00    +0.000 A 
ATOM     25  C   UNL     1       5.094   5.428  19.229  0.00  0.00    +0.000 A 
ENDBRANCH  19  20
BRANCH  19  26
ATOM     26  C   UNL     1       2.226   5.091  18.827  0.00  0.00    +0.000 A 
ATOM     27  C   UNL     1       1.904   4.997  20.191  0.00  0.00    +0.000 A 
ATOM     28  C   UNL     1       1.274   3.858  20.699  0.00  0.00    +0.000 A 
ATOM     29  C   UNL     1       0.951   2.800  19.851  0.00  0.00    +0.000 A 
ATOM     30  C   UNL     1       1.245   2.883  18.494  0.00  0.00    +0.000 A 
ATOM     31  C   UNL     1       1.869   4.022  17.984  0.00  0.00    +0.000 A 
ENDBRANCH  19  26
ENDBRANCH  17  19
ENDBRANCH  11  17
BRANCH   1  32
ATOM     32  C   UNL     1       4.125  14.935  19.106  0.00  0.00    +0.000 C 
BRANCH  32  34
ATOM     33  C   UNL     1       6.205  14.808  17.707  0.00  0.00    +0.000 C 
ATOM     34  C   UNL     1       4.914  15.140  17.847  0.00  0.00    +0.000 C 
ENDBRANCH  32  34
ENDBRANCH   1  32
BRANCH   5  35
ATOM     35  C   UNL     1      -2.337  13.581  20.972  0.00  0.00    +0.000 C 
BRANCH  35  36
ATOM     36  C   UNL     1      -3.742  13.777  20.500  0.00  0.00    +0.000 C 
ATOM     37  C   UNL     1      -4.627  12.794  20.289  0.00  0.00    +0.000 C 
ENDBRANCH  35  36
ENDBRANCH   5  35
TORSDOF 8
ENDMDL
MODEL 4
REMARK VINA RESULT:      -7.5      1.551      1.894
REMARK  Name = 
REMARK  8 active torsions:
REMARK  status: ('A' for Active; 'I' for Inactive)
REMARK    1  A    between atoms: C_2  and  C_3
REMARK    2  A    between atoms: C_3  and  N_4
REMARK    3  A    between atoms: N_8  and  C_9
REMARK    4  A    between atoms: C_9  and  C_10
REMARK    5  A    between atoms: C_17  and  N_18
REMARK    6  A    between atoms: N_18  and  C_19
REMARK    7  A    between atoms: C_19  and  C_20
REMARK    8  A    between atoms: C_19  and  C_26
REMARK                            x       y       z     vdW  Elec       q    Type
REMARK                         _______ _______ _______ _____ _____    ______ ____
ROOT
ATOM      1  N   UNL     1       3.620  15.221  17.848  0.00  0.00    +0.000 N 
ATOM      2  C   UNL     1       2.550  14.482  18.363  0.00  0.00    +0.000 A 
ATOM      3  N   UNL     1       1.460  15.157  18.690  0.00  0.00    +0.000 NA
ATOM      4  C   UNL     1       0.544  14.473  19.358  0.00  0.00    +0.000 A 
ATOM      5  N   UNL     1      -0.537  15.191  19.847  0.00  0.00    +0.000 N 
ATOM      6  N   UNL     1       0.611  13.167  19.575  0.00  0.00    +0.000 NA
ATOM      7  C   UNL     1       1.648  12.537  19.047  0.00  0.00    +0.000 A 
ATOM      8  N   UNL     1       1.591  11.160  19.017  0.00  0.00    +0.000 N 
ATOM      9  C   UNL     1       2.364  10.435  18.024  0.00  0.00    +0.000 C 
ATOM     10  C   UNL     1       1.547   9.201  17.625  0.00  0.00    +0.000 C 
ATOM     11  C   UNL     1       1.120   8.334  18.832  0.00  0.00    +0.000 C 
ATOM     12  C   UNL     1       0.457   9.223  19.900  0.00  0.00    +0.000 C 
ATOM     13  C   UNL     1       1.283  10.463  20.254  0.00  0.00    +0.000 C 
ATOM     14  N   UNL     1       2.658  13.165  18.470  0.00  0.00    +0.000 NA
ATOM     15  H   UNL     1       3.389  15.415  16.881  0.00  0.00    +0.000 HD
ATOM     16  H   UNL     1      -1.042  15.565  19.048  0.00  0.00    +0.000 HD
ENDROOT
BRANCH  11  17
ATOM     17  N   UNL     1       2.286   7.563  19.287  0.00  0.00    +0.000 NA
ATOM     18  H   UNL     1       2.114   7.185  20.217  0.00  0.00    +0.000 HD
BRANCH  17  19
ATOM     19  C   UNL     1       2.706   6.434  18.431  0.00  0.00    +0.000 C 
BRANCH  19  20
ATOM     20  C   UNL     1       4.218   6.283  18.274  0.00  0.00    +0.000 A 
ATOM     21  C   UNL     1       4.934   6.985  17.290  0.00  0.00    +0.000 A 
ATOM     22  C   UNL     1       6.326   6.894  17.216  0.00  0.00    +0.000 A 
ATOM     23  C   UNL     1       7.024   6.088  18.112  0.00  0.00    +0.000 A 
ATOM     24  C   UNL     1       6.330   5.360  19.075  0.00  0.00    +0.000 A 
ATOM     25  C   UNL     1       4.938   5.456  19.154  0.00  0.00    +0.000 A 
ENDBRANCH  19  20
BRANCH  19  26
ATOM     26  C   UNL     1       2.061   5.128  18.917  0.00  0.00    +0.000 A 
ATOM     27  C   UNL     1       1.738   4.970  20.274  0.00  0.00    +0.000 A 
ATOM     28  C   UNL     1       1.152   3.788  20.735  0.00  0.00    +0.000 A 
ATOM     29  C   UNL     1       0.876   2.751  19.845  0.00  0.00    +0.000 A 
ATOM     30  C   UNL     1       1.172   2.897  18.493  0.00  0.00    +0.000 A 
ATOM     31  C   UNL     1       1.752   4.079  18.031  0.00  0.00    +0.000 A 
ENDBRANCH  19  26
ENDBRANCH  17  19
ENDBRANCH  11  17
BRANCH   1  32
ATOM     32  C   UNL     1       4.898  14.557  17.999  0.00  0.00    +0.000 C 
BRANCH  32  34
ATOM     33  C   UNL     1       6.631  15.443  19.583  0.00  0.00    +0.000 C 
ATOM     34  C   UNL     1       5.889  15.577  18.475  0.00  0.00    +0.000 C 
ENDBRANCH  32  34
ENDBRANCH   1  32
BRANCH   5  35
ATOM     35  C   UNL     1      -1.371  14.469  20.787  0.00  0.00    +0.000 C 
BRANCH  35  36
ATOM     36  C   UNL     1      -1.319  15.225  22.077  0.00  0.00    +0.000 C 
ATOM     37  C   UNL     1      -0.264  15.268  22.901  0.00  0.00    +0.000 C 
ENDBRANCH  35  36
ENDBRANCH   5  35
TORSDOF 8
ENDMDL
MODEL 5
REMARK VINA RESULT:      -7.5      0.954      1.271
REMARK  Name = 
REMARK  8 active torsions:
REMARK  status: ('A' for Active; 'I' for Inactive)
REMARK    1  A    between atoms: C_2  and  C_3
REMARK    2  A    between atoms: C_3  and  N_4
REMARK    3  A    between atoms: N_8  and  C_9
REMARK    4  A    between atoms: C_9  and  C_10
REMARK    5  A    between atoms: C_17  and  N_18
REMARK    6  A    between atoms: N_18  and  C_19
REMARK    7  A    between atoms: C_19  and  C_20
REMARK    8  A    between atoms: C_19  and  C_26
REMARK                            x       y       z     vdW  Elec       q    Type
REMARK                         _______ _______ _______ _____ _____    ______ ____
ROOT
ATOM      1  N   UNL     1       0.851  15.417  18.921  0.00  0.00    +0.000 N 
ATOM      2  C   UNL     1       0.348  14.295  19.588  0.00  0.00    +0.000 A 
ATOM      3  N   UNL     1      -0.698  14.487  20.375  0.00  0.00    +0.000 NA
ATOM      4  C   UNL     1      -1.028  13.462  21.145  0.00  0.00    +0.000 A 
ATOM      5  N   UNL     1      -2.021  13.685  22.088  0.00  0.00    +0.000 N 
ATOM      6  N   UNL     1      -0.468  12.264  21.059  0.00  0.00    +0.000 NA
ATOM      7  C   UNL     1       0.442  12.108  20.112  0.00  0.00    +0.000 A 
ATOM      8  N   UNL     1       0.825  10.817  19.821  0.00  0.00    +0.000 N 
ATOM      9  C   UNL     1       1.364  10.510  18.508  0.00  0.00    +0.000 C 
ATOM     10  C   UNL     1       0.903   9.095  18.146  0.00  0.00    +0.000 C 
ATOM     11  C   UNL     1       1.257   8.042  19.223  0.00  0.00    +0.000 C 
ATOM     12  C   UNL     1       0.789   8.536  20.604  0.00  0.00    +0.000 C 
ATOM     13  C   UNL     1       1.239   9.964  20.922  0.00  0.00    +0.000 C 
ATOM     14  N   UNL     1       0.906  13.110  19.384  0.00  0.00    +0.000 NA
ATOM     15  H   UNL     1       0.229  15.583  18.139  0.00  0.00    +0.000 HD
ATOM     16  H   UNL     1      -2.876  13.902  21.586  0.00  0.00    +0.000 HD
ENDROOT
BRANCH  11  17
ATOM     17  N   UNL     1       2.689   7.731  19.116  0.00  0.00    +0.000 NA
ATOM     18  H   UNL     1       3.085   7.580  20.043  0.00  0.00    +0.000 HD
BRANCH  17  19
ATOM     19  C   UNL     1       3.051   6.558  18.294  0.00  0.00    +0.000 C 
BRANCH  19  20
ATOM     20  C   UNL     1       4.552   6.299  18.179  0.00  0.00    +0.000 A 
ATOM     21  C   UNL     1       5.320   6.839  17.134  0.00  0.00    +0.000 A 
ATOM     22  C   UNL     1       6.704   6.656  17.094  0.00  0.00    +0.000 A 
ATOM     23  C   UNL     1       7.343   5.919  18.088  0.00  0.00    +0.000 A 
ATOM     24  C   UNL     1       6.595   5.349  19.116  0.00  0.00    +0.000 A 
ATOM     25  C   UNL     1       5.212   5.537  19.161  0.00  0.00    +0.000 A 
ENDBRANCH  19  20
BRANCH  19  26
ATOM     26  C   UNL     1       2.305   5.310  18.787  0.00  0.00    +0.000 A 
ATOM     27  C   UNL     1       1.869   4.345  17.865  0.00  0.00    +0.000 A 
ATOM     28  C   UNL     1       1.186   3.205  18.295  0.00  0.00    +0.000 A 
ATOM     29  C   UNL     1       0.936   3.009  19.652  0.00  0.00    +0.000 A 
ATOM     30  C   UNL     1       1.377   3.945  20.582  0.00  0.00    +0.000 A 
ATOM     31  C   UNL     1       2.063   5.082  20.154  0.00  0.00    +0.000 A 
ENDBRANCH  19  26
ENDBRANCH  17  19
ENDBRANCH  11  17
BRANCH   1  32
ATOM     32  C   UNL     1       2.235  15.270  18.520  0.00  0.00    +0.000 C 
BRANCH  32  34
ATOM     33  C   UNL     1       2.809  17.041  16.837  0.00  0.00    +0.000 C 
ATOM     34  C   UNL     1       2.737  16.622  18.108  0.00  0.00    +0.000 C 
ENDBRANCH  32  34
ENDBRANCH   1  32
BRANCH   5  35
ATOM     35  C   UNL     1      -2.166  12.635  23.077  0.00  0.00    +0.000 C 
BRANCH  35  36
ATOM     36  C   UNL     1      -3.600  12.639  23.502  0.00  0.00    +0.000 C 
ATOM     37  C   UNL     1      -4.133  13.476  24.402  0.00  0.00    +0.000 C 
ENDBRANCH  35  36
ENDBRANCH   5  35
TORSDOF 8
ENDMDL
MODEL 6
REMARK VINA RESULT:      -7.5      0.787      1.427
REMARK  Name = 
REMARK  8 active torsions:
REMARK  status: ('A' for Active; 'I' for Inactive)
REMARK    1  A    between atoms: C_2  and  C_3
REMARK    2  A    between atoms: C_3  and  N_4
REMARK    3  A    between atoms: N_8  and  C_9
REMARK    4  A    between atoms: C_9  and  C_10
REMARK    5  A    between atoms: C_17  and  N_18
REMARK    6  A    between atoms: N_18  and  C_19
REMARK    7  A    between atoms: C_19  and  C_20
REMARK    8  A    between atoms: C_19  and  C_26
REMARK                            x       y       z     vdW  Elec       q    Type
REMARK                         _______ _______ _______ _____ _____    ______ ____
ROOT
ATOM      1  N   UNL     1       1.318  15.437  18.953  0.00  0.00    +0.000 N 
ATOM      2  C   UNL     1       0.768  14.354  19.646  0.00  0.00    +0.000 A 
ATOM      3  N   UNL     1      -0.235  14.618  20.469  0.00  0.00    +0.000 NA
ATOM      4  C   UNL     1      -0.601  13.621  21.258  0.00  0.00    +0.000 A 
ATOM      5  N   UNL     1      -1.543  13.913  22.234  0.00  0.00    +0.000 N 
ATOM      6  N   UNL     1      -0.123  12.389  21.163  0.00  0.00    +0.000 NA
ATOM      7  C   UNL     1       0.740  12.169  20.185  0.00  0.00    +0.000 A 
ATOM      8  N   UNL     1       1.029  10.854  19.892  0.00  0.00    +0.000 N 
ATOM      9  C   UNL     1       1.500  10.505  18.563  0.00  0.00    +0.000 C 
ATOM     10  C   UNL     1       0.935   9.120  18.230  0.00  0.00    +0.000 C 
ATOM     11  C   UNL     1       1.260   8.053  19.302  0.00  0.00    +0.000 C 
ATOM     12  C   UNL     1       0.875   8.585  20.695  0.00  0.00    +0.000 C 
ATOM     13  C   UNL     1       1.427   9.983  20.984  0.00  0.00    +0.000 C 
ATOM     14  N   UNL     1       1.241  13.134  19.433  0.00  0.00    +0.000 NA
ATOM     15  H   UNL     1       0.680  15.638  18.192  0.00  0.00    +0.000 HD
ATOM     16  H   UNL     1      -2.401  14.182  21.761  0.00  0.00    +0.000 HD
ENDROOT
BRANCH  11  17
ATOM     17  N   UNL     1       2.665   7.650  19.148  0.00  0.00    +0.000 NA
ATOM     18  H   UNL     1       3.075   7.453  20.059  0.00  0.00    +0.000 HD
BRANCH  17  19
ATOM     19  C   UNL     1       2.924   6.473  18.292  0.00  0.00    +0.000 C 
BRANCH  19  20
ATOM     20  C   UNL     1       4.402   6.182  18.040  0.00  0.00    +0.000 A 
ATOM     21  C   UNL     1       5.187   5.479  18.968  0.00  0.00    +0.000 A 
ATOM     22  C   UNL     1       6.516   5.154  18.681  0.00  0.00    +0.000 A 
ATOM     23  C   UNL     1       7.086   5.540  17.471  0.00  0.00    +0.000 A 
ATOM     24  C   UNL     1       6.333   6.266  16.550  0.00  0.00    +0.000 A 
ATOM     25  C   UNL     1       5.003   6.585  16.833  0.00  0.00    +0.000 A 
ENDBRANCH  19  20
BRANCH  19  26
ATOM     26  C   UNL     1       2.198   5.240  18.848  0.00  0.00    +0.000 A 
ATOM     27  C   UNL     1       1.739   4.244  17.971  0.00  0.00    +0.000 A 
ATOM     28  C   UNL     1       1.075   3.115  18.458  0.00  0.00    +0.000 A 
ATOM     29  C   UNL     1       0.866   2.964  19.828  0.00  0.00    +0.000 A 
ATOM     30  C   UNL     1       1.330   3.931  20.713  0.00  0.00    +0.000 A 
ATOM     31  C   UNL     1       1.998   5.056  20.228  0.00  0.00    +0.000 A 
ENDBRANCH  19  26
ENDBRANCH  17  19
ENDBRANCH  11  17
BRANCH   1  32
ATOM     32  C   UNL     1       2.674  15.199  18.503  0.00  0.00    +0.000 C 
BRANCH  32  34
ATOM     33  C   UNL     1       4.811  16.506  18.647  0.00  0.00    +0.000 C 
ATOM     34  C   UNL     1       3.491  16.405  18.859  0.00  0.00    +0.000 C 
ENDBRANCH  32  34
ENDBRANCH   1  32
BRANCH   5  35
ATOM     35  C   UNL     1      -1.720  12.882  23.237  0.00  0.00    +0.000 C 
BRANCH  35  36
ATOM     36  C   UNL     1      -3.157  12.473  23.186  0.00  0.00    +0.000 C 
ATOM     37  C   UNL     1      -4.046  12.663  24.169  0.00  0.00    +0.000 C 
ENDBRANCH  35  36
ENDBRANCH   5  35
TORSDOF 8
ENDMDL
MODEL 7
REMARK VINA RESULT:      -7.5      1.861      4.423
REMARK  Name = 
REMARK  8 active torsions:
REMARK  status: ('A' for Active; 'I' for Inactive)
REMARK    1  A    between atoms: C_2  and  C_3
REMARK    2  A    between atoms: C_3  and  N_4
REMARK    3  A    between atoms: N_8  and  C_9
REMARK    4  A    between atoms: C_9  and  C_10
REMARK    5  A    between atoms: C_17  and  N_18
REMARK    6  A    between atoms: N_18  and  C_19
REMARK    7  A    between atoms: C_19  and  C_20
REMARK    8  A    between atoms: C_19  and  C_26
REMARK                            x       y       z     vdW  Elec       q    Type
REMARK                         _______ _______ _______ _____ _____    ______ ____
ROOT
ATOM      1  N   UNL     1      -2.403  13.321  20.023  0.00  0.00    +0.000 N 
ATOM      2  C   UNL     1      -1.081  13.059  19.647  0.00  0.00    +0.000 A 
ATOM      3  N   UNL     1      -0.265  14.098  19.572  0.00  0.00    +0.000 NA
ATOM      4  C   UNL     1       0.916  13.856  19.024  0.00  0.00    +0.000 A 
ATOM      5  N   UNL     1       1.731  14.954  18.791  0.00  0.00    +0.000 N 
ATOM      6  N   UNL     1       1.344  12.646  18.697  0.00  0.00    +0.000 NA
ATOM      7  C   UNL     1       0.534  11.639  18.984  0.00  0.00    +0.000 A 
ATOM      8  N   UNL     1       1.068  10.371  18.916  0.00  0.00    +0.000 N 
ATOM      9  C   UNL     1       0.470   9.302  19.697  0.00  0.00    +0.000 C 
ATOM     10  C   UNL     1       1.606   8.372  20.136  0.00  0.00    +0.000 C 
ATOM     11  C   UNL     1       2.473   7.868  18.959  0.00  0.00    +0.000 C 
ATOM     12  C   UNL     1       2.921   9.063  18.097  0.00  0.00    +0.000 C 
ATOM     13  C   UNL     1       1.769   9.990  17.702  0.00  0.00    +0.000 C 
ATOM     14  N   UNL     1      -0.702  11.809  19.421  0.00  0.00    +0.000 NA
ATOM     15  H   UNL     1      -2.391  13.450  21.027  0.00  0.00    +0.000 HD
ATOM     16  H   UNL     1       1.956  15.365  19.693  0.00  0.00    +0.000 HD
ENDROOT
BRANCH  11  17
ATOM     17  N   UNL     1       1.729   6.820  18.247  0.00  0.00    +0.000 NA
ATOM     18  H   UNL     1       1.352   7.189  17.376  0.00  0.00    +0.000 HD
BRANCH  17  19
ATOM     19  C   UNL     1       2.477   5.591  17.910  0.00  0.00    +0.000 C 
BRANCH  19  20
ATOM     20  C   UNL     1       3.996   5.751  17.908  0.00  0.00    +0.000 A 
ATOM     21  C   UNL     1       4.783   5.374  19.009  0.00  0.00    +0.000 A 
ATOM     22  C   UNL     1       6.177   5.454  18.954  0.00  0.00    +0.000 A 
ATOM     23  C   UNL     1       6.807   5.927  17.807  0.00  0.00    +0.000 A 
ATOM     24  C   UNL     1       6.043   6.336  16.715  0.00  0.00    +0.000 A 
ATOM     25  C   UNL     1       4.650   6.250  16.766  0.00  0.00    +0.000 A 
ENDBRANCH  19  20
BRANCH  19  26
ATOM     26  C   UNL     1       2.038   4.433  18.817  0.00  0.00    +0.000 A 
ATOM     27  C   UNL     1       1.689   4.685  20.154  0.00  0.00    +0.000 A 
ATOM     28  C   UNL     1       1.289   3.644  20.995  0.00  0.00    +0.000 A 
ATOM     29  C   UNL     1       1.225   2.339  20.512  0.00  0.00    +0.000 A 
ATOM     30  C   UNL     1       1.549   2.073  19.185  0.00  0.00    +0.000 A 
ATOM     31  C   UNL     1       1.944   3.112  18.342  0.00  0.00    +0.000 A 
ENDBRANCH  19  26
ENDBRANCH  17  19
ENDBRANCH  11  17
BRANCH   1  32
ATOM     32  C   UNL     1      -3.331  12.294  19.597  0.00  0.00    +0.000 C 
BRANCH  32  34
ATOM     33  C   UNL     1      -5.729  13.013  19.417  0.00  0.00    +0.000 C 
ATOM     34  C   UNL     1      -4.679  12.635  20.160  0.00  0.00    +0.000 C 
ENDBRANCH  32  34
ENDBRANCH   1  32
BRANCH   5  35
ATOM     35  C   UNL     1       2.887  14.687  17.958  0.00  0.00    +0.000 C 
BRANCH  35  36
ATOM     36  C   UNL     1       3.384  16.011  17.472  0.00  0.00    +0.000 C 
ATOM     37  C   UNL     1       2.616  17.086  17.250  0.00  0.00    +0.000 C 
ENDBRANCH  35  36
ENDBRANCH   5  35
TORSDOF 8
ENDMDL
MODEL 8
REMARK VINA RESULT:      -7.5      1.398      3.431
REMARK  Name = 
REMARK  8 active torsions:
REMARK  status: ('A' for Active; 'I' for Inactive)
REMARK    1  A    between atoms: C_2  and  C_3
REMARK    2  A    between atoms: C_3  and  N_4
REMARK    3  A    between atoms: N_8  and  C_9
REMARK    4  A    between atoms: C_9  and  C_10
REMARK    5  A    between atoms: C_17  and  N_18
REMARK    6  A    between atoms: N_18  and  C_19
REMARK    7  A    between atoms: C_19  and  C_20
REMARK    8  A    between atoms: C_19  and  C_26
REMARK                            x       y       z     vdW  Elec       q    Type
REMARK                         _______ _______ _______ _____ _____    ______ ____
ROOT
ATOM      1  N   UNL     1       1.123  14.406  18.524  0.00  0.00    +0.000 N 
ATOM      2  C   UNL     1       0.608  13.317  19.234  0.00  0.00    +0.000 A 
ATOM      3  N   UNL     1      -0.531  13.510  19.881  0.00  0.00    +0.000 NA
ATOM      4  C   UNL     1      -0.891  12.537  20.703  0.00  0.00    +0.000 A 
ATOM      5  N   UNL     1      -1.995  12.778  21.508  0.00  0.00    +0.000 N 
ATOM      6  N   UNL     1      -0.262  11.374  20.790  0.00  0.00    +0.000 NA
ATOM      7  C   UNL     1       0.757  11.194  19.966  0.00  0.00    +0.000 A 
ATOM      8  N   UNL     1       1.239   9.909  19.841  0.00  0.00    +0.000 N 
ATOM      9  C   UNL     1       1.940   9.524  18.628  0.00  0.00    +0.000 C 
ATOM     10  C   UNL     1       1.598   8.056  18.353  0.00  0.00    +0.000 C 
ATOM     11  C   UNL     1       1.883   7.126  19.555  0.00  0.00    +0.000 C 
ATOM     12  C   UNL     1       1.235   7.707  20.825  0.00  0.00    +0.000 C 
ATOM     13  C   UNL     1       1.570   9.183  21.055  0.00  0.00    +0.000 C 
ATOM     14  N   UNL     1       1.247  12.156  19.203  0.00  0.00    +0.000 NA
ATOM     15  H   UNL     1       0.586  14.464  17.667  0.00  0.00    +0.000 HD
ATOM     16  H   UNL     1      -2.798  12.896  20.897  0.00  0.00    +0.000 HD
ENDROOT
BRANCH  11  17
ATOM     17  N   UNL     1       3.333   6.898  19.634  0.00  0.00    +0.000 NA
ATOM     18  H   UNL     1       3.679   7.167  20.553  0.00  0.00    +0.000 HD
BRANCH  17  19
ATOM     19  C   UNL     1       3.800   5.519  19.381  0.00  0.00    +0.000 C 
BRANCH  19  20
ATOM     20  C   UNL     1       2.725   4.444  19.538  0.00  0.00    +0.000 A 
ATOM     21  C   UNL     1       2.373   3.928  20.795  0.00  0.00    +0.000 A 
ATOM     22  C   UNL     1       1.331   3.005  20.923  0.00  0.00    +0.000 A 
ATOM     23  C   UNL     1       0.637   2.571  19.798  0.00  0.00    +0.000 A 
ATOM     24  C   UNL     1       0.992   3.048  18.538  0.00  0.00    +0.000 A 
ATOM     25  C   UNL     1       2.029   3.976  18.409  0.00  0.00    +0.000 A 
ENDBRANCH  19  20
BRANCH  19  26
ATOM     26  C   UNL     1       4.483   5.430  18.009  0.00  0.00    +0.000 A 
ATOM     27  C   UNL     1       4.580   6.575  17.200  0.00  0.00    +0.000 A 
ATOM     28  C   UNL     1       5.197   6.513  15.948  0.00  0.00    +0.000 A 
ATOM     29  C   UNL     1       5.730   5.310  15.489  0.00  0.00    +0.000 A 
ATOM     30  C   UNL     1       5.659   4.170  16.284  0.00  0.00    +0.000 A 
ATOM     31  C   UNL     1       5.048   4.232  17.537  0.00  0.00    +0.000 A 
ENDBRANCH  19  26
ENDBRANCH  17  19
ENDBRANCH  11  17
BRANCH   1  32
ATOM     32  C   UNL     1       2.549  14.313  18.290  0.00  0.00    +0.000 C 
BRANCH  32  34
ATOM     33  C   UNL     1       3.956  16.388  18.192  0.00  0.00    +0.000 C 
ATOM     34  C   UNL     1       3.190  15.532  18.882  0.00  0.00    +0.000 C 
ENDBRANCH  32  34
ENDBRANCH   1  32
BRANCH   5  35
ATOM     35  C   UNL     1      -2.196  11.811  22.569  0.00  0.00    +0.000 C 
BRANCH  35  36
ATOM     36  C   UNL     1      -3.056  12.473  23.598  0.00  0.00    +0.000 C 
ATOM     37  C   UNL     1      -3.010  13.772  23.919  0.00  0.00    +0.000 C 
ENDBRANCH  35  36
ENDBRANCH   5  35
TORSDOF 8
ENDMDL
MODEL 9
REMARK VINA RESULT:      -7.4      0.993      1.325
REMARK  Name = 
REMARK  8 active torsions:
REMARK  status: ('A' for Active; 'I' for Inactive)
REMARK    1  A    between atoms: C_2  and  C_3
REMARK    2  A    between atoms: C_3  and  N_4
REMARK    3  A    between atoms: N_8  and  C_9
REMARK    4  A    between atoms: C_9  and  C_10
REMARK    5  A    between atoms: C_17  and  N_18
REMARK    6  A    between atoms: N_18  and  C_19
REMARK    7  A    between atoms: C_19  and  C_20
REMARK    8  A    between atoms: C_19  and  C_26
REMARK                            x       y       z     vdW  Elec       q    Type
REMARK                         _______ _______ _______ _____ _____    ______ ____
ROOT
ATOM      1  N   UNL     1       2.209  15.214  20.113  0.00  0.00    +0.000 N 
ATOM      2  C   UNL     1       1.472  14.080  20.472  0.00  0.00    +0.000 A 
ATOM      3  N   UNL     1       0.410  14.276  21.238  0.00  0.00    +0.000 NA
ATOM      4  C   UNL     1      -0.150  13.180  21.727  0.00  0.00    +0.000 A 
ATOM      5  N   UNL     1      -1.166  13.360  22.653  0.00  0.00    +0.000 N 
ATOM      6  N   UNL     1       0.207  11.952  21.382  0.00  0.00    +0.000 NA
ATOM      7  C   UNL     1       1.155  11.852  20.464  0.00  0.00    +0.000 A 
ATOM      8  N   UNL     1       1.340  10.613  19.891  0.00  0.00    +0.000 N 
ATOM      9  C   UNL     1       1.929  10.519  18.567  0.00  0.00    +0.000 C 
ATOM     10  C   UNL     1       1.269   9.330  17.860  0.00  0.00    +0.000 C 
ATOM     11  C   UNL     1       1.352   8.014  18.669  0.00  0.00    +0.000 C 
ATOM     12  C   UNL     1       0.858   8.259  20.107  0.00  0.00    +0.000 C 
ATOM     13  C   UNL     1       1.513   9.472  20.774  0.00  0.00    +0.000 C 
ATOM     14  N   UNL     1       1.839  12.891  20.016  0.00  0.00    +0.000 NA
ATOM     15  H   UNL     1       1.691  15.663  19.367  0.00  0.00    +0.000 HD
ATOM     16  H   UNL     1      -1.929  13.838  22.181  0.00  0.00    +0.000 HD
ENDROOT
BRANCH  11  17
ATOM     17  N   UNL     1       2.716   7.481  18.552  0.00  0.00    +0.000 NA
ATOM     18  H   UNL     1       3.158   7.447  19.469  0.00  0.00    +0.000 HD
BRANCH  17  19
ATOM     19  C   UNL     1       2.850   6.135  17.956  0.00  0.00    +0.000 C 
BRANCH  19  20
ATOM     20  C   UNL     1       4.253   5.797  17.456  0.00  0.00    +0.000 A 
ATOM     21  C   UNL     1       5.347   6.647  17.689  0.00  0.00    +0.000 A 
ATOM     22  C   UNL     1       6.636   6.279  17.293  0.00  0.00    +0.000 A 
ATOM     23  C   UNL     1       6.850   5.067  16.644  0.00  0.00    +0.000 A 
ATOM     24  C   UNL     1       5.774   4.224  16.375  0.00  0.00    +0.000 A 
ATOM     25  C   UNL     1       4.486   4.587  16.777  0.00  0.00    +0.000 A 
ENDBRANCH  19  20
BRANCH  19  26
ATOM     26  C   UNL     1       2.331   5.067  18.929  0.00  0.00    +0.000 A 
ATOM     27  C   UNL     1       1.481   4.050  18.464  0.00  0.00    +0.000 A 
ATOM     28  C   UNL     1       0.998   3.070  19.336  0.00  0.00    +0.000 A 
ATOM     29  C   UNL     1       1.361   3.090  20.681  0.00  0.00    +0.000 A 
ATOM     30  C   UNL     1       2.217   4.079  21.156  0.00  0.00    +0.000 A 
ATOM     31  C   UNL     1       2.705   5.054  20.286  0.00  0.00    +0.000 A 
ENDBRANCH  19  26
ENDBRANCH  17  19
ENDBRANCH  11  17
BRANCH   1  32
ATOM     32  C   UNL     1       3.577  14.912  19.747  0.00  0.00    +0.000 C 
BRANCH  32  34
ATOM     33  C   UNL     1       3.487  15.716  17.371  0.00  0.00    +0.000 C 
ATOM     34  C   UNL     1       3.960  15.825  18.620  0.00  0.00    +0.000 C 
ENDBRANCH  32  34
ENDBRANCH   1  32
BRANCH   5  35
ATOM     35  C   UNL     1      -1.567  12.159  23.357  0.00  0.00    +0.000 C 
BRANCH  35  36
ATOM     36  C   UNL     1      -3.056  12.210  23.486  0.00  0.00    +0.000 C 
ATOM     37  C   UNL     1      -3.845  13.137  22.927  0.00  0.00    +0.000 C 
ENDBRANCH  35  36
ENDBRANCH   5  35
TORSDOF 8
ENDMDL
