MODEL 1
REMARK VINA RESULT:      -9.6      0.000      0.000
REMARK  Name = 
REMARK  7 active torsions:
REMARK  status: ('A' for Active; 'I' for Inactive)
REMARK    1  A    between atoms: C_1  and  O_2
REMARK    2  A    between atoms: O_2  and  C_3
REMARK    3  A    between atoms: C_6  and  C_7
REMARK    4  A    between atoms: C_7  and  N_8
REMARK    5  A    between atoms: C_15  and  C_16
REMARK    6  A    between atoms: C_19  and  O_20
REMARK    7  A    between atoms: O_20  and  C_21
REMARK                            x       y       z     vdW  Elec       q    Type
REMARK                         _______ _______ _______ _____ _____    ______ ____
ROOT
ATOM      1  N   UNL     1      -0.617  11.120  21.229  0.00  0.00    +0.000 N 
ATOM      2  C   UNL     1       0.454  11.712  20.588  0.00  0.00    +0.000 C 
ATOM      3  O   UNL     1       1.438  12.173  21.140  0.00  0.00    +0.000 OA
ATOM      4  C   UNL     1       0.493  10.810  19.437  0.00  0.00    +0.000 C 
ATOM      5  O   UNL     1       0.000  11.004  18.352  0.00  0.00    +0.000 OA
ATOM      6  C   UNL     1       0.698   9.552  20.082  0.00  0.00    +0.000 A 
ATOM      7  C   UNL     1       1.583   8.734  19.172  0.00  0.00    +0.000 A 
ATOM      8  C   UNL     1       2.084   7.505  19.470  0.00  0.00    +0.000 A 
ATOM      9  C   UNL     1       1.632   7.237  20.751  0.00  0.00    +0.000 A 
ATOM     10  C   UNL     1       0.650   8.267  21.597  0.00  0.00    +0.000 A 
ATOM     11  C   UNL     1       0.046   9.584  21.449  0.00  0.00    +0.000 A 
ENDROOT
BRANCH   8  12
ATOM     12  C   UNL     1       2.797   6.680  18.405  0.00  0.00    +0.000 A 
ATOM     13  C   UNL     1       2.520   5.306  18.136  0.00  0.00    +0.000 A 
ATOM     14  C   UNL     1       3.394   4.480  17.366  0.00  0.00    +0.000 A 
ATOM     15  C   UNL     1       4.557   4.997  16.793  0.00  0.00    +0.000 A 
ATOM     16  C   UNL     1       4.840   6.339  17.032  0.00  0.00    +0.000 A 
ATOM     17  C   UNL     1       3.973   7.152  17.803  0.00  0.00    +0.000 A 
BRANCH  15  18
ATOM     18  O   UNL     1       5.328   4.134  16.058  0.00  0.00    +0.000 OA
BRANCH  18  19
ATOM     19  C   UNL     1       5.685   4.548  14.739  0.00  0.00    +0.000 C 
ATOM     20  F   UNL     1       4.858   4.041  13.806  0.00  0.00    +0.000 F 
ATOM     21  F   UNL     1       5.681   5.898  14.646  0.00  0.00    +0.000 F 
ATOM     22  F   UNL     1       6.935   4.118  14.452  0.00  0.00    +0.000 F 
ENDBRANCH  18  19
ENDBRANCH  15  18
ENDBRANCH   8  12
BRANCH   1  23
ATOM     23  C   UNL     1      -1.419  12.368  22.010  0.00  0.00    +0.000 C 
BRANCH  23  27
ATOM     24  C   UNL     1      -6.119  12.826  22.948  0.00  0.00    +0.000 A 
ATOM     25  C   UNL     1      -5.133  12.796  23.933  0.00  0.00    +0.000 A 
ATOM     26  C   UNL     1      -3.690  12.711  23.609  0.00  0.00    +0.000 A 
ATOM     27  C   UNL     1      -3.124  12.603  22.295  0.00  0.00    +0.000 A 
ATOM     28  C   UNL     1      -4.167  12.744  21.308  0.00  0.00    +0.000 A 
ATOM     29  C   UNL     1      -5.615  12.848  21.646  0.00  0.00    +0.000 A 
BRANCH  24  31
ATOM     30  C   UNL     1      -7.774  13.986  24.286  0.00  0.00    +0.000 C 
ATOM     31  O   UNL     1      -7.428  12.955  23.350  0.00  0.00    +0.000 OA
ENDBRANCH  24  31
ENDBRANCH  23  27
ENDBRANCH   1  23
TORSDOF 6
ENDMDL
MODEL 2
REMARK VINA RESULT:      -9.5      1.364      1.889
REMARK  Name = 
REMARK  7 active torsions:
REMARK  status: ('A' for Active; 'I' for Inactive)
REMARK    1  A    between atoms: C_1  and  O_2
REMARK    2  A    between atoms: O_2  and  C_3
REMARK    3  A    between atoms: C_6  and  C_7
REMARK    4  A    between atoms: C_7  and  N_8
REMARK    5  A    between atoms: C_15  and  C_16
REMARK    6  A    between atoms: C_19  and  O_20
REMARK    7  A    between atoms: O_20  and  C_21
REMARK                            x       y       z     vdW  Elec       q    Type
REMARK                         _______ _______ _______ _____ _____    ______ ____
ROOT
ATOM      1  N   UNL     1      -0.274  11.013  21.965  0.00  0.00    +0.000 N 
ATOM      2  C   UNL     1      -0.242   9.733  22.484  0.00  0.00    +0.000 C 
ATOM      3  O   UNL     1      -1.192   8.973  22.543  0.00  0.00    +0.000 OA
ATOM      4  C   UNL     1       1.082   9.370  21.980  0.00  0.00    +0.000 C 
ATOM      5  O   UNL     1       2.124   9.422  22.589  0.00  0.00    +0.000 OA
ATOM      6  C   UNL     1       0.893   9.528  20.574  0.00  0.00    +0.000 A 
ATOM      7  C   UNL     1       1.717   8.456  19.900  0.00  0.00    +0.000 A 
ATOM      8  C   UNL     1       1.735   8.212  18.562  0.00  0.00    +0.000 A 
ATOM      9  C   UNL     1       0.834   9.115  18.023  0.00  0.00    +0.000 A 
ATOM     10  C   UNL     1       0.021  10.233  18.934  0.00  0.00    +0.000 A 
ATOM     11  C   UNL     1      -0.128  10.619  20.330  0.00  0.00    +0.000 A 
ENDROOT
BRANCH   8  12
ATOM     12  C   UNL     1       2.751   7.247  17.963  0.00  0.00    +0.000 A 
ATOM     13  C   UNL     1       2.727   5.834  18.159  0.00  0.00    +0.000 A 
ATOM     14  C   UNL     1       3.842   4.994  17.856  0.00  0.00    +0.000 A 
ATOM     15  C   UNL     1       5.011   5.519  17.303  0.00  0.00    +0.000 A 
ATOM     16  C   UNL     1       5.051   6.894  17.091  0.00  0.00    +0.000 A 
ATOM     17  C   UNL     1       3.945   7.724  17.400  0.00  0.00    +0.000 A 
BRANCH  15  18
ATOM     18  O   UNL     1       6.023   4.636  17.031  0.00  0.00    +0.000 OA
BRANCH  18  19
ATOM     19  C   UNL     1       6.184   4.234  15.671  0.00  0.00    +0.000 C 
ATOM     20  F   UNL     1       5.317   4.856  14.850  0.00  0.00    +0.000 F 
ATOM     21  F   UNL     1       7.447   4.479  15.247  0.00  0.00    +0.000 F 
ATOM     22  F   UNL     1       5.963   2.903  15.562  0.00  0.00    +0.000 F 
ENDBRANCH  18  19
ENDBRANCH  15  18
ENDBRANCH   8  12
BRANCH   1  23
ATOM     23  C   UNL     1      -1.161  11.920  23.061  0.00  0.00    +0.000 C 
BRANCH  23  27
ATOM     24  C   UNL     1      -5.863  12.953  23.138  0.00  0.00    +0.000 A 
ATOM     25  C   UNL     1      -5.108  12.698  24.282  0.00  0.00    +0.000 A 
ATOM     26  C   UNL     1      -3.651  12.439  24.229  0.00  0.00    +0.000 A 
ATOM     27  C   UNL     1      -2.848  12.368  23.042  0.00  0.00    +0.000 A 
ATOM     28  C   UNL     1      -3.644  12.740  21.899  0.00  0.00    +0.000 A 
ATOM     29  C   UNL     1      -5.107  13.017  21.967  0.00  0.00    +0.000 A 
BRANCH  24  31
ATOM     30  C   UNL     1      -7.591  14.429  23.983  0.00  0.00    +0.000 C 
ATOM     31  O   UNL     1      -7.202  13.230  23.298  0.00  0.00    +0.000 OA
ENDBRANCH  24  31
ENDBRANCH  23  27
ENDBRANCH   1  23
TORSDOF 6
ENDMDL
MODEL 3
REMARK VINA RESULT:      -9.4      1.317      2.258
REMARK  Name = 
REMARK  7 active torsions:
REMARK  status: ('A' for Active; 'I' for Inactive)
REMARK    1  A    between atoms: C_1  and  O_2
REMARK    2  A    between atoms: O_2  and  C_3
REMARK    3  A    between atoms: C_6  and  C_7
REMARK    4  A    between atoms: C_7  and  N_8
REMARK    5  A    between atoms: C_15  and  C_16
REMARK    6  A    between atoms: C_19  and  O_20
REMARK    7  A    between atoms: O_20  and  C_21
REMARK                            x       y       z     vdW  Elec       q    Type
REMARK                         _______ _______ _______ _____ _____    ______ ____
ROOT
ATOM      1  N   UNL     1      -0.020  10.957  21.767  0.00  0.00    +0.000 N 
ATOM      2  C   UNL     1      -0.097   9.717  22.372  0.00  0.00    +0.000 C 
ATOM      3  O   UNL     1      -1.089   9.010  22.407  0.00  0.00    +0.000 OA
ATOM      4  C   UNL     1       1.239   9.254  21.998  0.00  0.00    +0.000 C 
ATOM      5  O   UNL     1       2.235   9.298  22.681  0.00  0.00    +0.000 OA
ATOM      6  C   UNL     1       1.164   9.321  20.573  0.00  0.00    +0.000 A 
ATOM      7  C   UNL     1       1.976   8.166  20.038  0.00  0.00    +0.000 A 
ATOM      8  C   UNL     1       2.080   7.828  18.724  0.00  0.00    +0.000 A 
ATOM      9  C   UNL     1       1.271   8.733  18.059  0.00  0.00    +0.000 A 
ATOM     10  C   UNL     1       0.455   9.952  18.827  0.00  0.00    +0.000 A 
ATOM     11  C   UNL     1       0.224  10.442  20.179  0.00  0.00    +0.000 A 
ENDROOT
BRANCH   8  12
ATOM     12  C   UNL     1       3.083   6.774  18.272  0.00  0.00    +0.000 A 
ATOM     13  C   UNL     1       4.407   7.064  17.829  0.00  0.00    +0.000 A 
ATOM     14  C   UNL     1       5.212   6.115  17.128  0.00  0.00    +0.000 A 
ATOM     15  C   UNL     1       4.749   4.822  16.878  0.00  0.00    +0.000 A 
ATOM     16  C   UNL     1       3.463   4.513  17.313  0.00  0.00    +0.000 A 
ATOM     17  C   UNL     1       2.667   5.460  18.002  0.00  0.00    +0.000 A 
BRANCH  15  18
ATOM     18  O   UNL     1       5.595   3.975  16.211  0.00  0.00    +0.000 OA
BRANCH  18  19
ATOM     19  C   UNL     1       6.018   4.374  14.907  0.00  0.00    +0.000 C 
ATOM     20  F   UNL     1       7.221   4.977  14.924  0.00  0.00    +0.000 F 
ATOM     21  F   UNL     1       6.071   3.306  14.076  0.00  0.00    +0.000 F 
ATOM     22  F   UNL     1       5.129   5.254  14.392  0.00  0.00    +0.000 F 
ENDBRANCH  18  19
ENDBRANCH  15  18
ENDBRANCH   8  12
BRANCH   1  23
ATOM     23  C   UNL     1      -0.936  11.982  22.728  0.00  0.00    +0.000 C 
BRANCH  23  27
ATOM     24  C   UNL     1      -5.623  13.063  22.529  0.00  0.00    +0.000 A 
ATOM     25  C   UNL     1      -4.827  12.862  21.402  0.00  0.00    +0.000 A 
ATOM     26  C   UNL     1      -3.400  12.475  21.498  0.00  0.00    +0.000 A 
ATOM     27  C   UNL     1      -2.651  12.304  22.709  0.00  0.00    +0.000 A 
ATOM     28  C   UNL     1      -3.535  12.416  23.843  0.00  0.00    +0.000 A 
ATOM     29  C   UNL     1      -4.974  12.788  23.734  0.00  0.00    +0.000 A 
BRANCH  24  31
ATOM     30  C   UNL     1      -7.916  12.959  23.310  0.00  0.00    +0.000 C 
ATOM     31  O   UNL     1      -6.950  13.372  22.334  0.00  0.00    +0.000 OA
ENDBRANCH  24  31
ENDBRANCH  23  27
ENDBRANCH   1  23
TORSDOF 6
ENDMDL
MODEL 4
REMARK VINA RESULT:      -9.3      5.872     11.629
REMARK  Name = 
REMARK  7 active torsions:
REMARK  status: ('A' for Active; 'I' for Inactive)
REMARK    1  A    between atoms: C_1  and  O_2
REMARK    2  A    between atoms: O_2  and  C_3
REMARK    3  A    between atoms: C_6  and  C_7
REMARK    4  A    between atoms: C_7  and  N_8
REMARK    5  A    between atoms: C_15  and  C_16
REMARK    6  A    between atoms: C_19  and  O_20
REMARK    7  A    between atoms: O_20  and  C_21
REMARK                            x       y       z     vdW  Elec       q    Type
REMARK                         _______ _______ _______ _____ _____    ______ ____
ROOT
ATOM      1  N   UNL     1       1.519   9.572  19.059  0.00  0.00    +0.000 N 
ATOM      2  C   UNL     1       0.485  10.247  18.438  0.00  0.00    +0.000 C 
ATOM      3  O   UNL     1      -0.503   9.727  17.950  0.00  0.00    +0.000 OA
ATOM      4  C   UNL     1       0.458  11.399  19.339  0.00  0.00    +0.000 C 
ATOM      5  O   UNL     1       0.990  12.468  19.159  0.00  0.00    +0.000 OA
ATOM      6  C   UNL     1       0.198  10.762  20.591  0.00  0.00    +0.000 A 
ATOM      7  C   UNL     1      -0.680  11.700  21.384  0.00  0.00    +0.000 A 
ATOM      8  C   UNL     1      -1.224  11.419  22.599  0.00  0.00    +0.000 A 
ATOM      9  C   UNL     1      -0.822  10.124  22.878  0.00  0.00    +0.000 A 
ATOM     10  C   UNL     1       0.161   9.246  21.876  0.00  0.00    +0.000 A 
ATOM     11  C   UNL     1       0.807   9.375  20.576  0.00  0.00    +0.000 A 
ENDROOT
BRANCH   8  12
ATOM     12  C   UNL     1      -1.925  12.506  23.404  0.00  0.00    +0.000 A 
ATOM     13  C   UNL     1      -3.267  12.414  23.878  0.00  0.00    +0.000 A 
ATOM     14  C   UNL     1      -3.998  13.546  24.353  0.00  0.00    +0.000 A 
ATOM     15  C   UNL     1      -3.409  14.809  24.416  0.00  0.00    +0.000 A 
ATOM     16  C   UNL     1      -2.094  14.920  23.971  0.00  0.00    +0.000 A 
ATOM     17  C   UNL     1      -1.377  13.795  23.495  0.00  0.00    +0.000 A 
BRANCH  15  18
ATOM     18  O   UNL     1      -4.180  15.834  24.898  0.00  0.00    +0.000 OA
BRANCH  18  19
ATOM     19  C   UNL     1      -5.226  16.312  24.052  0.00  0.00    +0.000 C 
ATOM     20  F   UNL     1      -6.405  15.717  24.315  0.00  0.00    +0.000 F 
ATOM     21  F   UNL     1      -5.370  17.652  24.182  0.00  0.00    +0.000 F 
ATOM     22  F   UNL     1      -4.919  16.052  22.761  0.00  0.00    +0.000 F 
ENDBRANCH  18  19
ENDBRANCH  15  18
ENDBRANCH   8  12
BRANCH   1  23
ATOM     23  C   UNL     1       2.329   8.765  17.833  0.00  0.00    +0.000 C 
BRANCH  23  27
ATOM     24  C   UNL     1       3.834   4.192  17.865  0.00  0.00    +0.000 A 
ATOM     25  C   UNL     1       2.524   4.577  18.147  0.00  0.00    +0.000 A 
ATOM     26  C   UNL     1       2.079   5.988  18.073  0.00  0.00    +0.000 A 
ATOM     27  C   UNL     1       2.905   7.120  17.763  0.00  0.00    +0.000 A 
ATOM     28  C   UNL     1       4.218   6.666  17.376  0.00  0.00    +0.000 A 
ATOM     29  C   UNL     1       4.650   5.240  17.436  0.00  0.00    +0.000 A 
BRANCH  24  31
ATOM     30  C   UNL     1       3.143   1.926  18.382  0.00  0.00    +0.000 C 
ATOM     31  O   UNL     1       4.136   2.850  17.914  0.00  0.00    +0.000 OA
ENDBRANCH  24  31
ENDBRANCH  23  27
ENDBRANCH   1  23
TORSDOF 6
ENDMDL
MODEL 5
REMARK VINA RESULT:      -9.2      1.487      2.335
REMARK  Name = 
REMARK  7 active torsions:
REMARK  status: ('A' for Active; 'I' for Inactive)
REMARK    1  A    between atoms: C_1  and  O_2
REMARK    2  A    between atoms: O_2  and  C_3
REMARK    3  A    between atoms: C_6  and  C_7
REMARK    4  A    between atoms: C_7  and  N_8
REMARK    5  A    between atoms: C_15  and  C_16
REMARK    6  A    between atoms: C_19  and  O_20
REMARK    7  A    between atoms: O_20  and  C_21
REMARK                            x       y       z     vdW  Elec       q    Type
REMARK                         _______ _______ _______ _____ _____    ______ ____
ROOT
ATOM      1  N   UNL     1      -0.052  10.744  21.766  0.00  0.00    +0.000 N 
ATOM      2  C   UNL     1      -0.082   9.491  22.347  0.00  0.00    +0.000 C 
ATOM      3  O   UNL     1      -1.046   8.747  22.366  0.00  0.00    +0.000 OA
ATOM      4  C   UNL     1       1.272   9.087  21.967  0.00  0.00    +0.000 C 
ATOM      5  O   UNL     1       2.264   9.155  22.652  0.00  0.00    +0.000 OA
ATOM      6  C   UNL     1       1.196   9.178  20.543  0.00  0.00    +0.000 A 
ATOM      7  C   UNL     1       2.052   8.065  19.988  0.00  0.00    +0.000 A 
ATOM      8  C   UNL     1       2.170   7.756  18.669  0.00  0.00    +0.000 A 
ATOM      9  C   UNL     1       1.329   8.642  18.019  0.00  0.00    +0.000 A 
ATOM     10  C   UNL     1       0.466   9.814  18.809  0.00  0.00    +0.000 A 
ATOM     11  C   UNL     1       0.214  10.270  20.169  0.00  0.00    +0.000 A 
ENDROOT
BRANCH   8  12
ATOM     12  C   UNL     1       3.213   6.749  18.199  0.00  0.00    +0.000 A 
ATOM     13  C   UNL     1       4.507   7.102  17.713  0.00  0.00    +0.000 A 
ATOM     14  C   UNL     1       5.339   6.187  16.999  0.00  0.00    +0.000 A 
ATOM     15  C   UNL     1       4.937   4.869  16.777  0.00  0.00    +0.000 A 
ATOM     16  C   UNL     1       3.683   4.498  17.255  0.00  0.00    +0.000 A 
ATOM     17  C   UNL     1       2.859   5.412  17.957  0.00  0.00    +0.000 A 
BRANCH  15  18
ATOM     18  O   UNL     1       5.806   4.057  16.096  0.00  0.00    +0.000 OA
BRANCH  18  19
ATOM     19  C   UNL     1       6.048   4.373  14.725  0.00  0.00    +0.000 C 
ATOM     20  F   UNL     1       5.035   5.070  14.176  0.00  0.00    +0.000 F 
ATOM     21  F   UNL     1       7.193   5.084  14.594  0.00  0.00    +0.000 F 
ATOM     22  F   UNL     1       6.187   3.231  14.013  0.00  0.00    +0.000 F 
ENDBRANCH  18  19
ENDBRANCH  15  18
ENDBRANCH   8  12
BRANCH   1  23
ATOM     23  C   UNL     1      -1.007  11.715  22.744  0.00  0.00    +0.000 C 
BRANCH  23  27
ATOM     24  C   UNL     1      -5.413  13.490  21.959  0.00  0.00    +0.000 A 
ATOM     25  C   UNL     1      -4.497  13.217  20.944  0.00  0.00    +0.000 A 
ATOM     26  C   UNL     1      -3.169  12.618  21.215  0.00  0.00    +0.000 A 
ATOM     27  C   UNL     1      -2.637  12.290  22.506  0.00  0.00    +0.000 A 
ATOM     28  C   UNL     1      -3.653  12.488  23.510  0.00  0.00    +0.000 A 
ATOM     29  C   UNL     1      -4.993  13.074  23.224  0.00  0.00    +0.000 A 
BRANCH  24  31
ATOM     30  C   UNL     1      -6.922  14.232  20.213  0.00  0.00    +0.000 C 
ATOM     31  O   UNL     1      -6.639  14.001  21.600  0.00  0.00    +0.000 OA
ENDBRANCH  24  31
ENDBRANCH  23  27
ENDBRANCH   1  23
TORSDOF 6
ENDMDL
MODEL 6
REMARK VINA RESULT:      -9.2      5.845     11.636
REMARK  Name = 
REMARK  7 active torsions:
REMARK  status: ('A' for Active; 'I' for Inactive)
REMARK    1  A    between atoms: C_1  and  O_2
REMARK    2  A    between atoms: O_2  and  C_3
REMARK    3  A    between atoms: C_6  and  C_7
REMARK    4  A    between atoms: C_7  and  N_8
REMARK    5  A    between atoms: C_15  and  C_16
REMARK    6  A    between atoms: C_19  and  O_20
REMARK    7  A    between atoms: O_20  and  C_21
REMARK                            x       y       z     vdW  Elec       q    Type
REMARK                         _______ _______ _______ _____ _____    ______ ____
ROOT
ATOM      1  N   UNL     1       1.623   9.196  19.241  0.00  0.00    +0.000 N 
ATOM      2  C   UNL     1       0.686   9.951  18.563  0.00  0.00    +0.000 C 
ATOM      3  O   UNL     1      -0.312   9.512  18.018  0.00  0.00    +0.000 OA
ATOM      4  C   UNL     1       0.702  11.104  19.462  0.00  0.00    +0.000 C 
ATOM      5  O   UNL     1       1.330  12.125  19.314  0.00  0.00    +0.000 OA
ATOM      6  C   UNL     1       0.319  10.495  20.696  0.00  0.00    +0.000 A 
ATOM      7  C   UNL     1      -0.522  11.505  21.439  0.00  0.00    +0.000 A 
ATOM      8  C   UNL     1      -1.156  11.275  22.620  0.00  0.00    +0.000 A 
ATOM      9  C   UNL     1      -0.878   9.953  22.921  0.00  0.00    +0.000 A 
ATOM     10  C   UNL     1       0.085   8.993  21.975  0.00  0.00    +0.000 A 
ATOM     11  C   UNL     1       0.812   9.063  20.715  0.00  0.00    +0.000 A 
ENDROOT
BRANCH   8  12
ATOM     12  C   UNL     1      -1.810  12.419  23.386  0.00  0.00    +0.000 A 
ATOM     13  C   UNL     1      -3.147  12.391  23.882  0.00  0.00    +0.000 A 
ATOM     14  C   UNL     1      -3.833  13.567  24.315  0.00  0.00    +0.000 A 
ATOM     15  C   UNL     1      -3.203  14.812  24.314  0.00  0.00    +0.000 A 
ATOM     16  C   UNL     1      -1.893  14.860  23.846  0.00  0.00    +0.000 A 
ATOM     17  C   UNL     1      -1.219  13.692  23.411  0.00  0.00    +0.000 A 
BRANCH  15  18
ATOM     18  O   UNL     1      -3.934  15.882  24.760  0.00  0.00    +0.000 OA
BRANCH  18  19
ATOM     19  C   UNL     1      -4.936  16.394  23.881  0.00  0.00    +0.000 C 
ATOM     20  F   UNL     1      -4.648  16.158  22.587  0.00  0.00    +0.000 F 
ATOM     21  F   UNL     1      -6.144  15.854  24.169  0.00  0.00    +0.000 F 
ATOM     22  F   UNL     1      -5.035  17.734  24.037  0.00  0.00    +0.000 F 
ENDBRANCH  18  19
ENDBRANCH  15  18
ENDBRANCH   8  12
BRANCH   1  23
ATOM     23  C   UNL     1       2.433   8.320  18.063  0.00  0.00    +0.000 C 
BRANCH  23  27
ATOM     24  C   UNL     1       3.427   3.637  17.560  0.00  0.00    +0.000 A 
ATOM     25  C   UNL     1       4.402   4.628  17.655  0.00  0.00    +0.000 A 
ATOM     26  C   UNL     1       4.064   6.055  17.866  0.00  0.00    +0.000 A 
ATOM     27  C   UNL     1       2.742   6.607  17.952  0.00  0.00    +0.000 A 
ATOM     28  C   UNL     1       1.774   5.539  17.956  0.00  0.00    +0.000 A 
ATOM     29  C   UNL     1       2.127   4.103  17.761  0.00  0.00    +0.000 A 
BRANCH  24  31
ATOM     30  C   UNL     1       3.676   1.417  18.503  0.00  0.00    +0.000 C 
ATOM     31  O   UNL     1       3.845   2.334  17.413  0.00  0.00    +0.000 OA
ENDBRANCH  24  31
ENDBRANCH  23  27
ENDBRANCH   1  23
TORSDOF 6
ENDMDL
MODEL 7
REMARK VINA RESULT:      -9.1      1.126      1.427
REMARK  Name = 
REMARK  7 active torsions:
REMARK  status: ('A' for Active; 'I' for Inactive)
REMARK    1  A    between atoms: C_1  and  O_2
REMARK    2  A    between atoms: O_2  and  C_3
REMARK    3  A    between atoms: C_6  and  C_7
REMARK    4  A    between atoms: C_7  and  N_8
REMARK    5  A    between atoms: C_15  and  C_16
REMARK    6  A    between atoms: C_19  and  O_20
REMARK    7  A    between atoms: O_20  and  C_21
REMARK                            x       y       z     vdW  Elec       q    Type
REMARK                         _______ _______ _______ _____ _____    ______ ____
ROOT
ATOM      1  N   UNL     1      -0.417  10.721  21.050  0.00  0.00    +0.000 N 
ATOM      2  C   UNL     1       0.658  11.349  20.451  0.00  0.00    +0.000 C 
ATOM      3  O   UNL     1       1.618  11.815  21.039  0.00  0.00    +0.000 OA
ATOM      4  C   UNL     1       0.744  10.476  19.281  0.00  0.00    +0.000 C 
ATOM      5  O   UNL     1       0.275  10.686  18.188  0.00  0.00    +0.000 OA
ATOM      6  C   UNL     1       0.958   9.207  19.901  0.00  0.00    +0.000 A 
ATOM      7  C   UNL     1       1.882   8.429  18.995  0.00  0.00    +0.000 A 
ATOM      8  C   UNL     1       2.400   7.203  19.276  0.00  0.00    +0.000 A 
ATOM      9  C   UNL     1       1.922   6.895  20.538  0.00  0.00    +0.000 A 
ATOM     10  C   UNL     1       0.898   7.886  21.383  0.00  0.00    +0.000 A 
ATOM     11  C   UNL     1       0.271   9.193  21.251  0.00  0.00    +0.000 A 
ENDROOT
BRANCH   8  12
ATOM     12  C   UNL     1       3.156   6.418  18.212  0.00  0.00    +0.000 A 
ATOM     13  C   UNL     1       2.944   5.035  17.932  0.00  0.00    +0.000 A 
ATOM     14  C   UNL     1       3.860   4.254  17.163  0.00  0.00    +0.000 A 
ATOM     15  C   UNL     1       5.001   4.827  16.601  0.00  0.00    +0.000 A 
ATOM     16  C   UNL     1       5.221   6.179  16.849  0.00  0.00    +0.000 A 
ATOM     17  C   UNL     1       4.314   6.947  17.620  0.00  0.00    +0.000 A 
BRANCH  15  18
ATOM     18  O   UNL     1       5.815   4.005  15.866  0.00  0.00    +0.000 OA
BRANCH  18  19
ATOM     19  C   UNL     1       5.989   4.330  14.487  0.00  0.00    +0.000 C 
ATOM     20  F   UNL     1       6.966   5.238  14.297  0.00  0.00    +0.000 F 
ATOM     21  F   UNL     1       6.274   3.219  13.767  0.00  0.00    +0.000 F 
ATOM     22  F   UNL     1       4.844   4.858  13.997  0.00  0.00    +0.000 F 
ENDBRANCH  18  19
ENDBRANCH  15  18
ENDBRANCH   8  12
BRANCH   1  23
ATOM     23  C   UNL     1      -1.264  11.934  21.840  0.00  0.00    +0.000 C 
BRANCH  23  27
ATOM     24  C   UNL     1      -5.679  13.696  21.083  0.00  0.00    +0.000 A 
ATOM     25  C   UNL     1      -4.997  13.813  22.293  0.00  0.00    +0.000 A 
ATOM     26  C   UNL     1      -3.616  13.309  22.476  0.00  0.00    +0.000 A 
ATOM     27  C   UNL     1      -2.832  12.616  21.495  0.00  0.00    +0.000 A 
ATOM     28  C   UNL     1      -3.532  12.612  20.234  0.00  0.00    +0.000 A 
ATOM     29  C   UNL     1      -4.915  13.139  20.057  0.00  0.00    +0.000 A 
BRANCH  24  31
ATOM     30  C   UNL     1      -7.084  15.627  20.663  0.00  0.00    +0.000 C 
ATOM     31  O   UNL     1      -6.941  14.240  21.000  0.00  0.00    +0.000 OA
ENDBRANCH  24  31
ENDBRANCH  23  27
ENDBRANCH   1  23
TORSDOF 6
ENDMDL
MODEL 8
REMARK VINA RESULT:      -9.1      0.691      1.250
REMARK  Name = 
REMARK  7 active torsions:
REMARK  status: ('A' for Active; 'I' for Inactive)
REMARK    1  A    between atoms: C_1  and  O_2
REMARK    2  A    between atoms: O_2  and  C_3
REMARK    3  A    between atoms: C_6  and  C_7
REMARK    4  A    between atoms: C_7  and  N_8
REMARK    5  A    between atoms: C_15  and  C_16
REMARK    6  A    between atoms: C_19  and  O_20
REMARK    7  A    between atoms: O_20  and  C_21
REMARK                            x       y       z     vdW  Elec       q    Type
REMARK                         _______ _______ _______ _____ _____    ______ ____
ROOT
ATOM      1  N   UNL     1      -0.320  11.438  21.295  0.00  0.00    +0.000 N 
ATOM      2  C   UNL     1       0.776  11.946  20.623  0.00  0.00    +0.000 C 
ATOM      3  O   UNL     1       1.800  12.346  21.147  0.00  0.00    +0.000 OA
ATOM      4  C   UNL     1       0.729  11.026  19.486  0.00  0.00    +0.000 C 
ATOM      5  O   UNL     1       0.227  11.237  18.408  0.00  0.00    +0.000 OA
ATOM      6  C   UNL     1       0.861   9.767  20.147  0.00  0.00    +0.000 A 
ATOM      7  C   UNL     1       1.669   8.877  19.233  0.00  0.00    +0.000 A 
ATOM      8  C   UNL     1       2.090   7.621  19.540  0.00  0.00    +0.000 A 
ATOM      9  C   UNL     1       1.649   7.404  20.834  0.00  0.00    +0.000 A 
ATOM     10  C   UNL     1       0.758   8.511  21.684  0.00  0.00    +0.000 A 
ATOM     11  C   UNL     1       0.241   9.864  21.526  0.00  0.00    +0.000 A 
ENDROOT
BRANCH   8  12
ATOM     12  C   UNL     1       2.722   6.733  18.475  0.00  0.00    +0.000 A 
ATOM     13  C   UNL     1       2.359   5.373  18.245  0.00  0.00    +0.000 A 
ATOM     14  C   UNL     1       3.160   4.481  17.469  0.00  0.00    +0.000 A 
ATOM     15  C   UNL     1       4.334   4.916  16.854  0.00  0.00    +0.000 A 
ATOM     16  C   UNL     1       4.702   6.244  17.054  0.00  0.00    +0.000 A 
ATOM     17  C   UNL     1       3.907   7.122  17.830  0.00  0.00    +0.000 A 
BRANCH  15  18
ATOM     18  O   UNL     1       5.031   3.994  16.117  0.00  0.00    +0.000 OA
BRANCH  18  19
ATOM     19  C   UNL     1       5.901   4.498  15.103  0.00  0.00    +0.000 C 
ATOM     20  F   UNL     1       7.020   5.042  15.617  0.00  0.00    +0.000 F 
ATOM     21  F   UNL     1       6.245   3.515  14.238  0.00  0.00    +0.000 F 
ATOM     22  F   UNL     1       5.266   5.464  14.400  0.00  0.00    +0.000 F 
ENDBRANCH  18  19
ENDBRANCH  15  18
ENDBRANCH   8  12
BRANCH   1  23
ATOM     23  C   UNL     1      -1.018  12.750  22.072  0.00  0.00    +0.000 C 
BRANCH  23  27
ATOM     24  C   UNL     1      -5.655  13.623  23.025  0.00  0.00    +0.000 A 
ATOM     25  C   UNL     1      -5.221  12.755  22.024  0.00  0.00    +0.000 A 
ATOM     26  C   UNL     1      -3.787  12.465  21.793  0.00  0.00    +0.000 A 
ATOM     27  C   UNL     1      -2.683  13.045  22.502  0.00  0.00    +0.000 A 
ATOM     28  C   UNL     1      -3.178  13.849  23.591  0.00  0.00    +0.000 A 
ATOM     29  C   UNL     1      -4.625  14.119  23.826  0.00  0.00    +0.000 A 
BRANCH  24  31
ATOM     30  C   UNL     1      -7.852  12.630  23.279  0.00  0.00    +0.000 C 
ATOM     31  O   UNL     1      -7.011  13.789  23.191  0.00  0.00    +0.000 OA
ENDBRANCH  24  31
ENDBRANCH  23  27
ENDBRANCH   1  23
TORSDOF 6
ENDMDL
MODEL 9
REMARK VINA RESULT:      -9.0      2.040      2.635
REMARK  Name = 
REMARK  7 active torsions:
REMARK  status: ('A' for Active; 'I' for Inactive)
REMARK    1  A    between atoms: C_1  and  O_2
REMARK    2  A    between atoms: O_2  and  C_3
REMARK    3  A    between atoms: C_6  and  C_7
REMARK    4  A    between atoms: C_7  and  N_8
REMARK    5  A    between atoms: C_15  and  C_16
REMARK    6  A    between atoms: C_19  and  O_20
REMARK    7  A    between atoms: O_20  and  C_21
REMARK                            x       y       z     vdW  Elec       q    Type
REMARK                         _______ _______ _______ _____ _____    ______ ____
ROOT
ATOM      1  N   UNL     1      -1.116  11.170  20.376  0.00  0.00    +0.000 N 
ATOM      2  C   UNL     1      -0.266  11.752  19.455  0.00  0.00    +0.000 C 
ATOM      3  O   UNL     1       0.647  12.513  19.721  0.00  0.00    +0.000 OA
ATOM      4  C   UNL     1      -0.153  10.597  18.564  0.00  0.00    +0.000 C 
ATOM      5  O   UNL     1      -0.783  10.402  17.552  0.00  0.00    +0.000 OA
ATOM      6  C   UNL     1       0.381   9.616  19.454  0.00  0.00    +0.000 A 
ATOM      7  C   UNL     1       1.323   8.758  18.644  0.00  0.00    +0.000 A 
ATOM      8  C   UNL     1       2.102   7.764  19.149  0.00  0.00    +0.000 A 
ATOM      9  C   UNL     1       1.851   7.772  20.510  0.00  0.00    +0.000 A 
ATOM     10  C   UNL     1       0.763   8.796  21.223  0.00  0.00    +0.000 A 
ATOM     11  C   UNL     1      -0.121   9.894  20.856  0.00  0.00    +0.000 A 
ENDROOT
BRANCH   8  12
ATOM     12  C   UNL     1       2.863   6.827  18.219  0.00  0.00    +0.000 A 
ATOM     13  C   UNL     1       2.575   5.438  18.068  0.00  0.00    +0.000 A 
ATOM     14  C   UNL     1       3.477   4.526  17.440  0.00  0.00    +0.000 A 
ATOM     15  C   UNL     1       4.685   4.966  16.897  0.00  0.00    +0.000 A 
ATOM     16  C   UNL     1       4.981   6.321  17.021  0.00  0.00    +0.000 A 
ATOM     17  C   UNL     1       4.085   7.220  17.651  0.00  0.00    +0.000 A 
BRANCH  15  18
ATOM     18  O   UNL     1       5.482   4.023  16.302  0.00  0.00    +0.000 OA
BRANCH  18  19
ATOM     19  C   UNL     1       6.046   4.359  15.034  0.00  0.00    +0.000 C 
ATOM     20  F   UNL     1       6.291   3.270  14.281  0.00  0.00    +0.000 F 
ATOM     21  F   UNL     1       5.224   5.190  14.351  0.00  0.00    +0.000 F 
ATOM     22  F   UNL     1       7.223   5.000  15.216  0.00  0.00    +0.000 F 
ENDBRANCH  18  19
ENDBRANCH  15  18
ENDBRANCH   8  12
BRANCH   1  23
ATOM     23  C   UNL     1      -2.082  12.416  20.946  0.00  0.00    +0.000 C 
BRANCH  23  27
ATOM     24  C   UNL     1      -1.822  15.251  24.829  0.00  0.00    +0.000 A 
ATOM     25  C   UNL     1      -2.857  14.344  24.601  0.00  0.00    +0.000 A 
ATOM     26  C   UNL     1      -2.878  13.446  23.423  0.00  0.00    +0.000 A 
ATOM     27  C   UNL     1      -1.906  13.412  22.368  0.00  0.00    +0.000 A 
ATOM     28  C   UNL     1      -0.807  14.285  22.698  0.00  0.00    +0.000 A 
ATOM     29  C   UNL     1      -0.787  15.171  23.896  0.00  0.00    +0.000 A 
BRANCH  24  31
ATOM     30  C   UNL     1      -0.664  16.225  26.723  0.00  0.00    +0.000 C 
ATOM     31  O   UNL     1      -1.870  16.007  25.977  0.00  0.00    +0.000 OA
ENDBRANCH  24  31
ENDBRANCH  23  27
ENDBRANCH   1  23
TORSDOF 6
ENDMDL
