MODEL 1
REMARK VINA RESULT:      -7.9      0.000      0.000
REMARK  Name = 
REMARK  12 active torsions:
REMARK  status: ('A' for Active; 'I' for Inactive)
REMARK    1  A    between atoms: C_1  and  C_2
REMARK    2  A    between atoms: C_2  and  N_3
REMARK    3  A    between atoms: N_3  and  C_4
REMARK    4  A    between atoms: N_3  and  C_6
REMARK    5  A    between atoms: C_4  and  C_5
REMARK    6  A    between atoms: C_6  and  C_7
REMARK    7  A    between atoms: C_7  and  C_8
REMARK    8  A    between atoms: C_8  and  N_9
REMARK    9  A    between atoms: C_10  and  C_12
REMARK   10  A    between atoms: C_14  and  S_15
REMARK   11  A    between atoms: S_15  and  C_16
REMARK   12  A    between atoms: C_19  and  C_20
REMARK                            x       y       z     vdW  Elec       q    Type
REMARK                         _______ _______ _______ _____ _____    ______ ____
ROOT
ATOM      1  C   UNL     1       3.285   6.046  19.242  0.00  0.00    +0.000 A 
ATOM      2  C   UNL     1       4.611   6.184  18.823  0.00  0.00    +0.000 A 
ATOM      3  C   UNL     1       5.453   5.095  18.902  0.00  0.00    +0.000 A 
ATOM      4  N   UNL     1       5.026   3.877  19.295  0.00  0.00    +0.000 NA
ATOM      5  C   UNL     1       3.736   3.722  19.640  0.00  0.00    +0.000 A 
ATOM      6  C   UNL     1       3.325   2.441  19.994  0.00  0.00    +0.000 A 
ATOM      7  C   UNL     1       2.013   2.164  20.377  0.00  0.00    +0.000 A 
ATOM      8  C   UNL     1       1.083   3.189  20.421  0.00  0.00    +0.000 A 
ATOM      9  C   UNL     1       1.472   4.481  20.070  0.00  0.00    +0.000 A 
ATOM     10  C   UNL     1       2.798   4.776  19.657  0.00  0.00    +0.000 A 
ENDROOT
BRANCH   1  12
ATOM     11  N   UNL     1       2.211   7.793  17.911  0.00  0.00    +0.000 N 
ATOM     12  C   UNL     1       2.412   7.261  19.172  0.00  0.00    +0.000 C 
ATOM     13  O   UNL     1       1.902   7.738  20.178  0.00  0.00    +0.000 OA
ATOM     14  H   UNL     1       2.761   7.478  17.120  0.00  0.00    +0.000 HD
BRANCH  11  15
ATOM     15  C   UNL     1       1.394   8.972  17.696  0.00  0.00    +0.000 C 
BRANCH  15  16
ATOM     16  C   UNL     1       2.144  10.260  18.026  0.00  0.00    +0.000 C 
BRANCH  16  17
ATOM     17  C   UNL     1       1.311  11.285  18.815  0.00  0.00    +0.000 C 
BRANCH  17  18
ATOM     18  N   UNL     1       0.181  10.727  19.585  0.00  0.00    +0.000 NA
BRANCH  18  20
ATOM     19  C   UNL     1      -0.272  11.952  21.747  0.00  0.00    +0.000 C 
ATOM     20  C   UNL     1       0.419  10.792  21.036  0.00  0.00    +0.000 C 
ENDBRANCH  18  20
BRANCH  18  21
ATOM     21  C   UNL     1      -1.099  11.326  19.160  0.00  0.00    +0.000 C 
ATOM     22  C   UNL     1      -1.719  10.766  17.881  0.00  0.00    +0.000 C 
ENDBRANCH  18  21
ENDBRANCH  17  18
ENDBRANCH  16  17
ENDBRANCH  15  16
ENDBRANCH  11  15
ENDBRANCH   1  12
BRANCH   3  23
ATOM     23  S   UNL     1       7.155   5.203  18.391  0.00  0.00    +0.000 S 
BRANCH  23  24
ATOM     24  C   UNL     1       6.966   4.987  16.665  0.00  0.00    +0.000 A 
ATOM     25  N   UNL     1       7.578   5.729  15.764  0.00  0.00    +0.000 NA
ATOM     26  N   UNL     1       7.242   5.375  14.474  0.00  0.00    +0.000 NA
ATOM     27  C   UNL     1       6.375   4.385  14.444  0.00  0.00    +0.000 A 
ATOM     28  C   UNL     1       5.830   3.764  13.210  0.00  0.00    +0.000 C 
ATOM     29  S   UNL     1       5.893   3.826  15.996  0.00  0.00    +0.000 S 
ENDBRANCH  23  24
ENDBRANCH   3  23
TORSDOF 9
ENDMDL
MODEL 2
REMARK VINA RESULT:      -7.9      1.083      1.344
REMARK  Name = 
REMARK  12 active torsions:
REMARK  status: ('A' for Active; 'I' for Inactive)
REMARK    1  A    between atoms: C_1  and  C_2
REMARK    2  A    between atoms: C_2  and  N_3
REMARK    3  A    between atoms: N_3  and  C_4
REMARK    4  A    between atoms: N_3  and  C_6
REMARK    5  A    between atoms: C_4  and  C_5
REMARK    6  A    between atoms: C_6  and  C_7
REMARK    7  A    between atoms: C_7  and  C_8
REMARK    8  A    between atoms: C_8  and  N_9
REMARK    9  A    between atoms: C_10  and  C_12
REMARK   10  A    between atoms: C_14  and  S_15
REMARK   11  A    between atoms: S_15  and  C_16
REMARK   12  A    between atoms: C_19  and  C_20
REMARK                            x       y       z     vdW  Elec       q    Type
REMARK                         _______ _______ _______ _____ _____    ______ ____
ROOT
ATOM      1  C   UNL     1       3.395   6.001  18.918  0.00  0.00    +0.000 A 
ATOM      2  C   UNL     1       4.734   6.040  18.521  0.00  0.00    +0.000 A 
ATOM      3  C   UNL     1       5.437   4.857  18.424  0.00  0.00    +0.000 A 
ATOM      4  N   UNL     1       4.860   3.654  18.621  0.00  0.00    +0.000 NA
ATOM      5  C   UNL     1       3.556   3.605  18.943  0.00  0.00    +0.000 A 
ATOM      6  C   UNL     1       2.988   2.344  19.092  0.00  0.00    +0.000 A 
ATOM      7  C   UNL     1       1.646   2.172  19.431  0.00  0.00    +0.000 A 
ATOM      8  C   UNL     1       0.846   3.282  19.639  0.00  0.00    +0.000 A 
ATOM      9  C   UNL     1       1.394   4.557  19.495  0.00  0.00    +0.000 A 
ATOM     10  C   UNL     1       2.752   4.750  19.129  0.00  0.00    +0.000 A 
ENDROOT
BRANCH   1  12
ATOM     11  N   UNL     1       2.677   8.112  17.919  0.00  0.00    +0.000 N 
ATOM     12  C   UNL     1       2.676   7.308  19.044  0.00  0.00    +0.000 C 
ATOM     13  O   UNL     1       2.115   7.629  20.084  0.00  0.00    +0.000 OA
ATOM     14  H   UNL     1       3.271   7.898  17.127  0.00  0.00    +0.000 HD
BRANCH  11  15
ATOM     15  C   UNL     1       2.025   9.409  17.900  0.00  0.00    +0.000 C 
BRANCH  15  16
ATOM     16  C   UNL     1       0.508   9.288  17.794  0.00  0.00    +0.000 C 
BRANCH  16  17
ATOM     17  C   UNL     1      -0.258  10.023  18.907  0.00  0.00    +0.000 C 
BRANCH  17  18
ATOM     18  N   UNL     1      -1.489  10.718  18.478  0.00  0.00    +0.000 NA
BRANCH  18  20
ATOM     19  C   UNL     1      -1.122  13.058  19.358  0.00  0.00    +0.000 C 
ATOM     20  C   UNL     1      -1.237  12.131  18.151  0.00  0.00    +0.000 C 
ENDBRANCH  18  20
BRANCH  18  21
ATOM     21  C   UNL     1      -2.178   9.970  17.409  0.00  0.00    +0.000 C 
ATOM     22  C   UNL     1      -3.572  10.463  17.025  0.00  0.00    +0.000 C 
ENDBRANCH  18  21
ENDBRANCH  17  18
ENDBRANCH  16  17
ENDBRANCH  15  16
ENDBRANCH  11  15
ENDBRANCH   1  12
BRANCH   3  23
ATOM     23  S   UNL     1       7.148   4.836  17.930  0.00  0.00    +0.000 S 
BRANCH  23  24
ATOM     24  C   UNL     1       6.959   4.704  16.196  0.00  0.00    +0.000 A 
ATOM     25  N   UNL     1       7.597   5.466  15.330  0.00  0.00    +0.000 NA
ATOM     26  N   UNL     1       7.256   5.181  14.024  0.00  0.00    +0.000 NA
ATOM     27  C   UNL     1       6.358   4.221  13.948  0.00  0.00    +0.000 A 
ATOM     28  C   UNL     1       5.799   3.674  12.686  0.00  0.00    +0.000 C 
ATOM     29  S   UNL     1       5.852   3.609  15.472  0.00  0.00    +0.000 S 
ENDBRANCH  23  24
ENDBRANCH   3  23
TORSDOF 9
ENDMDL
MODEL 3
REMARK VINA RESULT:      -7.8      1.371      1.862
REMARK  Name = 
REMARK  12 active torsions:
REMARK  status: ('A' for Active; 'I' for Inactive)
REMARK    1  A    between atoms: C_1  and  C_2
REMARK    2  A    between atoms: C_2  and  N_3
REMARK    3  A    between atoms: N_3  and  C_4
REMARK    4  A    between atoms: N_3  and  C_6
REMARK    5  A    between atoms: C_4  and  C_5
REMARK    6  A    between atoms: C_6  and  C_7
REMARK    7  A    between atoms: C_7  and  C_8
REMARK    8  A    between atoms: C_8  and  N_9
REMARK    9  A    between atoms: C_10  and  C_12
REMARK   10  A    between atoms: C_14  and  S_15
REMARK   11  A    between atoms: S_15  and  C_16
REMARK   12  A    between atoms: C_19  and  C_20
REMARK                            x       y       z     vdW  Elec       q    Type
REMARK                         _______ _______ _______ _____ _____    ______ ____
ROOT
ATOM      1  C   UNL     1       3.399   6.048  19.008  0.00  0.00    +0.000 A 
ATOM      2  C   UNL     1       4.714   6.111  18.540  0.00  0.00    +0.000 A 
ATOM      3  C   UNL     1       5.552   5.037  18.753  0.00  0.00    +0.000 A 
ATOM      4  N   UNL     1       5.129   3.891  19.327  0.00  0.00    +0.000 NA
ATOM      5  C   UNL     1       3.848   3.800  19.723  0.00  0.00    +0.000 A 
ATOM      6  C   UNL     1       3.439   2.587  20.267  0.00  0.00    +0.000 A 
ATOM      7  C   UNL     1       2.136   2.379  20.719  0.00  0.00    +0.000 A 
ATOM      8  C   UNL     1       1.213   3.408  20.638  0.00  0.00    +0.000 A 
ATOM      9  C   UNL     1       1.600   4.634  20.097  0.00  0.00    +0.000 A 
ATOM     10  C   UNL     1       2.917   4.854  19.612  0.00  0.00    +0.000 A 
ENDROOT
BRANCH   1  12
ATOM     11  N   UNL     1       2.043   7.862  19.926  0.00  0.00    +0.000 N 
ATOM     12  C   UNL     1       2.532   7.248  18.787  0.00  0.00    +0.000 C 
ATOM     13  O   UNL     1       2.286   7.659  17.659  0.00  0.00    +0.000 OA
ATOM     14  H   UNL     1       2.132   7.420  20.834  0.00  0.00    +0.000 HD
BRANCH  11  15
ATOM     15  C   UNL     1       1.185   9.030  19.862  0.00  0.00    +0.000 C 
BRANCH  15  16
ATOM     16  C   UNL     1       0.463   9.286  21.181  0.00  0.00    +0.000 C 
BRANCH  16  17
ATOM     17  C   UNL     1      -0.399  10.560  21.187  0.00  0.00    +0.000 C 
BRANCH  17  18
ATOM     18  N   UNL     1       0.261  11.770  21.719  0.00  0.00    +0.000 NA
BRANCH  18  20
ATOM     19  C   UNL     1       1.541  13.846  21.061  0.00  0.00    +0.000 C 
ATOM     20  C   UNL     1       1.100  12.430  20.705  0.00  0.00    +0.000 C 
ENDBRANCH  18  20
BRANCH  18  21
ATOM     21  C   UNL     1      -0.716  12.668  22.364  0.00  0.00    +0.000 C 
ATOM     22  C   UNL     1      -1.846  11.996  23.143  0.00  0.00    +0.000 C 
ENDBRANCH  18  21
ENDBRANCH  17  18
ENDBRANCH  16  17
ENDBRANCH  15  16
ENDBRANCH  11  15
ENDBRANCH   1  12
BRANCH   3  23
ATOM     23  S   UNL     1       7.241   5.055  18.190  0.00  0.00    +0.000 S 
BRANCH  23  24
ATOM     24  C   UNL     1       6.986   4.871  16.468  0.00  0.00    +0.000 A 
ATOM     25  N   UNL     1       7.589   5.608  15.557  0.00  0.00    +0.000 NA
ATOM     26  N   UNL     1       7.198   5.283  14.274  0.00  0.00    +0.000 NA
ATOM     27  C   UNL     1       6.300   4.321  14.261  0.00  0.00    +0.000 A 
ATOM     28  C   UNL     1       5.695   3.735  13.038  0.00  0.00    +0.000 C 
ATOM     29  S   UNL     1       5.856   3.753  15.821  0.00  0.00    +0.000 S 
ENDBRANCH  23  24
ENDBRANCH   3  23
TORSDOF 9
ENDMDL
MODEL 4
REMARK VINA RESULT:      -7.8      1.243      1.911
REMARK  Name = 
REMARK  12 active torsions:
REMARK  status: ('A' for Active; 'I' for Inactive)
REMARK    1  A    between atoms: C_1  and  C_2
REMARK    2  A    between atoms: C_2  and  N_3
REMARK    3  A    between atoms: N_3  and  C_4
REMARK    4  A    between atoms: N_3  and  C_6
REMARK    5  A    between atoms: C_4  and  C_5
REMARK    6  A    between atoms: C_6  and  C_7
REMARK    7  A    between atoms: C_7  and  C_8
REMARK    8  A    between atoms: C_8  and  N_9
REMARK    9  A    between atoms: C_10  and  C_12
REMARK   10  A    between atoms: C_14  and  S_15
REMARK   11  A    between atoms: S_15  and  C_16
REMARK   12  A    between atoms: C_19  and  C_20
REMARK                            x       y       z     vdW  Elec       q    Type
REMARK                         _______ _______ _______ _____ _____    ______ ____
ROOT
ATOM      1  C   UNL     1       3.273   5.831  18.837  0.00  0.00    +0.000 A 
ATOM      2  C   UNL     1       4.614   5.935  18.459  0.00  0.00    +0.000 A 
ATOM      3  C   UNL     1       5.387   4.793  18.417  0.00  0.00    +0.000 A 
ATOM      4  N   UNL     1       4.878   3.566  18.651  0.00  0.00    +0.000 NA
ATOM      5  C   UNL     1       3.574   3.452  18.955  0.00  0.00    +0.000 A 
ATOM      6  C   UNL     1       3.078   2.166  19.143  0.00  0.00    +0.000 A 
ATOM      7  C   UNL     1       1.743   1.927  19.469  0.00  0.00    +0.000 A 
ATOM      8  C   UNL     1       0.876   2.995  19.623  0.00  0.00    +0.000 A 
ATOM      9  C   UNL     1       1.351   4.294  19.439  0.00  0.00    +0.000 A 
ATOM     10  C   UNL     1       2.701   4.553  19.086  0.00  0.00    +0.000 A 
ENDROOT
BRANCH   1  12
ATOM     11  N   UNL     1       2.219   7.588  20.170  0.00  0.00    +0.000 N 
ATOM     12  C   UNL     1       2.477   7.097  18.903  0.00  0.00    +0.000 C 
ATOM     13  O   UNL     1       2.093   7.663  17.886  0.00  0.00    +0.000 OA
ATOM     14  H   UNL     1       2.412   7.029  20.993  0.00  0.00    +0.000 HD
BRANCH  11  15
ATOM     15  C   UNL     1       1.453   8.801  20.383  0.00  0.00    +0.000 C 
BRANCH  15  16
ATOM     16  C   UNL     1       0.307   8.592  21.368  0.00  0.00    +0.000 C 
BRANCH  16  17
ATOM     17  C   UNL     1      -0.534   9.854  21.628  0.00  0.00    +0.000 C 
BRANCH  17  18
ATOM     18  N   UNL     1      -0.280  10.985  20.714  0.00  0.00    +0.000 NA
BRANCH  18  20
ATOM     19  C   UNL     1      -0.998  10.512  18.338  0.00  0.00    +0.000 C 
ATOM     20  C   UNL     1      -1.336  11.118  19.697  0.00  0.00    +0.000 C 
ENDBRANCH  18  20
BRANCH  18  21
ATOM     21  C   UNL     1      -0.012  12.227  21.465  0.00  0.00    +0.000 C 
ATOM     22  C   UNL     1       0.135  13.502  20.638  0.00  0.00    +0.000 C 
ENDBRANCH  18  21
ENDBRANCH  17  18
ENDBRANCH  16  17
ENDBRANCH  15  16
ENDBRANCH  11  15
ENDBRANCH   1  12
BRANCH   3  23
ATOM     23  S   UNL     1       7.104   4.856  17.950  0.00  0.00    +0.000 S 
BRANCH  23  24
ATOM     24  C   UNL     1       6.949   4.715  16.213  0.00  0.00    +0.000 A 
ATOM     25  N   UNL     1       7.592   5.483  15.356  0.00  0.00    +0.000 NA
ATOM     26  N   UNL     1       7.279   5.187  14.046  0.00  0.00    +0.000 NA
ATOM     27  C   UNL     1       6.396   4.215  13.957  0.00  0.00    +0.000 A 
ATOM     28  C   UNL     1       5.868   3.655  12.687  0.00  0.00    +0.000 C 
ATOM     29  S   UNL     1       5.872   3.601  15.473  0.00  0.00    +0.000 S 
ENDBRANCH  23  24
ENDBRANCH   3  23
TORSDOF 9
ENDMDL
MODEL 5
REMARK VINA RESULT:      -7.8      1.192      1.453
REMARK  Name = 
REMARK  12 active torsions:
REMARK  status: ('A' for Active; 'I' for Inactive)
REMARK    1  A    between atoms: C_1  and  C_2
REMARK    2  A    between atoms: C_2  and  N_3
REMARK    3  A    between atoms: N_3  and  C_4
REMARK    4  A    between atoms: N_3  and  C_6
REMARK    5  A    between atoms: C_4  and  C_5
REMARK    6  A    between atoms: C_6  and  C_7
REMARK    7  A    between atoms: C_7  and  C_8
REMARK    8  A    between atoms: C_8  and  N_9
REMARK    9  A    between atoms: C_10  and  C_12
REMARK   10  A    between atoms: C_14  and  S_15
REMARK   11  A    between atoms: S_15  and  C_16
REMARK   12  A    between atoms: C_19  and  C_20
REMARK                            x       y       z     vdW  Elec       q    Type
REMARK                         _______ _______ _______ _____ _____    ______ ____
ROOT
ATOM      1  C   UNL     1       3.317   6.101  19.019  0.00  0.00    +0.000 A 
ATOM      2  C   UNL     1       4.646   6.157  18.591  0.00  0.00    +0.000 A 
ATOM      3  C   UNL     1       5.459   5.061  18.790  0.00  0.00    +0.000 A 
ATOM      4  N   UNL     1       5.000   3.905  19.311  0.00  0.00    +0.000 NA
ATOM      5  C   UNL     1       3.707   3.823  19.668  0.00  0.00    +0.000 A 
ATOM      6  C   UNL     1       3.262   2.599  20.158  0.00  0.00    +0.000 A 
ATOM      7  C   UNL     1       1.944   2.399  20.565  0.00  0.00    +0.000 A 
ATOM      8  C   UNL     1       1.041   3.446  20.495  0.00  0.00    +0.000 A 
ATOM      9  C   UNL     1       1.464   4.683  20.008  0.00  0.00    +0.000 A 
ATOM     10  C   UNL     1       2.797   4.896  19.568  0.00  0.00    +0.000 A 
ENDROOT
BRANCH   1  12
ATOM     11  N   UNL     1       1.927   7.879  19.957  0.00  0.00    +0.000 N 
ATOM     12  C   UNL     1       2.477   7.323  18.817  0.00  0.00    +0.000 C 
ATOM     13  O   UNL     1       2.303   7.801  17.701  0.00  0.00    +0.000 OA
ATOM     14  H   UNL     1       1.956   7.385  20.842  0.00  0.00    +0.000 HD
BRANCH  11  15
ATOM     15  C   UNL     1       1.085   9.060  19.909  0.00  0.00    +0.000 C 
BRANCH  15  16
ATOM     16  C   UNL     1       0.854   9.657  21.294  0.00  0.00    +0.000 C 
BRANCH  16  17
ATOM     17  C   UNL     1       0.652  11.182  21.292  0.00  0.00    +0.000 C 
BRANCH  17  18
ATOM     18  N   UNL     1      -0.753  11.637  21.303  0.00  0.00    +0.000 NA
BRANCH  18  20
ATOM     19  C   UNL     1      -2.396  11.907  23.203  0.00  0.00    +0.000 C 
ATOM     20  C   UNL     1      -1.092  12.349  22.546  0.00  0.00    +0.000 C 
ENDBRANCH  18  20
BRANCH  18  21
ATOM     21  C   UNL     1      -1.078  12.388  20.075  0.00  0.00    +0.000 C 
ATOM     22  C   UNL     1      -2.232  11.846  19.232  0.00  0.00    +0.000 C 
ENDBRANCH  18  21
ENDBRANCH  17  18
ENDBRANCH  16  17
ENDBRANCH  15  16
ENDBRANCH  11  15
ENDBRANCH   1  12
BRANCH   3  23
ATOM     23  S   UNL     1       7.163   5.069  18.275  0.00  0.00    +0.000 S 
BRANCH  23  24
ATOM     24  C   UNL     1       6.956   4.879  16.547  0.00  0.00    +0.000 A 
ATOM     25  N   UNL     1       7.575   5.621  15.651  0.00  0.00    +0.000 NA
ATOM     26  N   UNL     1       7.222   5.290  14.359  0.00  0.00    +0.000 NA
ATOM     27  C   UNL     1       6.336   4.317  14.324  0.00  0.00    +0.000 A 
ATOM     28  C   UNL     1       5.770   3.722  13.086  0.00  0.00    +0.000 C 
ATOM     29  S   UNL     1       5.856   3.747  15.872  0.00  0.00    +0.000 S 
ENDBRANCH  23  24
ENDBRANCH   3  23
TORSDOF 9
ENDMDL
MODEL 6
REMARK VINA RESULT:      -7.7      0.823      1.342
REMARK  Name = 
REMARK  12 active torsions:
REMARK  status: ('A' for Active; 'I' for Inactive)
REMARK    1  A    between atoms: C_1  and  C_2
REMARK    2  A    between atoms: C_2  and  N_3
REMARK    3  A    between atoms: N_3  and  C_4
REMARK    4  A    between atoms: N_3  and  C_6
REMARK    5  A    between atoms: C_4  and  C_5
REMARK    6  A    between atoms: C_6  and  C_7
REMARK    7  A    between atoms: C_7  and  C_8
REMARK    8  A    between atoms: C_8  and  N_9
REMARK    9  A    between atoms: C_10  and  C_12
REMARK   10  A    between atoms: C_14  and  S_15
REMARK   11  A    between atoms: S_15  and  C_16
REMARK   12  A    between atoms: C_19  and  C_20
REMARK                            x       y       z     vdW  Elec       q    Type
REMARK                         _______ _______ _______ _____ _____    ______ ____
ROOT
ATOM      1  C   UNL     1       3.243   5.933  18.959  0.00  0.00    +0.000 A 
ATOM      2  C   UNL     1       4.583   6.081  18.594  0.00  0.00    +0.000 A 
ATOM      3  C   UNL     1       5.397   4.968  18.575  0.00  0.00    +0.000 A 
ATOM      4  N   UNL     1       4.930   3.726  18.820  0.00  0.00    +0.000 NA
ATOM      5  C   UNL     1       3.628   3.569  19.110  0.00  0.00    +0.000 A 
ATOM      6  C   UNL     1       3.176   2.268  19.309  0.00  0.00    +0.000 A 
ATOM      7  C   UNL     1       1.848   1.984  19.623  0.00  0.00    +0.000 A 
ATOM      8  C   UNL     1       0.940   3.023  19.754  0.00  0.00    +0.000 A 
ATOM      9  C   UNL     1       1.370   4.335  19.559  0.00  0.00    +0.000 A 
ATOM     10  C   UNL     1       2.715   4.639  19.217  0.00  0.00    +0.000 A 
ENDROOT
BRANCH   1  12
ATOM     11  N   UNL     1       2.135   7.766  17.780  0.00  0.00    +0.000 N 
ATOM     12  C   UNL     1       2.401   7.171  19.000  0.00  0.00    +0.000 C 
ATOM     13  O   UNL     1       1.968   7.613  20.057  0.00  0.00    +0.000 OA
ATOM     14  H   UNL     1       2.625   7.474  16.942  0.00  0.00    +0.000 HD
BRANCH  11  15
ATOM     15  C   UNL     1       1.339   8.974  17.670  0.00  0.00    +0.000 C 
BRANCH  15  16
ATOM     16  C   UNL     1       2.094  10.207  18.158  0.00  0.00    +0.000 C 
BRANCH  16  17
ATOM     17  C   UNL     1       1.270  11.121  19.080  0.00  0.00    +0.000 C 
BRANCH  17  18
ATOM     18  N   UNL     1       0.025  11.657  18.495  0.00  0.00    +0.000 NA
BRANCH  18  20
ATOM     19  C   UNL     1      -2.091  10.301  18.229  0.00  0.00    +0.000 C 
ATOM     20  C   UNL     1      -1.173  11.102  19.148  0.00  0.00    +0.000 C 
ENDBRANCH  18  20
BRANCH  18  21
ATOM     21  C   UNL     1       0.051  13.131  18.447  0.00  0.00    +0.000 C 
ATOM     22  C   UNL     1      -0.387  13.861  19.715  0.00  0.00    +0.000 C 
ENDBRANCH  18  21
ENDBRANCH  17  18
ENDBRANCH  16  17
ENDBRANCH  15  16
ENDBRANCH  11  15
ENDBRANCH   1  12
BRANCH   3  23
ATOM     23  S   UNL     1       7.116   5.087  18.127  0.00  0.00    +0.000 S 
BRANCH  23  24
ATOM     24  C   UNL     1       6.988   4.901  16.391  0.00  0.00    +0.000 A 
ATOM     25  N   UNL     1       7.588   5.692  15.525  0.00  0.00    +0.000 NA
ATOM     26  N   UNL     1       7.307   5.350  14.218  0.00  0.00    +0.000 NA
ATOM     27  C   UNL     1       6.492   4.320  14.141  0.00  0.00    +0.000 A 
ATOM     28  C   UNL     1       6.015   3.701  12.879  0.00  0.00    +0.000 C 
ATOM     29  S   UNL     1       5.994   3.703  15.666  0.00  0.00    +0.000 S 
ENDBRANCH  23  24
ENDBRANCH   3  23
TORSDOF 9
ENDMDL
MODEL 7
REMARK VINA RESULT:      -7.6      1.221      1.796
REMARK  Name = 
REMARK  12 active torsions:
REMARK  status: ('A' for Active; 'I' for Inactive)
REMARK    1  A    between atoms: C_1  and  C_2
REMARK    2  A    between atoms: C_2  and  N_3
REMARK    3  A    between atoms: N_3  and  C_4
REMARK    4  A    between atoms: N_3  and  C_6
REMARK    5  A    between atoms: C_4  and  C_5
REMARK    6  A    between atoms: C_6  and  C_7
REMARK    7  A    between atoms: C_7  and  C_8
REMARK    8  A    between atoms: C_8  and  N_9
REMARK    9  A    between atoms: C_10  and  C_12
REMARK   10  A    between atoms: C_14  and  S_15
REMARK   11  A    between atoms: S_15  and  C_16
REMARK   12  A    between atoms: C_19  and  C_20
REMARK                            x       y       z     vdW  Elec       q    Type
REMARK                         _______ _______ _______ _____ _____    ______ ____
ROOT
ATOM      1  C   UNL     1       3.084   5.691  19.369  0.00  0.00    +0.000 A 
ATOM      2  C   UNL     1       4.425   5.948  19.072  0.00  0.00    +0.000 A 
ATOM      3  C   UNL     1       5.239   4.900  18.697  0.00  0.00    +0.000 A 
ATOM      4  N   UNL     1       4.773   3.645  18.529  0.00  0.00    +0.000 NA
ATOM      5  C   UNL     1       3.470   3.403  18.753  0.00  0.00    +0.000 A 
ATOM      6  C   UNL     1       3.019   2.107  18.524  0.00  0.00    +0.000 A 
ATOM      7  C   UNL     1       1.690   1.738  18.729  0.00  0.00    +0.000 A 
ATOM      8  C   UNL     1       0.783   2.678  19.186  0.00  0.00    +0.000 A 
ATOM      9  C   UNL     1       1.212   3.984  19.423  0.00  0.00    +0.000 A 
ATOM     10  C   UNL     1       2.557   4.381  19.198  0.00  0.00    +0.000 A 
ENDROOT
BRANCH   1  12
ATOM     11  N   UNL     1       2.228   7.943  18.959  0.00  0.00    +0.000 N 
ATOM     12  C   UNL     1       2.242   6.849  19.805  0.00  0.00    +0.000 C 
ATOM     13  O   UNL     1       1.598   6.814  20.847  0.00  0.00    +0.000 OA
ATOM     14  H   UNL     1       2.881   8.011  18.187  0.00  0.00    +0.000 HD
BRANCH  11  15
ATOM     15  C   UNL     1       1.461   9.138  19.258  0.00  0.00    +0.000 C 
BRANCH  15  16
ATOM     16  C   UNL     1       0.920   9.805  17.997  0.00  0.00    +0.000 C 
BRANCH  16  17
ATOM     17  C   UNL     1      -0.615   9.813  17.902  0.00  0.00    +0.000 C 
BRANCH  17  18
ATOM     18  N   UNL     1      -1.245  11.148  17.920  0.00  0.00    +0.000 NA
BRANCH  18  20
ATOM     19  C   UNL     1      -3.358   9.812  17.552  0.00  0.00    +0.000 C 
ATOM     20  C   UNL     1      -2.701  11.067  18.120  0.00  0.00    +0.000 C 
ENDBRANCH  18  20
BRANCH  18  21
ATOM     21  C   UNL     1      -0.559  12.047  18.869  0.00  0.00    +0.000 C 
ATOM     22  C   UNL     1      -0.274  13.465  18.376  0.00  0.00    +0.000 C 
ENDBRANCH  18  21
ENDBRANCH  17  18
ENDBRANCH  16  17
ENDBRANCH  15  16
ENDBRANCH  11  15
ENDBRANCH   1  12
BRANCH   3  23
ATOM     23  S   UNL     1       6.959   5.157  18.311  0.00  0.00    +0.000 S 
BRANCH  23  24
ATOM     24  C   UNL     1       6.909   4.961  16.573  0.00  0.00    +0.000 A 
ATOM     25  N   UNL     1       7.572   5.730  15.732  0.00  0.00    +0.000 NA
ATOM     26  N   UNL     1       7.346   5.386  14.415  0.00  0.00    +0.000 NA
ATOM     27  C   UNL     1       6.507   4.378  14.306  0.00  0.00    +0.000 A 
ATOM     28  C   UNL     1       6.075   3.762  13.025  0.00  0.00    +0.000 C 
ATOM     29  S   UNL     1       5.919   3.786  15.808  0.00  0.00    +0.000 S 
ENDBRANCH  23  24
ENDBRANCH   3  23
TORSDOF 9
ENDMDL
MODEL 8
REMARK VINA RESULT:      -7.6      0.893      1.172
REMARK  Name = 
REMARK  12 active torsions:
REMARK  status: ('A' for Active; 'I' for Inactive)
REMARK    1  A    between atoms: C_1  and  C_2
REMARK    2  A    between atoms: C_2  and  N_3
REMARK    3  A    between atoms: N_3  and  C_4
REMARK    4  A    between atoms: N_3  and  C_6
REMARK    5  A    between atoms: C_4  and  C_5
REMARK    6  A    between atoms: C_6  and  C_7
REMARK    7  A    between atoms: C_7  and  C_8
REMARK    8  A    between atoms: C_8  and  N_9
REMARK    9  A    between atoms: C_10  and  C_12
REMARK   10  A    between atoms: C_14  and  S_15
REMARK   11  A    between atoms: S_15  and  C_16
REMARK   12  A    between atoms: C_19  and  C_20
REMARK                            x       y       z     vdW  Elec       q    Type
REMARK                         _______ _______ _______ _____ _____    ______ ____
ROOT
ATOM      1  C   UNL     1       3.431   5.950  18.926  0.00  0.00    +0.000 A 
ATOM      2  C   UNL     1       4.766   5.998  18.520  0.00  0.00    +0.000 A 
ATOM      3  C   UNL     1       5.477   4.820  18.418  0.00  0.00    +0.000 A 
ATOM      4  N   UNL     1       4.909   3.613  18.620  0.00  0.00    +0.000 NA
ATOM      5  C   UNL     1       3.608   3.556  18.950  0.00  0.00    +0.000 A 
ATOM      6  C   UNL     1       3.050   2.291  19.104  0.00  0.00    +0.000 A 
ATOM      7  C   UNL     1       1.712   2.109  19.453  0.00  0.00    +0.000 A 
ATOM      8  C   UNL     1       0.905   3.215  19.666  0.00  0.00    +0.000 A 
ATOM      9  C   UNL     1       1.444   4.493  19.518  0.00  0.00    +0.000 A 
ATOM     10  C   UNL     1       2.798   4.695  19.142  0.00  0.00    +0.000 A 
ENDROOT
BRANCH   1  12
ATOM     11  N   UNL     1       2.625   8.022  17.910  0.00  0.00    +0.000 N 
ATOM     12  C   UNL     1       2.704   7.252  19.057  0.00  0.00    +0.000 C 
ATOM     13  O   UNL     1       2.202   7.599  20.119  0.00  0.00    +0.000 OA
ATOM     14  H   UNL     1       3.173   7.790  17.090  0.00  0.00    +0.000 HD
BRANCH  11  15
ATOM     15  C   UNL     1       1.957   9.310  17.893  0.00  0.00    +0.000 C 
BRANCH  15  16
ATOM     16  C   UNL     1       0.441   9.172  17.997  0.00  0.00    +0.000 C 
BRANCH  16  17
ATOM     17  C   UNL     1      -0.294  10.504  18.225  0.00  0.00    +0.000 C 
BRANCH  17  18
ATOM     18  N   UNL     1      -0.408  10.934  19.633  0.00  0.00    +0.000 NA
BRANCH  18  20
ATOM     19  C   UNL     1       0.186  10.082  21.936  0.00  0.00    +0.000 C 
ATOM     20  C   UNL     1      -0.405   9.790  20.559  0.00  0.00    +0.000 C 
ENDBRANCH  18  20
BRANCH  18  21
ATOM     21  C   UNL     1       0.593  11.969  19.955  0.00  0.00    +0.000 C 
ATOM     22  C   UNL     1       0.378  13.343  19.324  0.00  0.00    +0.000 C 
ENDBRANCH  18  21
ENDBRANCH  17  18
ENDBRANCH  16  17
ENDBRANCH  15  16
ENDBRANCH  11  15
ENDBRANCH   1  12
BRANCH   3  23
ATOM     23  S   UNL     1       7.184   4.811  17.912  0.00  0.00    +0.000 S 
BRANCH  23  24
ATOM     24  C   UNL     1       6.984   4.691  16.178  0.00  0.00    +0.000 A 
ATOM     25  N   UNL     1       7.595   5.478  15.315  0.00  0.00    +0.000 NA
ATOM     26  N   UNL     1       7.250   5.197  14.009  0.00  0.00    +0.000 NA
ATOM     27  C   UNL     1       6.376   4.216  13.931  0.00  0.00    +0.000 A 
ATOM     28  C   UNL     1       5.820   3.667  12.668  0.00  0.00    +0.000 C 
ATOM     29  S   UNL     1       5.899   3.575  15.453  0.00  0.00    +0.000 S 
ENDBRANCH  23  24
ENDBRANCH   3  23
TORSDOF 9
ENDMDL
MODEL 9
REMARK VINA RESULT:      -7.6      1.131      1.394
REMARK  Name = 
REMARK  12 active torsions:
REMARK  status: ('A' for Active; 'I' for Inactive)
REMARK    1  A    between atoms: C_1  and  C_2
REMARK    2  A    between atoms: C_2  and  N_3
REMARK    3  A    between atoms: N_3  and  C_4
REMARK    4  A    between atoms: N_3  and  C_6
REMARK    5  A    between atoms: C_4  and  C_5
REMARK    6  A    between atoms: C_6  and  C_7
REMARK    7  A    between atoms: C_7  and  C_8
REMARK    8  A    between atoms: C_8  and  N_9
REMARK    9  A    between atoms: C_10  and  C_12
REMARK   10  A    between atoms: C_14  and  S_15
REMARK   11  A    between atoms: S_15  and  C_16
REMARK   12  A    between atoms: C_19  and  C_20
REMARK                            x       y       z     vdW  Elec       q    Type
REMARK                         _______ _______ _______ _____ _____    ______ ____
ROOT
ATOM      1  C   UNL     1       3.350   6.076  18.895  0.00  0.00    +0.000 A 
ATOM      2  C   UNL     1       4.670   6.111  18.438  0.00  0.00    +0.000 A 
ATOM      3  C   UNL     1       5.501   5.045  18.711  0.00  0.00    +0.000 A 
ATOM      4  N   UNL     1       5.066   3.930  19.336  0.00  0.00    +0.000 NA
ATOM      5  C   UNL     1       3.781   3.864  19.723  0.00  0.00    +0.000 A 
ATOM      6  C   UNL     1       3.361   2.680  20.321  0.00  0.00    +0.000 A 
ATOM      7  C   UNL     1       2.053   2.500  20.770  0.00  0.00    +0.000 A 
ATOM      8  C   UNL     1       1.136   3.528  20.631  0.00  0.00    +0.000 A 
ATOM      9  C   UNL     1       1.534   4.724  20.034  0.00  0.00    +0.000 A 
ATOM     10  C   UNL     1       2.856   4.915  19.552  0.00  0.00    +0.000 A 
ENDROOT
BRANCH   1  12
ATOM     11  N   UNL     1       2.098   8.012  19.705  0.00  0.00    +0.000 N 
ATOM     12  C   UNL     1       2.491   7.267  18.608  0.00  0.00    +0.000 C 
ATOM     13  O   UNL     1       2.171   7.562  17.463  0.00  0.00    +0.000 OA
ATOM     14  H   UNL     1       2.244   7.667  20.647  0.00  0.00    +0.000 HD
BRANCH  11  15
ATOM     15  C   UNL     1       1.258   9.188  19.577  0.00  0.00    +0.000 C 
BRANCH  15  16
ATOM     16  C   UNL     1       0.246   9.300  20.713  0.00  0.00    +0.000 C 
BRANCH  16  17
ATOM     17  C   UNL     1       0.416  10.558  21.581  0.00  0.00    +0.000 C 
BRANCH  17  18
ATOM     18  N   UNL     1      -0.220  11.782  21.056  0.00  0.00    +0.000 NA
BRANCH  18  20
ATOM     19  C   UNL     1       0.981  13.976  21.416  0.00  0.00    +0.000 C 
ATOM     20  C   UNL     1       0.772  12.742  20.543  0.00  0.00    +0.000 C 
ENDBRANCH  18  20
BRANCH  18  21
ATOM     21  C   UNL     1      -1.289  11.455  20.093  0.00  0.00    +0.000 C 
ATOM     22  C   UNL     1      -1.273  12.223  18.773  0.00  0.00    +0.000 C 
ENDBRANCH  18  21
ENDBRANCH  17  18
ENDBRANCH  16  17
ENDBRANCH  15  16
ENDBRANCH  11  15
ENDBRANCH   1  12
BRANCH   3  23
ATOM     23  S   UNL     1       7.195   5.028  18.164  0.00  0.00    +0.000 S 
BRANCH  23  24
ATOM     24  C   UNL     1       6.953   4.843  16.441  0.00  0.00    +0.000 A 
ATOM     25  N   UNL     1       7.559   5.582  15.533  0.00  0.00    +0.000 NA
ATOM     26  N   UNL     1       7.179   5.256  14.248  0.00  0.00    +0.000 NA
ATOM     27  C   UNL     1       6.285   4.290  14.229  0.00  0.00    +0.000 A 
ATOM     28  C   UNL     1       5.690   3.701  13.002  0.00  0.00    +0.000 C 
ATOM     29  S   UNL     1       5.831   3.720  15.785  0.00  0.00    +0.000 S 
ENDBRANCH  23  24
ENDBRANCH   3  23
TORSDOF 9
ENDMDL
