MODEL 1
REMARK VINA RESULT:      -7.0      0.000      0.000
REMARK  Name = 
REMARK  12 active torsions:
REMARK  status: ('A' for Active; 'I' for Inactive)
REMARK    1  A    between atoms: C_1  and  C_2
REMARK    2  A    between atoms: C_2  and  C_3
REMARK    3  A    between atoms: C_2  and  C_4
REMARK    4  A    between atoms: C_7  and  C_8
REMARK    5  A    between atoms: N_10  and  C_11
REMARK    6  A    between atoms: C_11  and  C_12
REMARK    7  A    between atoms: C_17  and  N_18
REMARK    8  A    between atoms: N_18  and  C_19
REMARK    9  A    between atoms: C_19  and  C_20
REMARK   10  A    between atoms: C_20  and  N_21
REMARK   11  A    between atoms: N_21  and  C_22
REMARK   12  A    between atoms: N_21  and  C_23
REMARK                            x       y       z     vdW  Elec       q    Type
REMARK                         _______ _______ _______ _____ _____    ______ ____
ROOT
ATOM      1  C   UNL     1       4.392   5.651  18.857  0.00  0.00    +0.000 C 
ENDROOT
BRANCH   1   2
ATOM      2  C   UNL     1       3.360   6.766  18.910  0.00  0.00    +0.000 A 
ATOM      3  C   UNL     1       3.314   7.666  17.821  0.00  0.00    +0.000 A 
ATOM      4  C   UNL     1       2.400   8.714  17.793  0.00  0.00    +0.000 A 
ATOM      5  C   UNL     1       1.530   8.816  18.852  0.00  0.00    +0.000 A 
ATOM      6  N   UNL     1       1.478   7.923  19.858  0.00  0.00    +0.000 NA
ATOM      7  C   UNL     1       2.350   6.891  19.891  0.00  0.00    +0.000 A 
BRANCH   7   8
ATOM      8  N   UNL     1       2.246   5.978  20.964  0.00  0.00    +0.000 N 
ATOM      9  H   UNL     1       1.995   6.495  21.807  0.00  0.00    +0.000 HD
BRANCH   8  10
ATOM     10  C   UNL     1       1.272   4.885  20.733  0.00  0.00    +0.000 C 
BRANCH  10  11
ATOM     11  C   UNL     1       1.950   3.502  20.533  0.00  0.00    +0.000 C 
BRANCH  11  12
ATOM     12  N   UNL     1       2.135   3.036  19.136  0.00  0.00    +0.000 NA
ATOM     13  C   UNL     1       3.292   2.149  18.998  0.00  0.00    +0.000 C 
ATOM     14  C   UNL     1       0.933   2.302  18.704  0.00  0.00    +0.000 C 
ENDBRANCH  11  12
ENDBRANCH  10  11
ENDBRANCH   8  10
ENDBRANCH   7   8
ENDBRANCH   1   2
BRANCH   1  17
ATOM     15  C   UNL     1       6.223   4.919  17.276  0.00  0.00    +0.000 C 
ATOM     16  O   UNL     1       6.966   4.656  18.225  0.00  0.00    +0.000 OA
ATOM     17  N   UNL     1       4.934   5.414  17.507  0.00  0.00    +0.000 N 
ATOM     18  H   UNL     1       4.447   5.818  16.715  0.00  0.00    +0.000 HD
BRANCH  15  22
ATOM     19  C   UNL     1       6.661   4.251  13.483  0.00  0.00    +0.000 A 
ATOM     20  N   UNL     1       7.549   5.140  13.864  0.00  0.00    +0.000 NA
ATOM     21  N   UNL     1       7.530   5.397  15.231  0.00  0.00    +0.000 NA
ATOM     22  C   UNL     1       6.601   4.702  15.863  0.00  0.00    +0.000 A 
ATOM     23  S   UNL     1       5.791   3.571  14.833  0.00  0.00    +0.000 S 
BRANCH  19  25
ATOM     24  C   UNL     1       7.318   2.631  11.625  0.00  0.00    +0.000 C 
ATOM     25  C   UNL     1       6.419   3.806  12.044  0.00  0.00    +0.000 C 
ATOM     26  C   UNL     1       4.969   3.346  11.851  0.00  0.00    +0.000 C 
ENDBRANCH  19  25
ENDBRANCH  15  22
ENDBRANCH   1  17
TORSDOF 8
ENDMDL
MODEL 2
REMARK VINA RESULT:      -7.0      1.363      3.898
REMARK  Name = 
REMARK  12 active torsions:
REMARK  status: ('A' for Active; 'I' for Inactive)
REMARK    1  A    between atoms: C_1  and  C_2
REMARK    2  A    between atoms: C_2  and  C_3
REMARK    3  A    between atoms: C_2  and  C_4
REMARK    4  A    between atoms: C_7  and  C_8
REMARK    5  A    between atoms: N_10  and  C_11
REMARK    6  A    between atoms: C_11  and  C_12
REMARK    7  A    between atoms: C_17  and  N_18
REMARK    8  A    between atoms: N_18  and  C_19
REMARK    9  A    between atoms: C_19  and  C_20
REMARK   10  A    between atoms: C_20  and  N_21
REMARK   11  A    between atoms: N_21  and  C_22
REMARK   12  A    between atoms: N_21  and  C_23
REMARK                            x       y       z     vdW  Elec       q    Type
REMARK                         _______ _______ _______ _____ _____    ______ ____
ROOT
ATOM      1  C   UNL     1       5.019   3.983  19.837  0.00  0.00    +0.000 C 
ENDROOT
BRANCH   1   2
ATOM      2  C   UNL     1       3.508   3.820  19.863  0.00  0.00    +0.000 A 
ATOM      3  C   UNL     1       2.991   2.504  19.824  0.00  0.00    +0.000 A 
ATOM      4  C   UNL     1       1.620   2.270  19.843  0.00  0.00    +0.000 A 
ATOM      5  C   UNL     1       0.797   3.367  19.931  0.00  0.00    +0.000 A 
ATOM      6  N   UNL     1       1.252   4.626  20.069  0.00  0.00    +0.000 NA
ATOM      7  C   UNL     1       2.581   4.869  20.067  0.00  0.00    +0.000 A 
BRANCH   7   8
ATOM      8  N   UNL     1       3.005   6.207  20.224  0.00  0.00    +0.000 N 
ATOM      9  H   UNL     1       4.013   6.249  20.068  0.00  0.00    +0.000 HD
BRANCH   8  10
ATOM     10  C   UNL     1       2.316   7.166  19.330  0.00  0.00    +0.000 C 
BRANCH  10  11
ATOM     11  C   UNL     1       1.484   8.226  20.105  0.00  0.00    +0.000 C 
BRANCH  11  12
ATOM     12  N   UNL     1       1.394   9.582  19.509  0.00  0.00    +0.000 NA
ATOM     13  C   UNL     1       1.016   9.539  18.094  0.00  0.00    +0.000 C 
ATOM     14  C   UNL     1       0.383  10.369  20.236  0.00  0.00    +0.000 C 
ENDBRANCH  11  12
ENDBRANCH  10  11
ENDBRANCH   8  10
ENDBRANCH   7   8
ENDBRANCH   1   2
BRANCH   1  17
ATOM     15  C   UNL     1       5.749   5.073  17.676  0.00  0.00    +0.000 C 
ATOM     16  O   UNL     1       5.401   6.180  18.093  0.00  0.00    +0.000 OA
ATOM     17  N   UNL     1       5.593   3.937  18.480  0.00  0.00    +0.000 N 
ATOM     18  H   UNL     1       5.683   3.035  18.026  0.00  0.00    +0.000 HD
BRANCH  15  22
ATOM     19  C   UNL     1       6.874   4.375  14.033  0.00  0.00    +0.000 A 
ATOM     20  N   UNL     1       7.610   5.342  14.529  0.00  0.00    +0.000 NA
ATOM     21  N   UNL     1       7.340   5.621  15.865  0.00  0.00    +0.000 NA
ATOM     22  C   UNL     1       6.376   4.862  16.354  0.00  0.00    +0.000 A 
ATOM     23  S   UNL     1       5.844   3.648  15.240  0.00  0.00    +0.000 S 
BRANCH  19  25
ATOM     24  C   UNL     1       5.560   3.336  12.108  0.00  0.00    +0.000 C 
ATOM     25  C   UNL     1       6.914   3.884  12.589  0.00  0.00    +0.000 C 
ATOM     26  C   UNL     1       7.297   5.022  11.635  0.00  0.00    +0.000 C 
ENDBRANCH  19  25
ENDBRANCH  15  22
ENDBRANCH   1  17
TORSDOF 8
ENDMDL
MODEL 3
REMARK VINA RESULT:      -6.8      3.187      8.151
REMARK  Name = 
REMARK  12 active torsions:
REMARK  status: ('A' for Active; 'I' for Inactive)
REMARK    1  A    between atoms: C_1  and  C_2
REMARK    2  A    between atoms: C_2  and  C_3
REMARK    3  A    between atoms: C_2  and  C_4
REMARK    4  A    between atoms: C_7  and  C_8
REMARK    5  A    between atoms: N_10  and  C_11
REMARK    6  A    between atoms: C_11  and  C_12
REMARK    7  A    between atoms: C_17  and  N_18
REMARK    8  A    between atoms: N_18  and  C_19
REMARK    9  A    between atoms: C_19  and  C_20
REMARK   10  A    between atoms: C_20  and  N_21
REMARK   11  A    between atoms: N_21  and  C_22
REMARK   12  A    between atoms: N_21  and  C_23
REMARK                            x       y       z     vdW  Elec       q    Type
REMARK                         _______ _______ _______ _____ _____    ______ ____
ROOT
ATOM      1  C   UNL     1       3.544   5.585  19.825  0.00  0.00    +0.000 C 
ENDROOT
BRANCH   1   2
ATOM      2  C   UNL     1       2.880   4.287  19.398  0.00  0.00    +0.000 A 
ATOM      3  C   UNL     1       1.535   4.082  19.787  0.00  0.00    +0.000 A 
ATOM      4  C   UNL     1       0.856   2.919  19.438  0.00  0.00    +0.000 A 
ATOM      5  C   UNL     1       1.537   1.999  18.678  0.00  0.00    +0.000 A 
ATOM      6  N   UNL     1       2.782   2.201  18.207  0.00  0.00    +0.000 NA
ATOM      7  C   UNL     1       3.450   3.332  18.526  0.00  0.00    +0.000 A 
BRANCH   7   8
ATOM      8  N   UNL     1       4.749   3.498  17.998  0.00  0.00    +0.000 N 
ATOM      9  H   UNL     1       5.259   2.620  18.107  0.00  0.00    +0.000 HD
BRANCH   8  10
ATOM     10  C   UNL     1       4.774   3.921  16.578  0.00  0.00    +0.000 C 
BRANCH  10  11
ATOM     11  C   UNL     1       5.006   5.448  16.406  0.00  0.00    +0.000 C 
BRANCH  11  12
ATOM     12  N   UNL     1       6.353   5.879  15.956  0.00  0.00    +0.000 NA
ATOM     13  C   UNL     1       7.219   6.245  17.078  0.00  0.00    +0.000 C 
ATOM     14  C   UNL     1       6.994   4.782  15.212  0.00  0.00    +0.000 C 
ENDBRANCH  11  12
ENDBRANCH  10  11
ENDBRANCH   8  10
ENDBRANCH   7   8
ENDBRANCH   1   2
BRANCH   1  17
ATOM     15  C   UNL     1       2.319   7.695  19.166  0.00  0.00    +0.000 C 
ATOM     16  O   UNL     1       2.888   7.709  18.073  0.00  0.00    +0.000 OA
ATOM     17  N   UNL     1       2.589   6.677  20.088  0.00  0.00    +0.000 N 
ATOM     18  H   UNL     1       2.274   6.822  21.041  0.00  0.00    +0.000 HD
BRANCH  15  22
ATOM     19  C   UNL     1      -0.090  10.298  20.732  0.00  0.00    +0.000 A 
ATOM     20  N   UNL     1       0.084  10.588  19.464  0.00  0.00    +0.000 NA
ATOM     21  N   UNL     1       0.875   9.667  18.784  0.00  0.00    +0.000 NA
ATOM     22  C   UNL     1       1.306   8.695  19.568  0.00  0.00    +0.000 A 
ATOM     23  S   UNL     1       0.637   8.772  21.163  0.00  0.00    +0.000 S 
BRANCH  19  25
ATOM     24  C   UNL     1      -0.888  10.532  23.144  0.00  0.00    +0.000 C 
ATOM     25  C   UNL     1      -0.867  11.146  21.734  0.00  0.00    +0.000 C 
ATOM     26  C   UNL     1      -0.248  12.542  21.866  0.00  0.00    +0.000 C 
ENDBRANCH  19  25
ENDBRANCH  15  22
ENDBRANCH   1  17
TORSDOF 8
ENDMDL
MODEL 4
REMARK VINA RESULT:      -6.8      1.192      3.788
REMARK  Name = 
REMARK  12 active torsions:
REMARK  status: ('A' for Active; 'I' for Inactive)
REMARK    1  A    between atoms: C_1  and  C_2
REMARK    2  A    between atoms: C_2  and  C_3
REMARK    3  A    between atoms: C_2  and  C_4
REMARK    4  A    between atoms: C_7  and  C_8
REMARK    5  A    between atoms: N_10  and  C_11
REMARK    6  A    between atoms: C_11  and  C_12
REMARK    7  A    between atoms: C_17  and  N_18
REMARK    8  A    between atoms: N_18  and  C_19
REMARK    9  A    between atoms: C_19  and  C_20
REMARK   10  A    between atoms: C_20  and  N_21
REMARK   11  A    between atoms: N_21  and  C_22
REMARK   12  A    between atoms: N_21  and  C_23
REMARK                            x       y       z     vdW  Elec       q    Type
REMARK                         _______ _______ _______ _____ _____    ______ ____
ROOT
ATOM      1  C   UNL     1       4.635   5.402  18.858  0.00  0.00    +0.000 C 
ENDROOT
BRANCH   1   2
ATOM      2  C   UNL     1       3.314   4.738  19.207  0.00  0.00    +0.000 A 
ATOM      3  C   UNL     1       3.122   3.402  18.785  0.00  0.00    +0.000 A 
ATOM      4  C   UNL     1       1.940   2.723  19.063  0.00  0.00    +0.000 A 
ATOM      5  C   UNL     1       0.986   3.396  19.788  0.00  0.00    +0.000 A 
ATOM      6  N   UNL     1       1.170   4.631  20.291  0.00  0.00    +0.000 NA
ATOM      7  C   UNL     1       2.319   5.297  20.042  0.00  0.00    +0.000 A 
BRANCH   7   8
ATOM      8  N   UNL     1       2.465   6.586  20.601  0.00  0.00    +0.000 N 
ATOM      9  H   UNL     1       3.459   6.763  20.753  0.00  0.00    +0.000 HD
BRANCH   8  10
ATOM     10  C   UNL     1       1.880   7.670  19.778  0.00  0.00    +0.000 C 
BRANCH  10  11
ATOM     11  C   UNL     1       1.126   8.733  20.624  0.00  0.00    +0.000 C 
BRANCH  11  12
ATOM     12  N   UNL     1       0.590   9.914  19.903  0.00  0.00    +0.000 NA
ATOM     13  C   UNL     1       0.882  11.167  20.602  0.00  0.00    +0.000 C 
ATOM     14  C   UNL     1       1.190   9.980  18.559  0.00  0.00    +0.000 C 
ENDBRANCH  11  12
ENDBRANCH  10  11
ENDBRANCH   8  10
ENDBRANCH   7   8
ENDBRANCH   1   2
BRANCH   1  17
ATOM     15  C   UNL     1       6.407   5.314  17.057  0.00  0.00    +0.000 C 
ATOM     16  O   UNL     1       7.261   5.719  17.848  0.00  0.00    +0.000 OA
ATOM     17  N   UNL     1       5.085   5.130  17.480  0.00  0.00    +0.000 N 
ATOM     18  H   UNL     1       4.382   5.010  16.760  0.00  0.00    +0.000 HD
BRANCH  15  22
ATOM     19  C   UNL     1       6.626   4.281  13.327  0.00  0.00    +0.000 A 
ATOM     20  N   UNL     1       7.534   5.197  13.569  0.00  0.00    +0.000 NA
ATOM     21  N   UNL     1       7.594   5.585  14.904  0.00  0.00    +0.000 NA
ATOM     22  C   UNL     1       6.703   4.959  15.652  0.00  0.00    +0.000 A 
ATOM     23  S   UNL     1       5.834   3.739  14.784  0.00  0.00    +0.000 S 
BRANCH  19  25
ATOM     24  C   UNL     1       7.171   2.483  11.601  0.00  0.00    +0.000 C 
ATOM     25  C   UNL     1       6.301   3.701  11.954  0.00  0.00    +0.000 C 
ATOM     26  C   UNL     1       4.840   3.238  11.888  0.00  0.00    +0.000 C 
ENDBRANCH  19  25
ENDBRANCH  15  22
ENDBRANCH   1  17
TORSDOF 8
ENDMDL
MODEL 5
REMARK VINA RESULT:      -6.8      3.903      7.761
REMARK  Name = 
REMARK  12 active torsions:
REMARK  status: ('A' for Active; 'I' for Inactive)
REMARK    1  A    between atoms: C_1  and  C_2
REMARK    2  A    between atoms: C_2  and  C_3
REMARK    3  A    between atoms: C_2  and  C_4
REMARK    4  A    between atoms: C_7  and  C_8
REMARK    5  A    between atoms: N_10  and  C_11
REMARK    6  A    between atoms: C_11  and  C_12
REMARK    7  A    between atoms: C_17  and  N_18
REMARK    8  A    between atoms: N_18  and  C_19
REMARK    9  A    between atoms: C_19  and  C_20
REMARK   10  A    between atoms: C_20  and  N_21
REMARK   11  A    between atoms: N_21  and  C_22
REMARK   12  A    between atoms: N_21  and  C_23
REMARK                            x       y       z     vdW  Elec       q    Type
REMARK                         _______ _______ _______ _____ _____    ______ ____
ROOT
ATOM      1  C   UNL     1       2.886   6.249  17.981  0.00  0.00    +0.000 C 
ENDROOT
BRANCH   1   2
ATOM      2  C   UNL     1       4.388   6.048  18.088  0.00  0.00    +0.000 A 
ATOM      3  C   UNL     1       5.218   6.911  17.335  0.00  0.00    +0.000 A 
ATOM      4  C   UNL     1       6.604   6.791  17.376  0.00  0.00    +0.000 A 
ATOM      5  C   UNL     1       7.126   5.823  18.200  0.00  0.00    +0.000 A 
ATOM      6  N   UNL     1       6.374   5.049  19.005  0.00  0.00    +0.000 NA
ATOM      7  C   UNL     1       5.028   5.163  18.987  0.00  0.00    +0.000 A 
BRANCH   7   8
ATOM      8  N   UNL     1       4.287   4.334  19.858  0.00  0.00    +0.000 N 
ATOM      9  H   UNL     1       3.301   4.592  19.792  0.00  0.00    +0.000 HD
BRANCH   8  10
ATOM     10  C   UNL     1       4.447   2.885  19.593  0.00  0.00    +0.000 C 
BRANCH  10  11
ATOM     11  C   UNL     1       3.097   2.116  19.594  0.00  0.00    +0.000 C 
BRANCH  11  12
ATOM     12  N   UNL     1       1.862   2.921  19.768  0.00  0.00    +0.000 NA
ATOM     13  C   UNL     1       0.819   2.545  18.811  0.00  0.00    +0.000 C 
ATOM     14  C   UNL     1       1.337   2.722  21.130  0.00  0.00    +0.000 C 
ENDBRANCH  11  12
ENDBRANCH  10  11
ENDBRANCH   8  10
ENDBRANCH   7   8
ENDBRANCH   1   2
BRANCH   1  17
ATOM     15  C   UNL     1       1.881   7.245  20.076  0.00  0.00    +0.000 C 
ATOM     16  O   UNL     1       1.842   6.135  20.610  0.00  0.00    +0.000 OA
ATOM     17  N   UNL     1       2.385   7.384  18.777  0.00  0.00    +0.000 N 
ATOM     18  H   UNL     1       2.199   8.260  18.302  0.00  0.00    +0.000 HD
BRANCH  15  22
ATOM     19  C   UNL     1       0.337  10.515  21.471  0.00  0.00    +0.000 A 
ATOM     20  N   UNL     1       0.881   9.845  22.460  0.00  0.00    +0.000 NA
ATOM     21  N   UNL     1       1.535   8.685  22.056  0.00  0.00    +0.000 NA
ATOM     22  C   UNL     1       1.454   8.489  20.753  0.00  0.00    +0.000 A 
ATOM     23  S   UNL     1       0.695   9.803  19.919  0.00  0.00    +0.000 S 
BRANCH  19  25
ATOM     24  C   UNL     1      -1.454  12.015  20.444  0.00  0.00    +0.000 C 
ATOM     25  C   UNL     1      -0.482  11.794  21.615  0.00  0.00    +0.000 C 
ATOM     26  C   UNL     1      -1.327  11.762  22.894  0.00  0.00    +0.000 C 
ENDBRANCH  19  25
ENDBRANCH  15  22
ENDBRANCH   1  17
TORSDOF 8
ENDMDL
MODEL 6
REMARK VINA RESULT:      -6.8      3.909      7.389
REMARK  Name = 
REMARK  12 active torsions:
REMARK  status: ('A' for Active; 'I' for Inactive)
REMARK    1  A    between atoms: C_1  and  C_2
REMARK    2  A    between atoms: C_2  and  C_3
REMARK    3  A    between atoms: C_2  and  C_4
REMARK    4  A    between atoms: C_7  and  C_8
REMARK    5  A    between atoms: N_10  and  C_11
REMARK    6  A    between atoms: C_11  and  C_12
REMARK    7  A    between atoms: C_17  and  N_18
REMARK    8  A    between atoms: N_18  and  C_19
REMARK    9  A    between atoms: C_19  and  C_20
REMARK   10  A    between atoms: C_20  and  N_21
REMARK   11  A    between atoms: N_21  and  C_22
REMARK   12  A    between atoms: N_21  and  C_23
REMARK                            x       y       z     vdW  Elec       q    Type
REMARK                         _______ _______ _______ _____ _____    ______ ____
ROOT
ATOM      1  C   UNL     1       4.052   6.223  17.318  0.00  0.00    +0.000 C 
ENDROOT
BRANCH   1   2
ATOM      2  C   UNL     1       5.407   6.066  17.987  0.00  0.00    +0.000 A 
ATOM      3  C   UNL     1       6.474   6.853  17.496  0.00  0.00    +0.000 A 
ATOM      4  C   UNL     1       7.746   6.767  18.052  0.00  0.00    +0.000 A 
ATOM      5  C   UNL     1       7.910   5.910  19.114  0.00  0.00    +0.000 A 
ATOM      6  N   UNL     1       6.899   5.219  19.671  0.00  0.00    +0.000 NA
ATOM      7  C   UNL     1       5.655   5.302  19.151  0.00  0.00    +0.000 A 
BRANCH   7   8
ATOM      8  N   UNL     1       4.629   4.564  19.781  0.00  0.00    +0.000 N 
ATOM      9  H   UNL     1       3.731   4.992  19.549  0.00  0.00    +0.000 HD
BRANCH   8  10
ATOM     10  C   UNL     1       4.610   3.127  19.419  0.00  0.00    +0.000 C 
BRANCH  10  11
ATOM     11  C   UNL     1       3.364   2.730  18.581  0.00  0.00    +0.000 C 
BRANCH  11  12
ATOM     12  N   UNL     1       2.206   2.167  19.318  0.00  0.00    +0.000 NA
ATOM     13  C   UNL     1       2.199   2.569  20.726  0.00  0.00    +0.000 C 
ATOM     14  C   UNL     1       0.956   2.635  18.695  0.00  0.00    +0.000 C 
ENDBRANCH  11  12
ENDBRANCH  10  11
ENDBRANCH   8  10
ENDBRANCH   7   8
ENDBRANCH   1   2
BRANCH   1  17
ATOM     15  C   UNL     1       2.340   7.083  18.966  0.00  0.00    +0.000 C 
ATOM     16  O   UNL     1       2.220   5.960  19.460  0.00  0.00    +0.000 OA
ATOM     17  N   UNL     1       3.227   7.295  17.904  0.00  0.00    +0.000 N 
ATOM     18  H   UNL     1       3.134   8.165  17.392  0.00  0.00    +0.000 HD
BRANCH  15  22
ATOM     19  C   UNL     1       0.645  10.060  20.780  0.00  0.00    +0.000 A 
ATOM     20  N   UNL     1       0.945  10.423  19.555  0.00  0.00    +0.000 NA
ATOM     21  N   UNL     1       1.491   9.399  18.787  0.00  0.00    +0.000 NA
ATOM     22  C   UNL     1       1.613   8.271  19.463  0.00  0.00    +0.000 A 
ATOM     23  S   UNL     1       0.920   8.358  21.048  0.00  0.00    +0.000 S 
BRANCH  19  25
ATOM     24  C   UNL     1      -1.056  11.877  21.342  0.00  0.00    +0.000 C 
ATOM     25  C   UNL     1       0.078  10.977  21.860  0.00  0.00    +0.000 C 
ATOM     26  C   UNL     1      -0.498  10.161  23.023  0.00  0.00    +0.000 C 
ENDBRANCH  19  25
ENDBRANCH  15  22
ENDBRANCH   1  17
TORSDOF 8
ENDMDL
MODEL 7
REMARK VINA RESULT:      -6.8      3.901      7.195
REMARK  Name = 
REMARK  12 active torsions:
REMARK  status: ('A' for Active; 'I' for Inactive)
REMARK    1  A    between atoms: C_1  and  C_2
REMARK    2  A    between atoms: C_2  and  C_3
REMARK    3  A    between atoms: C_2  and  C_4
REMARK    4  A    between atoms: C_7  and  C_8
REMARK    5  A    between atoms: N_10  and  C_11
REMARK    6  A    between atoms: C_11  and  C_12
REMARK    7  A    between atoms: C_17  and  N_18
REMARK    8  A    between atoms: N_18  and  C_19
REMARK    9  A    between atoms: C_19  and  C_20
REMARK   10  A    between atoms: C_20  and  N_21
REMARK   11  A    between atoms: N_21  and  C_22
REMARK   12  A    between atoms: N_21  and  C_23
REMARK                            x       y       z     vdW  Elec       q    Type
REMARK                         _______ _______ _______ _____ _____    ______ ____
ROOT
ATOM      1  C   UNL     1       4.215   6.208  17.120  0.00  0.00    +0.000 C 
ENDROOT
BRANCH   1   2
ATOM      2  C   UNL     1       5.507   6.065  17.909  0.00  0.00    +0.000 A 
ATOM      3  C   UNL     1       6.624   6.817  17.475  0.00  0.00    +0.000 A 
ATOM      4  C   UNL     1       7.842   6.741  18.141  0.00  0.00    +0.000 A 
ATOM      5  C   UNL     1       7.902   5.931  19.250  0.00  0.00    +0.000 A 
ATOM      6  N   UNL     1       6.837   5.278  19.750  0.00  0.00    +0.000 NA
ATOM      7  C   UNL     1       5.643   5.353  19.123  0.00  0.00    +0.000 A 
BRANCH   7   8
ATOM      8  N   UNL     1       4.555   4.656  19.695  0.00  0.00    +0.000 N 
ATOM      9  H   UNL     1       3.690   5.125  19.424  0.00  0.00    +0.000 HD
BRANCH   8  10
ATOM     10  C   UNL     1       4.492   3.225  19.319  0.00  0.00    +0.000 C 
BRANCH  10  11
ATOM     11  C   UNL     1       3.152   2.551  19.726  0.00  0.00    +0.000 C 
BRANCH  11  12
ATOM     12  N   UNL     1       2.240   2.143  18.629  0.00  0.00    +0.000 NA
ATOM     13  C   UNL     1       0.844   2.473  18.920  0.00  0.00    +0.000 C 
ATOM     14  C   UNL     1       2.632   2.832  17.387  0.00  0.00    +0.000 C 
ENDBRANCH  11  12
ENDBRANCH  10  11
ENDBRANCH   8  10
ENDBRANCH   7   8
ENDBRANCH   1   2
BRANCH   1  17
ATOM     15  C   UNL     1       2.482   7.440  18.487  0.00  0.00    +0.000 C 
ATOM     16  O   UNL     1       2.248   6.423  19.144  0.00  0.00    +0.000 OA
ATOM     17  N   UNL     1       3.443   7.414  17.468  0.00  0.00    +0.000 N 
ATOM     18  H   UNL     1       3.447   8.193  16.819  0.00  0.00    +0.000 HD
BRANCH  15  22
ATOM     19  C   UNL     1       0.881  10.760  19.687  0.00  0.00    +0.000 A 
ATOM     20  N   UNL     1       1.367  10.933  18.480  0.00  0.00    +0.000 NA
ATOM     21  N   UNL     1       1.899   9.776  17.920  0.00  0.00    +0.000 NA
ATOM     22  C   UNL     1       1.822   8.740  18.736  0.00  0.00    +0.000 A 
ATOM     23  S   UNL     1       0.949   9.091  20.189  0.00  0.00    +0.000 S 
BRANCH  19  25
ATOM     24  C   UNL     1      -0.225  11.324  21.915  0.00  0.00    +0.000 C 
ATOM     25  C   UNL     1       0.279  11.854  20.563  0.00  0.00    +0.000 C 
ATOM     26  C   UNL     1       1.315  12.942  20.869  0.00  0.00    +0.000 C 
ENDBRANCH  19  25
ENDBRANCH  15  22
ENDBRANCH   1  17
TORSDOF 8
ENDMDL
MODEL 8
REMARK VINA RESULT:      -6.8      1.483      3.934
REMARK  Name = 
REMARK  12 active torsions:
REMARK  status: ('A' for Active; 'I' for Inactive)
REMARK    1  A    between atoms: C_1  and  C_2
REMARK    2  A    between atoms: C_2  and  C_3
REMARK    3  A    between atoms: C_2  and  C_4
REMARK    4  A    between atoms: C_7  and  C_8
REMARK    5  A    between atoms: N_10  and  C_11
REMARK    6  A    between atoms: C_11  and  C_12
REMARK    7  A    between atoms: C_17  and  N_18
REMARK    8  A    between atoms: N_18  and  C_19
REMARK    9  A    between atoms: C_19  and  C_20
REMARK   10  A    between atoms: C_20  and  N_21
REMARK   11  A    between atoms: N_21  and  C_22
REMARK   12  A    between atoms: N_21  and  C_23
REMARK                            x       y       z     vdW  Elec       q    Type
REMARK                         _______ _______ _______ _____ _____    ______ ____
ROOT
ATOM      1  C   UNL     1       4.421   5.819  19.466  0.00  0.00    +0.000 C 
ENDROOT
BRANCH   1   2
ATOM      2  C   UNL     1       3.174   5.005  19.769  0.00  0.00    +0.000 A 
ATOM      3  C   UNL     1       3.205   3.624  19.461  0.00  0.00    +0.000 A 
ATOM      4  C   UNL     1       2.104   2.810  19.706  0.00  0.00    +0.000 A 
ATOM      5  C   UNL     1       1.005   3.397  20.285  0.00  0.00    +0.000 A 
ATOM      6  N   UNL     1       0.974   4.683  20.681  0.00  0.00    +0.000 NA
ATOM      7  C   UNL     1       2.040   5.484  20.464  0.00  0.00    +0.000 A 
BRANCH   7   8
ATOM      8  N   UNL     1       1.958   6.822  20.908  0.00  0.00    +0.000 N 
ATOM      9  H   UNL     1       2.763   7.016  21.505  0.00  0.00    +0.000 HD
BRANCH   8  10
ATOM     10  C   UNL     1       1.890   7.818  19.813  0.00  0.00    +0.000 C 
BRANCH  10  11
ATOM     11  C   UNL     1       0.843   8.935  20.075  0.00  0.00    +0.000 C 
BRANCH  11  12
ATOM     12  N   UNL     1       0.980   9.708  21.334  0.00  0.00    +0.000 NA
ATOM     13  C   UNL     1       0.903  11.152  21.107  0.00  0.00    +0.000 C 
ATOM     14  C   UNL     1      -0.098   9.325  22.262  0.00  0.00    +0.000 C 
ENDBRANCH  11  12
ENDBRANCH  10  11
ENDBRANCH   8  10
ENDBRANCH   7   8
ENDBRANCH   1   2
BRANCH   1  17
ATOM     15  C   UNL     1       6.250   5.037  17.907  0.00  0.00    +0.000 C 
ATOM     16  O   UNL     1       6.971   4.747  18.864  0.00  0.00    +0.000 OA
ATOM     17  N   UNL     1       4.974   5.572  18.122  0.00  0.00    +0.000 N 
ATOM     18  H   UNL     1       4.511   5.994  17.326  0.00  0.00    +0.000 HD
BRANCH  15  22
ATOM     19  C   UNL     1       6.740   4.279  14.137  0.00  0.00    +0.000 A 
ATOM     20  N   UNL     1       7.502   5.294  14.470  0.00  0.00    +0.000 NA
ATOM     21  N   UNL     1       7.462   5.603  15.826  0.00  0.00    +0.000 NA
ATOM     22  C   UNL     1       6.641   4.815  16.498  0.00  0.00    +0.000 A 
ATOM     23  S   UNL     1       5.982   3.543  15.526  0.00  0.00    +0.000 S 
BRANCH  19  25
ATOM     24  C   UNL     1       5.069   3.697  12.299  0.00  0.00    +0.000 C 
ATOM     25  C   UNL     1       6.547   3.745  12.721  0.00  0.00    +0.000 C 
ATOM     26  C   UNL     1       7.272   4.629  11.700  0.00  0.00    +0.000 C 
ENDBRANCH  19  25
ENDBRANCH  15  22
ENDBRANCH   1  17
TORSDOF 8
ENDMDL
MODEL 9
REMARK VINA RESULT:      -6.7      3.786      7.161
REMARK  Name = 
REMARK  12 active torsions:
REMARK  status: ('A' for Active; 'I' for Inactive)
REMARK    1  A    between atoms: C_1  and  C_2
REMARK    2  A    between atoms: C_2  and  C_3
REMARK    3  A    between atoms: C_2  and  C_4
REMARK    4  A    between atoms: C_7  and  C_8
REMARK    5  A    between atoms: N_10  and  C_11
REMARK    6  A    between atoms: C_11  and  C_12
REMARK    7  A    between atoms: C_17  and  N_18
REMARK    8  A    between atoms: N_18  and  C_19
REMARK    9  A    between atoms: C_19  and  C_20
REMARK   10  A    between atoms: C_20  and  N_21
REMARK   11  A    between atoms: N_21  and  C_22
REMARK   12  A    between atoms: N_21  and  C_23
REMARK                            x       y       z     vdW  Elec       q    Type
REMARK                         _______ _______ _______ _____ _____    ______ ____
ROOT
ATOM      1  C   UNL     1       3.830   6.090  17.366  0.00  0.00    +0.000 C 
ENDROOT
BRANCH   1   2
ATOM      2  C   UNL     1       5.208   5.957  17.993  0.00  0.00    +0.000 A 
ATOM      3  C   UNL     1       6.249   6.753  17.459  0.00  0.00    +0.000 A 
ATOM      4  C   UNL     1       7.539   6.689  17.974  0.00  0.00    +0.000 A 
ATOM      5  C   UNL     1       7.748   5.846  19.039  0.00  0.00    +0.000 A 
ATOM      6  N   UNL     1       6.764   5.148  19.637  0.00  0.00    +0.000 NA
ATOM      7  C   UNL     1       5.503   5.211  19.157  0.00  0.00    +0.000 A 
BRANCH   7   8
ATOM      8  N   UNL     1       4.507   4.466  19.827  0.00  0.00    +0.000 N 
ATOM      9  H   UNL     1       3.592   4.796  19.518  0.00  0.00    +0.000 HD
BRANCH   8  10
ATOM     10  C   UNL     1       4.609   3.002  19.625  0.00  0.00    +0.000 C 
BRANCH  10  11
ATOM     11  C   UNL     1       3.264   2.355  19.194  0.00  0.00    +0.000 C 
BRANCH  11  12
ATOM     12  N   UNL     1       2.018   3.045  19.613  0.00  0.00    +0.000 NA
ATOM     13  C   UNL     1       0.876   2.679  18.773  0.00  0.00    +0.000 C 
ATOM     14  C   UNL     1       1.705   2.683  21.006  0.00  0.00    +0.000 C 
ENDBRANCH  11  12
ENDBRANCH  10  11
ENDBRANCH   8  10
ENDBRANCH   7   8
ENDBRANCH   1   2
BRANCH   1  17
ATOM     15  C   UNL     1       2.333   7.377  18.945  0.00  0.00    +0.000 C 
ATOM     16  O   UNL     1       2.229   6.393  19.681  0.00  0.00    +0.000 OA
ATOM     17  N   UNL     1       3.109   7.307  17.782  0.00  0.00    +0.000 N 
ATOM     18  H   UNL     1       2.992   8.052  17.104  0.00  0.00    +0.000 HD
BRANCH  15  22
ATOM     19  C   UNL     1       0.592  10.834  19.157  0.00  0.00    +0.000 A 
ATOM     20  N   UNL     1       0.333  10.159  20.253  0.00  0.00    +0.000 NA
ATOM     21  N   UNL     1       0.977   8.927  20.315  0.00  0.00    +0.000 NA
ATOM     22  C   UNL     1       1.705   8.683  19.240  0.00  0.00    +0.000 A 
ATOM     23  S   UNL     1       1.763  10.025  18.147  0.00  0.00    +0.000 S 
BRANCH  19  25
ATOM     24  C   UNL     1      -1.442  12.080  18.250  0.00  0.00    +0.000 C 
ATOM     25  C   UNL     1      -0.007  12.188  18.791  0.00  0.00    +0.000 C 
ATOM     26  C   UNL     1      -0.062  13.110  20.016  0.00  0.00    +0.000 C 
ENDBRANCH  19  25
ENDBRANCH  15  22
ENDBRANCH   1  17
TORSDOF 8
ENDMDL
