MODEL 1
REMARK VINA RESULT:      -7.0      0.000      0.000
REMARK  Name = 
REMARK  8 active torsions:
REMARK  status: ('A' for Active; 'I' for Inactive)
REMARK    1  A    between atoms: C_1  and  C_2
REMARK    2  A    between atoms: C_2  and  S_3
REMARK    3  A    between atoms: S_3  and  C_4
REMARK    4  A    between atoms: C_4  and  C_5
REMARK    5  A    between atoms: C_7  and  O_8
REMARK    6  A    between atoms: N_12  and  C_13
REMARK    7  A    between atoms: N_16  and  C_17
REMARK    8  A    between atoms: C_17  and  C_18
REMARK                            x       y       z     vdW  Elec       q    Type
REMARK                         _______ _______ _______ _____ _____    ______ ____
ROOT
ATOM      1  C   UNL     1       6.476   4.645  15.557  0.00  0.00    +0.000 A 
ATOM      2  N   UNL     1       7.634   4.477  16.251  0.00  0.00    +0.000 NA
ATOM      3  C   UNL     1       7.566   4.463  17.590  0.00  0.00    +0.000 A 
ATOM      4  C   UNL     1       6.357   4.629  18.247  0.00  0.00    +0.000 A 
ATOM      5  N   UNL     1       5.986   4.679  19.558  0.00  0.00    +0.000 NA
ATOM      6  N   UNL     1       4.676   4.890  19.598  0.00  0.00    +0.000 NA
ATOM      7  N   UNL     1       4.226   4.992  18.327  0.00  0.00    +0.000 N 
ATOM      8  C   UNL     1       5.251   4.800  17.432  0.00  0.00    +0.000 A 
ATOM      9  N   UNL     1       5.233   4.804  16.088  0.00  0.00    +0.000 NA
ENDROOT
BRANCH   7  10
ATOM     10  C   UNL     1       2.836   5.330  18.051  0.00  0.00    +0.000 C 
ATOM     11  C   UNL     1       2.624   6.831  17.824  0.00  0.00    +0.000 C 
ATOM     12  C   UNL     1       2.606   7.635  19.125  0.00  0.00    +0.000 C 
ATOM     13  N   UNL     1       1.616   7.113  20.085  0.00  0.00    +0.000 NA
ATOM     14  C   UNL     1       1.859   5.691  20.384  0.00  0.00    +0.000 C 
ATOM     15  C   UNL     1       1.866   4.820  19.124  0.00  0.00    +0.000 C 
BRANCH  13  16
ATOM     16  C   UNL     1       1.677   7.886  21.354  0.00  0.00    +0.000 C 
BRANCH  16  17
ATOM     17  C   UNL     1       0.720   9.031  21.393  0.00  0.00    +0.000 A 
ATOM     18  C   UNL     1       0.217   9.889  20.436  0.00  0.00    +0.000 A 
ATOM     19  C   UNL     1      -0.615  10.808  21.118  0.00  0.00    +0.000 A 
ATOM     20  C   UNL     1      -0.587  10.441  22.443  0.00  0.00    +0.000 A 
ATOM     21  O   UNL     1       0.219   9.363  22.621  0.00  0.00    +0.000 OA
ENDBRANCH  16  17
ENDBRANCH  13  16
ENDBRANCH   7  10
BRANCH   3  22
ATOM     22  O   UNL     1       8.762   4.310  18.231  0.00  0.00    +0.000 OA
ATOM     23  H   UNL     1       8.864   3.344  18.218  0.00  0.00    +0.000 HD
ENDBRANCH   3  22
BRANCH   1  24
ATOM     24  C   UNL     1       6.616   4.715  14.051  0.00  0.00    +0.000 C 
BRANCH  24  25
ATOM     25  S   UNL     1       5.389   3.716  13.140  0.00  0.00    +0.000 S 
BRANCH  25  27
ATOM     26  C   UNL     1       5.917   1.669  11.412  0.00  0.00    +0.000 C 
ATOM     27  C   UNL     1       6.468   3.012  11.853  0.00  0.00    +0.000 C 
ENDBRANCH  25  27
ENDBRANCH  24  25
ENDBRANCH   1  24
TORSDOF 7
ENDMDL
MODEL 2
REMARK VINA RESULT:      -6.6      1.104      1.186
REMARK  Name = 
REMARK  8 active torsions:
REMARK  status: ('A' for Active; 'I' for Inactive)
REMARK    1  A    between atoms: C_1  and  C_2
REMARK    2  A    between atoms: C_2  and  S_3
REMARK    3  A    between atoms: S_3  and  C_4
REMARK    4  A    between atoms: C_4  and  C_5
REMARK    5  A    between atoms: C_7  and  O_8
REMARK    6  A    between atoms: N_12  and  C_13
REMARK    7  A    between atoms: N_16  and  C_17
REMARK    8  A    between atoms: C_17  and  C_18
REMARK                            x       y       z     vdW  Elec       q    Type
REMARK                         _______ _______ _______ _____ _____    ______ ____
ROOT
ATOM      1  C   UNL     1       5.462   4.348  15.266  0.00  0.00    +0.000 A 
ATOM      2  N   UNL     1       6.750   4.271  15.700  0.00  0.00    +0.000 NA
ATOM      3  C   UNL     1       6.963   4.210  17.022  0.00  0.00    +0.000 A 
ATOM      4  C   UNL     1       5.906   4.237  17.919  0.00  0.00    +0.000 A 
ATOM      5  N   UNL     1       5.812   4.210  19.279  0.00  0.00    +0.000 NA
ATOM      6  N   UNL     1       4.526   4.292  19.595  0.00  0.00    +0.000 NA
ATOM      7  N   UNL     1       3.814   4.389  18.449  0.00  0.00    +0.000 N 
ATOM      8  C   UNL     1       4.644   4.326  17.356  0.00  0.00    +0.000 A 
ATOM      9  N   UNL     1       4.348   4.369  16.046  0.00  0.00    +0.000 NA
ENDROOT
BRANCH   7  10
ATOM     10  C   UNL     1       2.373   4.600  18.480  0.00  0.00    +0.000 C 
ATOM     11  C   UNL     1       1.955   5.936  17.858  0.00  0.00    +0.000 C 
ATOM     12  C   UNL     1       2.192   7.128  18.788  0.00  0.00    +0.000 C 
ATOM     13  N   UNL     1       1.545   6.943  20.100  0.00  0.00    +0.000 NA
ATOM     14  C   UNL     1       2.003   5.705  20.754  0.00  0.00    +0.000 C 
ATOM     15  C   UNL     1       1.774   4.464  19.885  0.00  0.00    +0.000 C 
BRANCH  13  16
ATOM     16  C   UNL     1       1.852   8.095  20.988  0.00  0.00    +0.000 C 
BRANCH  16  17
ATOM     17  C   UNL     1       0.877   9.218  20.856  0.00  0.00    +0.000 A 
ATOM     18  C   UNL     1      -0.468   9.353  21.137  0.00  0.00    +0.000 A 
ATOM     19  C   UNL     1      -0.833  10.660  20.734  0.00  0.00    +0.000 A 
ATOM     20  C   UNL     1       0.314  11.248  20.255  0.00  0.00    +0.000 A 
ATOM     21  O   UNL     1       1.357  10.382  20.326  0.00  0.00    +0.000 OA
ENDBRANCH  16  17
ENDBRANCH  13  16
ENDBRANCH   7  10
BRANCH   3  22
ATOM     22  O   UNL     1       8.275   4.153  17.398  0.00  0.00    +0.000 OA
ATOM     23  H   UNL     1       8.221   3.606  18.199  0.00  0.00    +0.000 HD
ENDBRANCH   3  22
BRANCH   1  24
ATOM     24  C   UNL     1       5.281   4.479  13.768  0.00  0.00    +0.000 C 
BRANCH  24  25
ATOM     25  S   UNL     1       6.584   3.660  12.784  0.00  0.00    +0.000 S 
BRANCH  25  27
ATOM     26  C   UNL     1       4.286   3.253  11.368  0.00  0.00    +0.000 C 
ATOM     27  C   UNL     1       5.551   2.533  11.795  0.00  0.00    +0.000 C 
ENDBRANCH  25  27
ENDBRANCH  24  25
ENDBRANCH   1  24
TORSDOF 7
ENDMDL
MODEL 3
REMARK VINA RESULT:      -6.6      1.950      2.787
REMARK  Name = 
REMARK  8 active torsions:
REMARK  status: ('A' for Active; 'I' for Inactive)
REMARK    1  A    between atoms: C_1  and  C_2
REMARK    2  A    between atoms: C_2  and  S_3
REMARK    3  A    between atoms: S_3  and  C_4
REMARK    4  A    between atoms: C_4  and  C_5
REMARK    5  A    between atoms: C_7  and  O_8
REMARK    6  A    between atoms: N_12  and  C_13
REMARK    7  A    between atoms: N_16  and  C_17
REMARK    8  A    between atoms: C_17  and  C_18
REMARK                            x       y       z     vdW  Elec       q    Type
REMARK                         _______ _______ _______ _____ _____    ______ ____
ROOT
ATOM      1  C   UNL     1       5.734   4.524  14.802  0.00  0.00    +0.000 A 
ATOM      2  N   UNL     1       6.580   5.557  15.065  0.00  0.00    +0.000 NA
ATOM      3  C   UNL     1       6.903   5.793  16.345  0.00  0.00    +0.000 A 
ATOM      4  C   UNL     1       6.381   5.019  17.369  0.00  0.00    +0.000 A 
ATOM      5  N   UNL     1       6.504   5.029  18.726  0.00  0.00    +0.000 NA
ATOM      6  N   UNL     1       5.740   4.057  19.208  0.00  0.00    +0.000 NA
ATOM      7  N   UNL     1       5.124   3.450  18.168  0.00  0.00    +0.000 N 
ATOM      8  C   UNL     1       5.524   4.004  16.976  0.00  0.00    +0.000 A 
ATOM      9  N   UNL     1       5.170   3.691  15.718  0.00  0.00    +0.000 NA
ENDROOT
BRANCH   7  10
ATOM     10  C   UNL     1       4.134   2.405  18.393  0.00  0.00    +0.000 C 
ATOM     11  C   UNL     1       2.789   2.707  17.721  0.00  0.00    +0.000 C 
ATOM     12  C   UNL     1       1.951   3.726  18.495  0.00  0.00    +0.000 C 
ATOM     13  N   UNL     1       1.749   3.325  19.899  0.00  0.00    +0.000 NA
ATOM     14  C   UNL     1       3.035   3.116  20.587  0.00  0.00    +0.000 C 
ATOM     15  C   UNL     1       3.919   2.086  19.876  0.00  0.00    +0.000 C 
BRANCH  13  16
ATOM     16  C   UNL     1       0.983   4.372  20.625  0.00  0.00    +0.000 C 
BRANCH  16  17
ATOM     17  C   UNL     1       1.457   5.758  20.333  0.00  0.00    +0.000 A 
ATOM     18  C   UNL     1       2.394   6.285  19.468  0.00  0.00    +0.000 A 
ATOM     19  C   UNL     1       2.421   7.680  19.706  0.00  0.00    +0.000 A 
ATOM     20  C   UNL     1       1.485   7.920  20.683  0.00  0.00    +0.000 A 
ATOM     21  O   UNL     1       0.893   6.761  21.070  0.00  0.00    +0.000 OA
ENDBRANCH  16  17
ENDBRANCH  13  16
ENDBRANCH   7  10
BRANCH   3  22
ATOM     22  O   UNL     1       7.741   6.853  16.547  0.00  0.00    +0.000 OA
ATOM     23  H   UNL     1       7.685   6.959  17.511  0.00  0.00    +0.000 HD
ENDBRANCH   3  22
BRANCH   1  24
ATOM     24  C   UNL     1       5.353   4.340  13.348  0.00  0.00    +0.000 C 
BRANCH  24  25
ATOM     25  S   UNL     1       6.615   3.476  12.350  0.00  0.00    +0.000 S 
BRANCH  25  27
ATOM     26  C   UNL     1       6.388   1.063  11.095  0.00  0.00    +0.000 C 
ATOM     27  C   UNL     1       5.553   2.260  11.508  0.00  0.00    +0.000 C 
ENDBRANCH  25  27
ENDBRANCH  24  25
ENDBRANCH   1  24
TORSDOF 7
ENDMDL
MODEL 4
REMARK VINA RESULT:      -6.5      3.056      8.400
REMARK  Name = 
REMARK  8 active torsions:
REMARK  status: ('A' for Active; 'I' for Inactive)
REMARK    1  A    between atoms: C_1  and  C_2
REMARK    2  A    between atoms: C_2  and  S_3
REMARK    3  A    between atoms: S_3  and  C_4
REMARK    4  A    between atoms: C_4  and  C_5
REMARK    5  A    between atoms: C_7  and  O_8
REMARK    6  A    between atoms: N_12  and  C_13
REMARK    7  A    between atoms: N_16  and  C_17
REMARK    8  A    between atoms: C_17  and  C_18
REMARK                            x       y       z     vdW  Elec       q    Type
REMARK                         _______ _______ _______ _____ _____    ______ ____
ROOT
ATOM      1  C   UNL     1       2.531   5.263  20.339  0.00  0.00    +0.000 A 
ATOM      2  N   UNL     1       1.935   6.482  20.237  0.00  0.00    +0.000 NA
ATOM      3  C   UNL     1       2.357   7.307  19.266  0.00  0.00    +0.000 A 
ATOM      4  C   UNL     1       3.376   6.934  18.404  0.00  0.00    +0.000 A 
ATOM      5  N   UNL     1       4.013   7.545  17.366  0.00  0.00    +0.000 NA
ATOM      6  N   UNL     1       4.945   6.713  16.919  0.00  0.00    +0.000 NA
ATOM      7  N   UNL     1       4.911   5.594  17.678  0.00  0.00    +0.000 N 
ATOM      8  C   UNL     1       3.909   5.674  18.615  0.00  0.00    +0.000 A 
ATOM      9  N   UNL     1       3.528   4.784  19.547  0.00  0.00    +0.000 NA
ENDROOT
BRANCH   7  10
ATOM     10  C   UNL     1       5.894   4.535  17.493  0.00  0.00    +0.000 C 
ATOM     11  C   UNL     1       7.251   5.061  17.012  0.00  0.00    +0.000 C 
ATOM     12  C   UNL     1       7.266   5.396  15.519  0.00  0.00    +0.000 C 
ATOM     13  N   UNL     1       6.832   4.255  14.692  0.00  0.00    +0.000 NA
ATOM     14  C   UNL     1       5.489   3.792  15.082  0.00  0.00    +0.000 C 
ATOM     15  C   UNL     1       5.407   3.416  16.565  0.00  0.00    +0.000 C 
BRANCH  13  16
ATOM     16  C   UNL     1       6.806   4.645  13.258  0.00  0.00    +0.000 C 
BRANCH  16  17
ATOM     17  C   UNL     1       6.264   3.577  12.366  0.00  0.00    +0.000 A 
ATOM     18  C   UNL     1       4.999   3.263  11.912  0.00  0.00    +0.000 A 
ATOM     19  C   UNL     1       5.132   2.089  11.133  0.00  0.00    +0.000 A 
ATOM     20  C   UNL     1       6.470   1.773  11.141  0.00  0.00    +0.000 A 
ATOM     21  O   UNL     1       7.166   2.670  11.885  0.00  0.00    +0.000 OA
ENDBRANCH  16  17
ENDBRANCH  13  16
ENDBRANCH   7  10
BRANCH   3  22
ATOM     22  O   UNL     1       1.734   8.522  19.225  0.00  0.00    +0.000 OA
ATOM     23  H   UNL     1       1.033   8.355  18.573  0.00  0.00    +0.000 HD
ENDBRANCH   3  22
BRANCH   1  24
ATOM     24  C   UNL     1       2.062   4.397  21.490  0.00  0.00    +0.000 C 
BRANCH  24  25
ATOM     25  S   UNL     1       1.848   2.636  21.058  0.00  0.00    +0.000 S 
BRANCH  25  27
ATOM     26  C   UNL     1       1.375   2.284  18.392  0.00  0.00    +0.000 C 
ATOM     27  C   UNL     1       0.706   2.807  19.649  0.00  0.00    +0.000 C 
ENDBRANCH  25  27
ENDBRANCH  24  25
ENDBRANCH   1  24
TORSDOF 7
ENDMDL
MODEL 5
REMARK VINA RESULT:      -6.4      3.622      8.519
REMARK  Name = 
REMARK  8 active torsions:
REMARK  status: ('A' for Active; 'I' for Inactive)
REMARK    1  A    between atoms: C_1  and  C_2
REMARK    2  A    between atoms: C_2  and  S_3
REMARK    3  A    between atoms: S_3  and  C_4
REMARK    4  A    between atoms: C_4  and  C_5
REMARK    5  A    between atoms: C_7  and  O_8
REMARK    6  A    between atoms: N_12  and  C_13
REMARK    7  A    between atoms: N_16  and  C_17
REMARK    8  A    between atoms: C_17  and  C_18
REMARK                            x       y       z     vdW  Elec       q    Type
REMARK                         _______ _______ _______ _____ _____    ______ ____
ROOT
ATOM      1  C   UNL     1       1.243   9.176  21.090  0.00  0.00    +0.000 A 
ATOM      2  N   UNL     1       1.269  10.310  20.338  0.00  0.00    +0.000 NA
ATOM      3  C   UNL     1       1.599  10.196  19.043  0.00  0.00    +0.000 A 
ATOM      4  C   UNL     1       1.918   8.965  18.492  0.00  0.00    +0.000 A 
ATOM      5  N   UNL     1       2.300   8.550  17.251  0.00  0.00    +0.000 NA
ATOM      6  N   UNL     1       2.503   7.240  17.310  0.00  0.00    +0.000 NA
ATOM      7  N   UNL     1       2.271   6.833  18.579  0.00  0.00    +0.000 N 
ATOM      8  C   UNL     1       1.865   7.888  19.360  0.00  0.00    +0.000 A 
ATOM      9  N   UNL     1       1.523   7.916  20.659  0.00  0.00    +0.000 NA
ENDROOT
BRANCH   7  10
ATOM     10  C   UNL     1       2.516   5.454  18.978  0.00  0.00    +0.000 C 
ATOM     11  C   UNL     1       3.702   5.315  19.939  0.00  0.00    +0.000 C 
ATOM     12  C   UNL     1       5.056   5.395  19.231  0.00  0.00    +0.000 C 
ATOM     13  N   UNL     1       5.165   4.419  18.132  0.00  0.00    +0.000 NA
ATOM     14  C   UNL     1       4.081   4.595  17.150  0.00  0.00    +0.000 C 
ATOM     15  C   UNL     1       2.692   4.503  17.788  0.00  0.00    +0.000 C 
BRANCH  13  16
ATOM     16  C   UNL     1       6.470   4.575  17.437  0.00  0.00    +0.000 C 
BRANCH  16  17
ATOM     17  C   UNL     1       7.141   5.876  17.728  0.00  0.00    +0.000 A 
ATOM     18  C   UNL     1       7.969   6.319  18.741  0.00  0.00    +0.000 A 
ATOM     19  C   UNL     1       8.228   7.685  18.480  0.00  0.00    +0.000 A 
ATOM     20  C   UNL     1       7.563   7.985  17.314  0.00  0.00    +0.000 A 
ATOM     21  O   UNL     1       6.902   6.895  16.849  0.00  0.00    +0.000 OA
ENDBRANCH  16  17
ENDBRANCH  13  16
ENDBRANCH   7  10
BRANCH   3  22
ATOM     22  O   UNL     1       1.625  11.370  18.345  0.00  0.00    +0.000 OA
ATOM     23  H   UNL     1       1.239  11.096  17.497  0.00  0.00    +0.000 HD
ENDBRANCH   3  22
BRANCH   1  24
ATOM     24  C   UNL     1       0.926   9.368  22.559  0.00  0.00    +0.000 C 
BRANCH  24  25
ATOM     25  S   UNL     1      -0.844   9.651  22.908  0.00  0.00    +0.000 S 
BRANCH  25  27
ATOM     26  C   UNL     1      -2.280  11.962  23.135  0.00  0.00    +0.000 C 
ATOM     27  C   UNL     1      -0.891  11.467  22.777  0.00  0.00    +0.000 C 
ENDBRANCH  25  27
ENDBRANCH  24  25
ENDBRANCH   1  24
TORSDOF 7
ENDMDL
MODEL 6
REMARK VINA RESULT:      -6.4      2.920      8.402
REMARK  Name = 
REMARK  8 active torsions:
REMARK  status: ('A' for Active; 'I' for Inactive)
REMARK    1  A    between atoms: C_1  and  C_2
REMARK    2  A    between atoms: C_2  and  S_3
REMARK    3  A    between atoms: S_3  and  C_4
REMARK    4  A    between atoms: C_4  and  C_5
REMARK    5  A    between atoms: C_7  and  O_8
REMARK    6  A    between atoms: N_12  and  C_13
REMARK    7  A    between atoms: N_16  and  C_17
REMARK    8  A    between atoms: C_17  and  C_18
REMARK                            x       y       z     vdW  Elec       q    Type
REMARK                         _______ _______ _______ _____ _____    ______ ____
ROOT
ATOM      1  C   UNL     1       1.709   5.963  20.615  0.00  0.00    +0.000 A 
ATOM      2  N   UNL     1       1.194   4.763  20.999  0.00  0.00    +0.000 NA
ATOM      3  C   UNL     1       1.946   3.669  20.810  0.00  0.00    +0.000 A 
ATOM      4  C   UNL     1       3.202   3.756  20.229  0.00  0.00    +0.000 A 
ATOM      5  N   UNL     1       4.162   2.845  19.900  0.00  0.00    +0.000 NA
ATOM      6  N   UNL     1       5.164   3.504  19.333  0.00  0.00    +0.000 NA
ATOM      7  N   UNL     1       4.834   4.815  19.285  0.00  0.00    +0.000 N 
ATOM      8  C   UNL     1       3.611   5.029  19.873  0.00  0.00    +0.000 A 
ATOM      9  N   UNL     1       2.928   6.173  20.048  0.00  0.00    +0.000 NA
ENDROOT
BRANCH   7  10
ATOM     10  C   UNL     1       5.699   5.779  18.618  0.00  0.00    +0.000 C 
ATOM     11  C   UNL     1       5.066   6.366  17.351  0.00  0.00    +0.000 C 
ATOM     12  C   UNL     1       5.133   5.414  16.155  0.00  0.00    +0.000 C 
ATOM     13  N   UNL     1       6.510   4.962  15.884  0.00  0.00    +0.000 NA
ATOM     14  C   UNL     1       7.104   4.314  17.066  0.00  0.00    +0.000 C 
ATOM     15  C   UNL     1       7.091   5.223  18.300  0.00  0.00    +0.000 C 
BRANCH  13  16
ATOM     16  C   UNL     1       6.517   3.994  14.755  0.00  0.00    +0.000 C 
BRANCH  16  17
ATOM     17  C   UNL     1       7.069   4.567  13.491  0.00  0.00    +0.000 A 
ATOM     18  C   UNL     1       6.893   4.274  12.154  0.00  0.00    +0.000 A 
ATOM     19  C   UNL     1       7.747   5.147  11.436  0.00  0.00    +0.000 A 
ATOM     20  C   UNL     1       8.371   5.931  12.377  0.00  0.00    +0.000 A 
ATOM     21  O   UNL     1       7.967   5.589  13.627  0.00  0.00    +0.000 OA
ENDBRANCH  16  17
ENDBRANCH  13  16
ENDBRANCH   7  10
BRANCH   3  22
ATOM     22  O   UNL     1       1.370   2.493  21.198  0.00  0.00    +0.000 OA
ATOM     23  H   UNL     1       2.019   1.846  20.876  0.00  0.00    +0.000 HD
ENDBRANCH   3  22
BRANCH   1  24
ATOM     24  C   UNL     1       0.795   7.157  20.792  0.00  0.00    +0.000 C 
BRANCH  24  25
ATOM     25  S   UNL     1       1.436   8.702  20.059  0.00  0.00    +0.000 S 
BRANCH  25  27
ATOM     26  C   UNL     1      -0.352  10.398  18.884  0.00  0.00    +0.000 C 
ATOM     27  C   UNL     1      -0.044   9.751  20.222  0.00  0.00    +0.000 C 
ENDBRANCH  25  27
ENDBRANCH  24  25
ENDBRANCH   1  24
TORSDOF 7
ENDMDL
MODEL 7
REMARK VINA RESULT:      -6.3      3.443      7.108
REMARK  Name = 
REMARK  8 active torsions:
REMARK  status: ('A' for Active; 'I' for Inactive)
REMARK    1  A    between atoms: C_1  and  C_2
REMARK    2  A    between atoms: C_2  and  S_3
REMARK    3  A    between atoms: S_3  and  C_4
REMARK    4  A    between atoms: C_4  and  C_5
REMARK    5  A    between atoms: C_7  and  O_8
REMARK    6  A    between atoms: N_12  and  C_13
REMARK    7  A    between atoms: N_16  and  C_17
REMARK    8  A    between atoms: C_17  and  C_18
REMARK                            x       y       z     vdW  Elec       q    Type
REMARK                         _______ _______ _______ _____ _____    ______ ____
ROOT
ATOM      1  C   UNL     1       2.368   6.387  19.305  0.00  0.00    +0.000 A 
ATOM      2  N   UNL     1       1.641   5.434  19.949  0.00  0.00    +0.000 NA
ATOM      3  C   UNL     1       1.885   4.149  19.647  0.00  0.00    +0.000 A 
ATOM      4  C   UNL     1       2.837   3.806  18.700  0.00  0.00    +0.000 A 
ATOM      5  N   UNL     1       3.279   2.625  18.182  0.00  0.00    +0.000 NA
ATOM      6  N   UNL     1       4.199   2.905  17.269  0.00  0.00    +0.000 NA
ATOM      7  N   UNL     1       4.325   4.250  17.194  0.00  0.00    +0.000 N 
ATOM      8  C   UNL     1       3.503   4.865  18.108  0.00  0.00    +0.000 A 
ATOM      9  N   UNL     1       3.333   6.172  18.371  0.00  0.00    +0.000 NA
ENDROOT
BRANCH   7  10
ATOM     10  C   UNL     1       5.192   4.866  16.198  0.00  0.00    +0.000 C 
ATOM     11  C   UNL     1       6.638   4.363  16.278  0.00  0.00    +0.000 C 
ATOM     12  C   UNL     1       7.429   5.001  17.421  0.00  0.00    +0.000 C 
ATOM     13  N   UNL     1       7.395   6.473  17.364  0.00  0.00    +0.000 NA
ATOM     14  C   UNL     1       6.012   6.979  17.377  0.00  0.00    +0.000 C 
ATOM     15  C   UNL     1       5.165   6.398  16.240  0.00  0.00    +0.000 C 
BRANCH  13  16
ATOM     16  C   UNL     1       8.125   7.047  18.526  0.00  0.00    +0.000 C 
BRANCH  16  17
ATOM     17  C   UNL     1       8.379   8.512  18.398  0.00  0.00    +0.000 A 
ATOM     18  C   UNL     1       8.003   9.470  17.478  0.00  0.00    +0.000 A 
ATOM     19  C   UNL     1       8.616  10.680  17.884  0.00  0.00    +0.000 A 
ATOM     20  C   UNL     1       9.307  10.391  19.037  0.00  0.00    +0.000 A 
ATOM     21  O   UNL     1       9.169   9.080  19.358  0.00  0.00    +0.000 OA
ENDBRANCH  16  17
ENDBRANCH  13  16
ENDBRANCH   7  10
BRANCH   3  22
ATOM     22  O   UNL     1       1.112   3.240  20.311  0.00  0.00    +0.000 OA
ATOM     23  H   UNL     1       1.711   2.476  20.354  0.00  0.00    +0.000 HD
ENDBRANCH   3  22
BRANCH   1  24
ATOM     24  C   UNL     1       2.010   7.821  19.637  0.00  0.00    +0.000 C 
BRANCH  24  25
ATOM     25  S   UNL     1       1.855   8.907  18.176  0.00  0.00    +0.000 S 
BRANCH  25  27
ATOM     26  C   UNL     1       0.349   9.806  20.268  0.00  0.00    +0.000 C 
ATOM     27  C   UNL     1       0.583  10.057  18.790  0.00  0.00    +0.000 C 
ENDBRANCH  25  27
ENDBRANCH  24  25
ENDBRANCH   1  24
TORSDOF 7
ENDMDL
MODEL 8
REMARK VINA RESULT:      -6.3      8.948     11.485
REMARK  Name = 
REMARK  8 active torsions:
REMARK  status: ('A' for Active; 'I' for Inactive)
REMARK    1  A    between atoms: C_1  and  C_2
REMARK    2  A    between atoms: C_2  and  S_3
REMARK    3  A    between atoms: S_3  and  C_4
REMARK    4  A    between atoms: C_4  and  C_5
REMARK    5  A    between atoms: C_7  and  O_8
REMARK    6  A    between atoms: N_12  and  C_13
REMARK    7  A    between atoms: N_16  and  C_17
REMARK    8  A    between atoms: C_17  and  C_18
REMARK                            x       y       z     vdW  Elec       q    Type
REMARK                         _______ _______ _______ _____ _____    ______ ____
ROOT
ATOM      1  C   UNL     1      -5.327  11.451  18.234  0.00  0.00    +0.000 A 
ATOM      2  N   UNL     1      -6.178  10.390  18.220  0.00  0.00    +0.000 NA
ATOM      3  C   UNL     1      -6.920  10.166  19.314  0.00  0.00    +0.000 A 
ATOM      4  C   UNL     1      -6.813  10.982  20.429  0.00  0.00    +0.000 A 
ATOM      5  N   UNL     1      -7.403  10.994  21.659  0.00  0.00    +0.000 NA
ATOM      6  N   UNL     1      -6.887  12.007  22.343  0.00  0.00    +0.000 NA
ATOM      7  N   UNL     1      -5.966  12.618  21.563  0.00  0.00    +0.000 N 
ATOM      8  C   UNL     1      -5.906  12.023  20.326  0.00  0.00    +0.000 A 
ATOM      9  N   UNL     1      -5.145  12.326  19.261  0.00  0.00    +0.000 NA
ENDROOT
BRANCH   7  10
ATOM     10  C   UNL     1      -5.151  13.707  22.084  0.00  0.00    +0.000 C 
ATOM     11  C   UNL     1      -3.892  13.960  21.246  0.00  0.00    +0.000 C 
ATOM     12  C   UNL     1      -2.782  12.943  21.517  0.00  0.00    +0.000 C 
ATOM     13  N   UNL     1      -2.442  12.863  22.949  0.00  0.00    +0.000 NA
ATOM     14  C   UNL     1      -3.625  12.533  23.762  0.00  0.00    +0.000 C 
ATOM     15  C   UNL     1      -4.772  13.527  23.558  0.00  0.00    +0.000 C 
BRANCH  13  16
ATOM     16  C   UNL     1      -1.403  11.822  23.170  0.00  0.00    +0.000 C 
BRANCH  16  17
ATOM     17  C   UNL     1      -0.505  11.626  21.994  0.00  0.00    +0.000 A 
ATOM     18  C   UNL     1      -0.371  10.628  21.050  0.00  0.00    +0.000 A 
ATOM     19  C   UNL     1       0.712  11.003  20.219  0.00  0.00    +0.000 A 
ATOM     20  C   UNL     1       1.156  12.215  20.693  0.00  0.00    +0.000 A 
ATOM     21  O   UNL     1       0.424  12.603  21.768  0.00  0.00    +0.000 OA
ENDBRANCH  16  17
ENDBRANCH  13  16
ENDBRANCH   7  10
BRANCH   3  22
ATOM     22  O   UNL     1      -7.741   9.077  19.247  0.00  0.00    +0.000 OA
ATOM     23  H   UNL     1      -8.589   9.459  19.528  0.00  0.00    +0.000 HD
ENDBRANCH   3  22
BRANCH   1  24
ATOM     24  C   UNL     1      -4.467  11.621  16.999  0.00  0.00    +0.000 C 
BRANCH  24  25
ATOM     25  S   UNL     1      -3.369  10.203  16.654  0.00  0.00    +0.000 S 
BRANCH  25  27
ATOM     26  C   UNL     1      -3.839   9.924  13.979  0.00  0.00    +0.000 C 
ATOM     27  C   UNL     1      -2.886  10.604  14.944  0.00  0.00    +0.000 C 
ENDBRANCH  25  27
ENDBRANCH  24  25
ENDBRANCH   1  24
TORSDOF 7
ENDMDL
MODEL 9
REMARK VINA RESULT:      -6.2      1.922      2.723
REMARK  Name = 
REMARK  8 active torsions:
REMARK  status: ('A' for Active; 'I' for Inactive)
REMARK    1  A    between atoms: C_1  and  C_2
REMARK    2  A    between atoms: C_2  and  S_3
REMARK    3  A    between atoms: S_3  and  C_4
REMARK    4  A    between atoms: C_4  and  C_5
REMARK    5  A    between atoms: C_7  and  O_8
REMARK    6  A    between atoms: N_12  and  C_13
REMARK    7  A    between atoms: N_16  and  C_17
REMARK    8  A    between atoms: C_17  and  C_18
REMARK                            x       y       z     vdW  Elec       q    Type
REMARK                         _______ _______ _______ _____ _____    ______ ____
ROOT
ATOM      1  C   UNL     1       6.768   5.192  15.586  0.00  0.00    +0.000 A 
ATOM      2  N   UNL     1       7.450   6.260  16.084  0.00  0.00    +0.000 NA
ATOM      3  C   UNL     1       7.454   6.436  17.413  0.00  0.00    +0.000 A 
ATOM      4  C   UNL     1       6.776   5.567  18.252  0.00  0.00    +0.000 A 
ATOM      5  N   UNL     1       6.587   5.500  19.601  0.00  0.00    +0.000 NA
ATOM      6  N   UNL     1       5.812   4.452  19.848  0.00  0.00    +0.000 NA
ATOM      7  N   UNL     1       5.497   3.872  18.667  0.00  0.00    +0.000 N 
ATOM      8  C   UNL     1       6.112   4.525  17.626  0.00  0.00    +0.000 A 
ATOM      9  N   UNL     1       6.078   4.268  16.308  0.00  0.00    +0.000 NA
ENDROOT
BRANCH   7  10
ATOM     10  C   UNL     1       4.567   2.752  18.609  0.00  0.00    +0.000 C 
ATOM     11  C   UNL     1       3.346   3.039  17.728  0.00  0.00    +0.000 C 
ATOM     12  C   UNL     1       2.306   3.923  18.419  0.00  0.00    +0.000 C 
ATOM     13  N   UNL     1       1.886   3.370  19.719  0.00  0.00    +0.000 NA
ATOM     14  C   UNL     1       3.039   3.170  20.614  0.00  0.00    +0.000 C 
ATOM     15  C   UNL     1       4.114   2.272  19.993  0.00  0.00    +0.000 C 
BRANCH  13  16
ATOM     16  C   UNL     1       0.923   4.290  20.379  0.00  0.00    +0.000 C 
BRANCH  16  17
ATOM     17  C   UNL     1       1.325   5.725  20.293  0.00  0.00    +0.000 A 
ATOM     18  C   UNL     1       2.199   6.426  19.486  0.00  0.00    +0.000 A 
ATOM     19  C   UNL     1       2.180   7.766  19.941  0.00  0.00    +0.000 A 
ATOM     20  C   UNL     1       1.280   7.805  20.981  0.00  0.00    +0.000 A 
ATOM     21  O   UNL     1       0.755   6.573  21.201  0.00  0.00    +0.000 OA
ENDBRANCH  16  17
ENDBRANCH  13  16
ENDBRANCH   7  10
BRANCH   3  22
ATOM     22  O   UNL     1       8.139   7.534  17.851  0.00  0.00    +0.000 OA
ATOM     23  H   UNL     1       8.044   7.446  18.815  0.00  0.00    +0.000 HD
ENDBRANCH   3  22
BRANCH   1  24
ATOM     24  C   UNL     1       6.742   5.075  14.076  0.00  0.00    +0.000 C 
BRANCH  24  25
ATOM     25  S   UNL     1       6.242   3.428  13.465  0.00  0.00    +0.000 S 
BRANCH  25  27
ATOM     26  C   UNL     1       4.641   2.786  11.349  0.00  0.00    +0.000 C 
ATOM     27  C   UNL     1       4.919   3.923  12.315  0.00  0.00    +0.000 C 
ENDBRANCH  25  27
ENDBRANCH  24  25
ENDBRANCH   1  24
TORSDOF 7
ENDMDL
