MODEL 1
REMARK VINA RESULT:      -7.6      0.000      0.000
REMARK  Name = 
REMARK  5 active torsions:
REMARK  status: ('A' for Active; 'I' for Inactive)
REMARK    1  A    between atoms: C_1  and  C_2
REMARK    2  A    between atoms: C_2  and  N_3
REMARK    3  A    between atoms: C_5  and  C_6
REMARK    4  A    between atoms: C_6  and  N_7
REMARK    5  A    between atoms: C_20  and  O_21
REMARK                            x       y       z     vdW  Elec       q    Type
REMARK                         _______ _______ _______ _____ _____    ______ ____
ROOT
ATOM      1  N   UNL     1       5.335   4.056  17.188  0.00  0.00    +0.000 NA
ATOM      2  C   UNL     1       5.556   4.280  18.620  0.00  0.00    +0.000 C 
ATOM      3  C   UNL     1       4.705   5.415  19.215  0.00  0.00    +0.000 C 
ATOM      4  C   UNL     1       3.185   5.267  18.951  0.00  0.00    +0.000 C 
ATOM      5  C   UNL     1       2.923   4.787  17.499  0.00  0.00    +0.000 C 
ATOM      6  C   UNL     1       3.916   3.749  16.964  0.00  0.00    +0.000 C 
ATOM      7  C   UNL     1       2.482   6.601  19.201  0.00  0.00    +0.000 A 
ATOM      8  C   UNL     1       2.501   7.745  18.407  0.00  0.00    +0.000 A 
ATOM      9  C   UNL     1       1.835   8.895  18.843  0.00  0.00    +0.000 A 
ATOM     10  C   UNL     1       1.182   8.912  20.080  0.00  0.00    +0.000 A 
ATOM     11  C   UNL     1       1.137   7.759  20.864  0.00  0.00    +0.000 A 
ATOM     12  C   UNL     1       1.762   6.607  20.395  0.00  0.00    +0.000 A 
ATOM     13  C   UNL     1       1.726   5.266  21.040  0.00  0.00    +0.000 C 
ATOM     14  C   UNL     1       2.469   4.356  20.028  0.00  0.00    +0.000 C 
ENDROOT
BRANCH  14  15
ATOM     15  O   UNL     1       3.360   3.497  20.739  0.00  0.00    +0.000 OA
ATOM     16  H   UNL     1       3.470   3.838  21.641  0.00  0.00    +0.000 HD
ENDBRANCH  14  15
BRANCH   1  17
ATOM     17  C   UNL     1       5.849   5.133  16.334  0.00  0.00    +0.000 C 
BRANCH  17  20
ATOM     18  N   UNL     1       6.408   3.628  13.028  0.00  0.00    +0.000 N 
ATOM     19  C   UNL     1       5.906   3.513  14.299  0.00  0.00    +0.000 A 
ATOM     20  C   UNL     1       6.329   4.625  15.001  0.00  0.00    +0.000 A 
ATOM     21  C   UNL     1       7.218   5.261  14.095  0.00  0.00    +0.000 A 
ATOM     22  N   UNL     1       7.286   4.645  12.908  0.00  0.00    +0.000 NA
BRANCH  18  24
ATOM     23  C   UNL     1       4.398   3.280  11.581  0.00  0.00    +0.000 C 
ATOM     24  C   UNL     1       5.869   3.003  11.841  0.00  0.00    +0.000 C 
ENDBRANCH  18  24
ENDBRANCH  17  20
ENDBRANCH   1  17
TORSDOF 4
ENDMDL
MODEL 2
REMARK VINA RESULT:      -7.6      1.639      3.074
REMARK  Name = 
REMARK  5 active torsions:
REMARK  status: ('A' for Active; 'I' for Inactive)
REMARK    1  A    between atoms: C_1  and  C_2
REMARK    2  A    between atoms: C_2  and  N_3
REMARK    3  A    between atoms: C_5  and  C_6
REMARK    4  A    between atoms: C_6  and  N_7
REMARK    5  A    between atoms: C_20  and  O_21
REMARK                            x       y       z     vdW  Elec       q    Type
REMARK                         _______ _______ _______ _____ _____    ______ ____
ROOT
ATOM      1  N   UNL     1       6.339   5.936  16.879  0.00  0.00    +0.000 NA
ATOM      2  C   UNL     1       4.955   6.167  16.449  0.00  0.00    +0.000 C 
ATOM      3  C   UNL     1       3.911   5.364  17.242  0.00  0.00    +0.000 C 
ATOM      4  C   UNL     1       4.005   5.552  18.778  0.00  0.00    +0.000 C 
ATOM      5  C   UNL     1       5.486   5.560  19.241  0.00  0.00    +0.000 C 
ATOM      6  C   UNL     1       6.462   6.278  18.303  0.00  0.00    +0.000 C 
ATOM      7  C   UNL     1       3.236   4.436  19.486  0.00  0.00    +0.000 A 
ATOM      8  C   UNL     1       3.601   3.100  19.635  0.00  0.00    +0.000 A 
ATOM      9  C   UNL     1       2.724   2.215  20.270  0.00  0.00    +0.000 A 
ATOM     10  C   UNL     1       1.477   2.655  20.725  0.00  0.00    +0.000 A 
ATOM     11  C   UNL     1       1.121   3.998  20.603  0.00  0.00    +0.000 A 
ATOM     12  C   UNL     1       2.023   4.878  20.014  0.00  0.00    +0.000 A 
ATOM     13  C   UNL     1       1.861   6.353  19.897  0.00  0.00    +0.000 C 
ATOM     14  C   UNL     1       3.206   6.820  19.283  0.00  0.00    +0.000 C 
ENDROOT
BRANCH  14  15
ATOM     15  O   UNL     1       2.945   7.780  18.260  0.00  0.00    +0.000 OA
ATOM     16  H   UNL     1       3.600   8.494  18.325  0.00  0.00    +0.000 HD
ENDBRANCH  14  15
BRANCH   1  17
ATOM     17  C   UNL     1       6.847   4.601  16.546  0.00  0.00    +0.000 C 
BRANCH  17  20
ATOM     18  N   UNL     1       6.207   3.734  13.032  0.00  0.00    +0.000 N 
ATOM     19  C   UNL     1       6.119   3.396  14.358  0.00  0.00    +0.000 A 
ATOM     20  C   UNL     1       6.839   4.341  15.064  0.00  0.00    +0.000 A 
ATOM     21  C   UNL     1       7.453   5.110  14.040  0.00  0.00    +0.000 A 
ATOM     22  N   UNL     1       7.091   4.729  12.809  0.00  0.00    +0.000 NA
BRANCH  18  24
ATOM     23  C   UNL     1       5.500   1.992  11.383  0.00  0.00    +0.000 C 
ATOM     24  C   UNL     1       5.270   3.362  11.996  0.00  0.00    +0.000 C 
ENDBRANCH  18  24
ENDBRANCH  17  20
ENDBRANCH   1  17
TORSDOF 4
ENDMDL
MODEL 3
REMARK VINA RESULT:      -7.3      2.531      3.406
REMARK  Name = 
REMARK  5 active torsions:
REMARK  status: ('A' for Active; 'I' for Inactive)
REMARK    1  A    between atoms: C_1  and  C_2
REMARK    2  A    between atoms: C_2  and  N_3
REMARK    3  A    between atoms: C_5  and  C_6
REMARK    4  A    between atoms: C_6  and  N_7
REMARK    5  A    between atoms: C_20  and  O_21
REMARK                            x       y       z     vdW  Elec       q    Type
REMARK                         _______ _______ _______ _____ _____    ______ ____
ROOT
ATOM      1  N   UNL     1       4.099   3.775  17.830  0.00  0.00    +0.000 NA
ATOM      2  C   UNL     1       4.502   4.389  19.099  0.00  0.00    +0.000 C 
ATOM      3  C   UNL     1       3.968   5.816  19.302  0.00  0.00    +0.000 C 
ATOM      4  C   UNL     1       2.431   5.943  19.141  0.00  0.00    +0.000 C 
ATOM      5  C   UNL     1       1.933   5.097  17.939  0.00  0.00    +0.000 C 
ATOM      6  C   UNL     1       2.632   3.744  17.757  0.00  0.00    +0.000 C 
ATOM      7  C   UNL     1       2.047   7.410  18.948  0.00  0.00    +0.000 A 
ATOM      8  C   UNL     1       2.224   8.204  17.818  0.00  0.00    +0.000 A 
ATOM      9  C   UNL     1       1.858   9.553  17.861  0.00  0.00    +0.000 A 
ATOM     10  C   UNL     1       1.348  10.112  19.037  0.00  0.00    +0.000 A 
ATOM     11  C   UNL     1       1.143   9.314  20.162  0.00  0.00    +0.000 A 
ATOM     12  C   UNL     1       1.466   7.962  20.090  0.00  0.00    +0.000 A 
ATOM     13  C   UNL     1       1.218   6.943  21.146  0.00  0.00    +0.000 C 
ATOM     14  C   UNL     1       1.652   5.612  20.478  0.00  0.00    +0.000 C 
ENDROOT
BRANCH  14  15
ATOM     15  O   UNL     1       2.413   4.847  21.412  0.00  0.00    +0.000 OA
ATOM     16  H   UNL     1       1.919   4.791  22.246  0.00  0.00    +0.000 HD
ENDBRANCH  14  15
BRANCH   1  17
ATOM     17  C   UNL     1       4.737   4.375  16.653  0.00  0.00    +0.000 C 
BRANCH  17  20
ATOM     18  N   UNL     1       7.621   6.425  17.646  0.00  0.00    +0.000 N 
ATOM     19  C   UNL     1       6.407   6.337  17.014  0.00  0.00    +0.000 A 
ATOM     20  C   UNL     1       6.067   4.998  16.981  0.00  0.00    +0.000 A 
ATOM     21  C   UNL     1       7.231   4.356  17.479  0.00  0.00    +0.000 A 
ATOM     22  N   UNL     1       8.183   5.218  17.860  0.00  0.00    +0.000 NA
BRANCH  18  24
ATOM     23  C   UNL     1       7.873   8.913  17.637  0.00  0.00    +0.000 C 
ATOM     24  C   UNL     1       8.141   7.588  18.330  0.00  0.00    +0.000 C 
ENDBRANCH  18  24
ENDBRANCH  17  20
ENDBRANCH   1  17
TORSDOF 4
ENDMDL
MODEL 4
REMARK VINA RESULT:      -6.9      1.863      3.313
REMARK  Name = 
REMARK  5 active torsions:
REMARK  status: ('A' for Active; 'I' for Inactive)
REMARK    1  A    between atoms: C_1  and  C_2
REMARK    2  A    between atoms: C_2  and  N_3
REMARK    3  A    between atoms: C_5  and  C_6
REMARK    4  A    between atoms: C_6  and  N_7
REMARK    5  A    between atoms: C_20  and  O_21
REMARK                            x       y       z     vdW  Elec       q    Type
REMARK                         _______ _______ _______ _____ _____    ______ ____
ROOT
ATOM      1  N   UNL     1       6.666   5.937  17.146  0.00  0.00    +0.000 NA
ATOM      2  C   UNL     1       5.356   6.354  16.635  0.00  0.00    +0.000 C 
ATOM      3  C   UNL     1       4.188   5.479  17.118  0.00  0.00    +0.000 C 
ATOM      4  C   UNL     1       4.108   5.329  18.659  0.00  0.00    +0.000 C 
ATOM      5  C   UNL     1       5.523   5.131  19.265  0.00  0.00    +0.000 C 
ATOM      6  C   UNL     1       6.636   5.959  18.615  0.00  0.00    +0.000 C 
ATOM      7  C   UNL     1       3.209   4.148  19.021  0.00  0.00    +0.000 A 
ATOM      8  C   UNL     1       3.488   2.788  18.911  0.00  0.00    +0.000 A 
ATOM      9  C   UNL     1       2.501   1.854  19.241  0.00  0.00    +0.000 A 
ATOM     10  C   UNL     1       1.232   2.277  19.648  0.00  0.00    +0.000 A 
ATOM     11  C   UNL     1       0.958   3.637  19.787  0.00  0.00    +0.000 A 
ATOM     12  C   UNL     1       1.964   4.554  19.503  0.00  0.00    +0.000 A 
ATOM     13  C   UNL     1       1.889   6.028  19.696  0.00  0.00    +0.000 C 
ATOM     14  C   UNL     1       3.318   6.516  19.344  0.00  0.00    +0.000 C 
ENDROOT
BRANCH  14  15
ATOM     15  O   UNL     1       3.226   7.687  18.534  0.00  0.00    +0.000 OA
ATOM     16  H   UNL     1       3.906   8.320  18.819  0.00  0.00    +0.000 HD
ENDBRANCH  14  15
BRANCH   1  17
ATOM     17  C   UNL     1       7.145   4.670  16.583  0.00  0.00    +0.000 C 
BRANCH  17  20
ATOM     18  N   UNL     1       6.687   4.195  12.968  0.00  0.00    +0.000 N 
ATOM     19  C   UNL     1       7.318   4.850  13.993  0.00  0.00    +0.000 A 
ATOM     20  C   UNL     1       6.690   4.468  15.163  0.00  0.00    +0.000 A 
ATOM     21  C   UNL     1       5.587   3.701  14.702  0.00  0.00    +0.000 A 
ATOM     22  N   UNL     1       5.570   3.555  13.372  0.00  0.00    +0.000 NA
BRANCH  18  24
ATOM     23  C   UNL     1       7.187   2.432  11.265  0.00  0.00    +0.000 C 
ATOM     24  C   UNL     1       7.256   3.894  11.673  0.00  0.00    +0.000 C 
ENDBRANCH  18  24
ENDBRANCH  17  20
ENDBRANCH   1  17
TORSDOF 4
ENDMDL
MODEL 5
REMARK VINA RESULT:      -6.6      4.155      6.886
REMARK  Name = 
REMARK  5 active torsions:
REMARK  status: ('A' for Active; 'I' for Inactive)
REMARK    1  A    between atoms: C_1  and  C_2
REMARK    2  A    between atoms: C_2  and  N_3
REMARK    3  A    between atoms: C_5  and  C_6
REMARK    4  A    between atoms: C_6  and  N_7
REMARK    5  A    between atoms: C_20  and  O_21
REMARK                            x       y       z     vdW  Elec       q    Type
REMARK                         _______ _______ _______ _____ _____    ______ ____
ROOT
ATOM      1  N   UNL     1       1.506   9.599  18.007  0.00  0.00    +0.000 NA
ATOM      2  C   UNL     1       0.072   9.646  17.702  0.00  0.00    +0.000 C 
ATOM      3  C   UNL     1      -0.806  10.084  18.886  0.00  0.00    +0.000 C 
ATOM      4  C   UNL     1      -0.377  11.429  19.525  0.00  0.00    +0.000 C 
ATOM      5  C   UNL     1       1.168  11.516  19.638  0.00  0.00    +0.000 C 
ATOM      6  C   UNL     1       1.945  10.928  18.455  0.00  0.00    +0.000 C 
ATOM      7  C   UNL     1      -1.016  11.576  20.906  0.00  0.00    +0.000 A 
ATOM      8  C   UNL     1      -0.678  10.916  22.085  0.00  0.00    +0.000 A 
ATOM      9  C   UNL     1      -1.430  11.146  23.241  0.00  0.00    +0.000 A 
ATOM     10  C   UNL     1      -2.533  12.005  23.211  0.00  0.00    +0.000 A 
ATOM     11  C   UNL     1      -2.856  12.689  22.040  0.00  0.00    +0.000 A 
ATOM     12  C   UNL     1      -2.071  12.489  20.910  0.00  0.00    +0.000 A 
ATOM     13  C   UNL     1      -2.199  13.208  19.613  0.00  0.00    +0.000 C 
ATOM     14  C   UNL     1      -1.001  12.679  18.782  0.00  0.00    +0.000 C 
ENDROOT
BRANCH  14  15
ATOM     15  O   UNL     1      -1.440  12.398  17.454  0.00  0.00    +0.000 OA
ATOM     16  H   UNL     1      -2.388  12.188  17.476  0.00  0.00    +0.000 HD
ENDBRANCH  14  15
BRANCH   1  17
ATOM     17  C   UNL     1       1.881   8.514  18.920  0.00  0.00    +0.000 C 
BRANCH  17  20
ATOM     18  N   UNL     1       4.160   6.169  17.242  0.00  0.00    +0.000 N 
ATOM     19  C   UNL     1       3.715   7.455  17.407  0.00  0.00    +0.000 A 
ATOM     20  C   UNL     1       2.593   7.393  18.212  0.00  0.00    +0.000 A 
ATOM     21  C   UNL     1       2.362   5.997  18.338  0.00  0.00    +0.000 A 
ATOM     22  N   UNL     1       3.297   5.255  17.730  0.00  0.00    +0.000 NA
BRANCH  18  24
ATOM     23  C   UNL     1       5.739   5.434  15.447  0.00  0.00    +0.000 C 
ATOM     24  C   UNL     1       5.510   5.773  16.910  0.00  0.00    +0.000 C 
ENDBRANCH  18  24
ENDBRANCH  17  20
ENDBRANCH   1  17
TORSDOF 4
ENDMDL
MODEL 6
REMARK VINA RESULT:      -6.6      0.833      1.166
REMARK  Name = 
REMARK  5 active torsions:
REMARK  status: ('A' for Active; 'I' for Inactive)
REMARK    1  A    between atoms: C_1  and  C_2
REMARK    2  A    between atoms: C_2  and  N_3
REMARK    3  A    between atoms: C_5  and  C_6
REMARK    4  A    between atoms: C_6  and  N_7
REMARK    5  A    between atoms: C_20  and  O_21
REMARK                            x       y       z     vdW  Elec       q    Type
REMARK                         _______ _______ _______ _____ _____    ______ ____
ROOT
ATOM      1  N   UNL     1       5.498   3.948  16.721  0.00  0.00    +0.000 NA
ATOM      2  C   UNL     1       5.840   4.253  18.114  0.00  0.00    +0.000 C 
ATOM      3  C   UNL     1       4.994   5.376  18.736  0.00  0.00    +0.000 C 
ATOM      4  C   UNL     1       3.465   5.147  18.625  0.00  0.00    +0.000 C 
ATOM      5  C   UNL     1       3.093   4.585  17.227  0.00  0.00    +0.000 C 
ATOM      6  C   UNL     1       4.081   3.567  16.647  0.00  0.00    +0.000 C 
ATOM      7  C   UNL     1       2.723   6.459  18.880  0.00  0.00    +0.000 A 
ATOM      8  C   UNL     1       2.612   7.563  18.038  0.00  0.00    +0.000 A 
ATOM      9  C   UNL     1       1.934   8.702  18.483  0.00  0.00    +0.000 A 
ATOM     10  C   UNL     1       1.399   8.750  19.775  0.00  0.00    +0.000 A 
ATOM     11  C   UNL     1       1.483   7.637  20.610  0.00  0.00    +0.000 A 
ATOM     12  C   UNL     1       2.118   6.492  20.137  0.00  0.00    +0.000 A 
ATOM     13  C   UNL     1       2.208   5.184  20.841  0.00  0.00    +0.000 C 
ATOM     14  C   UNL     1       2.897   4.259  19.805  0.00  0.00    +0.000 C 
ENDROOT
BRANCH  14  15
ATOM     15  O   UNL     1       3.892   3.478  20.465  0.00  0.00    +0.000 OA
ATOM     16  H   UNL     1       4.706   3.493  19.935  0.00  0.00    +0.000 HD
ENDBRANCH  14  15
BRANCH   1  17
ATOM     17  C   UNL     1       5.877   5.003  15.774  0.00  0.00    +0.000 C 
BRANCH  17  20
ATOM     18  N   UNL     1       6.531   3.570  12.454  0.00  0.00    +0.000 N 
ATOM     19  C   UNL     1       6.986   4.282  13.534  0.00  0.00    +0.000 A 
ATOM     20  C   UNL     1       5.896   4.515  14.352  0.00  0.00    +0.000 A 
ATOM     21  C   UNL     1       4.805   4.035  13.579  0.00  0.00    +0.000 A 
ATOM     22  N   UNL     1       5.185   3.485  12.419  0.00  0.00    +0.000 NA
BRANCH  18  24
ATOM     23  C   UNL     1       6.606   1.470  11.099  0.00  0.00    +0.000 C 
ATOM     24  C   UNL     1       7.325   2.707  11.609  0.00  0.00    +0.000 C 
ENDBRANCH  18  24
ENDBRANCH  17  20
ENDBRANCH   1  17
TORSDOF 4
ENDMDL
MODEL 7
REMARK VINA RESULT:      -6.4      4.197      6.954
REMARK  Name = 
REMARK  5 active torsions:
REMARK  status: ('A' for Active; 'I' for Inactive)
REMARK    1  A    between atoms: C_1  and  C_2
REMARK    2  A    between atoms: C_2  and  N_3
REMARK    3  A    between atoms: C_5  and  C_6
REMARK    4  A    between atoms: C_6  and  N_7
REMARK    5  A    between atoms: C_20  and  O_21
REMARK                            x       y       z     vdW  Elec       q    Type
REMARK                         _______ _______ _______ _____ _____    ______ ____
ROOT
ATOM      1  N   UNL     1       1.458   9.498  18.108  0.00  0.00    +0.000 NA
ATOM      2  C   UNL     1       0.044   9.647  17.747  0.00  0.00    +0.000 C 
ATOM      3  C   UNL     1      -0.843  10.164  18.892  0.00  0.00    +0.000 C 
ATOM      4  C   UNL     1      -0.340  11.482  19.533  0.00  0.00    +0.000 C 
ATOM      5  C   UNL     1       1.202  11.456  19.704  0.00  0.00    +0.000 C 
ATOM      6  C   UNL     1       1.977  10.796  18.558  0.00  0.00    +0.000 C 
ATOM      7  C   UNL     1      -1.018  11.695  20.886  0.00  0.00    +0.000 A 
ATOM      8  C   UNL     1      -0.774  11.027  22.084  0.00  0.00    +0.000 A 
ATOM      9  C   UNL     1      -1.550  11.328  23.208  0.00  0.00    +0.000 A 
ATOM     10  C   UNL     1      -2.584  12.266  23.127  0.00  0.00    +0.000 A 
ATOM     11  C   UNL     1      -2.811  12.957  21.937  0.00  0.00    +0.000 A 
ATOM     12  C   UNL     1      -2.000  12.683  20.840  0.00  0.00    +0.000 A 
ATOM     13  C   UNL     1      -2.026  13.392  19.531  0.00  0.00    +0.000 C 
ATOM     14  C   UNL     1      -0.840  12.765  18.753  0.00  0.00    +0.000 C 
ENDROOT
BRANCH  14  15
ATOM     15  O   UNL     1      -1.249  12.500  17.412  0.00  0.00    +0.000 OA
ATOM     16  H   UNL     1      -0.828  13.146  16.823  0.00  0.00    +0.000 HD
ENDBRANCH  14  15
BRANCH   1  17
ATOM     17  C   UNL     1       1.717   8.400  19.046  0.00  0.00    +0.000 C 
BRANCH  17  20
ATOM     18  N   UNL     1       3.471   5.485  17.657  0.00  0.00    +0.000 N 
ATOM     19  C   UNL     1       2.585   5.994  18.571  0.00  0.00    +0.000 A 
ATOM     20  C   UNL     1       2.655   7.371  18.477  0.00  0.00    +0.000 A 
ATOM     21  C   UNL     1       3.739   7.579  17.584  0.00  0.00    +0.000 A 
ATOM     22  N   UNL     1       4.251   6.438  17.105  0.00  0.00    +0.000 NA
BRANCH  18  24
ATOM     23  C   UNL     1       2.378   3.236  17.657  0.00  0.00    +0.000 C 
ATOM     24  C   UNL     1       3.413   4.171  17.057  0.00  0.00    +0.000 C 
ENDBRANCH  18  24
ENDBRANCH  17  20
ENDBRANCH   1  17
TORSDOF 4
ENDMDL
MODEL 8
REMARK VINA RESULT:      -6.3      1.229      1.672
REMARK  Name = 
REMARK  5 active torsions:
REMARK  status: ('A' for Active; 'I' for Inactive)
REMARK    1  A    between atoms: C_1  and  C_2
REMARK    2  A    between atoms: C_2  and  N_3
REMARK    3  A    between atoms: C_5  and  C_6
REMARK    4  A    between atoms: C_6  and  N_7
REMARK    5  A    between atoms: C_20  and  O_21
REMARK                            x       y       z     vdW  Elec       q    Type
REMARK                         _______ _______ _______ _____ _____    ______ ____
ROOT
ATOM      1  N   UNL     1       4.228   4.915  17.594  0.00  0.00    +0.000 NA
ATOM      2  C   UNL     1       4.612   5.412  18.919  0.00  0.00    +0.000 C 
ATOM      3  C   UNL     1       3.904   6.714  19.329  0.00  0.00    +0.000 C 
ATOM      4  C   UNL     1       2.358   6.645  19.239  0.00  0.00    +0.000 C 
ATOM      5  C   UNL     1       1.915   5.898  17.953  0.00  0.00    +0.000 C 
ATOM      6  C   UNL     1       2.777   4.691  17.568  0.00  0.00    +0.000 C 
ATOM      7  C   UNL     1       1.773   8.057  19.257  0.00  0.00    +0.000 A 
ATOM      8  C   UNL     1       1.782   9.006  18.237  0.00  0.00    +0.000 A 
ATOM      9  C   UNL     1       1.242  10.274  18.473  0.00  0.00    +0.000 A 
ATOM     10  C   UNL     1       0.725  10.603  19.730  0.00  0.00    +0.000 A 
ATOM     11  C   UNL     1       0.688   9.647  20.744  0.00  0.00    +0.000 A 
ATOM     12  C   UNL     1       1.184   8.374  20.481  0.00  0.00    +0.000 A 
ATOM     13  C   UNL     1       1.129   7.204  21.400  0.00  0.00    +0.000 C 
ATOM     14  C   UNL     1       1.701   6.043  20.546  0.00  0.00    +0.000 C 
ENDROOT
BRANCH  14  15
ATOM     15  O   UNL     1       2.604   5.278  21.343  0.00  0.00    +0.000 OA
ATOM     16  H   UNL     1       2.392   5.418  22.280  0.00  0.00    +0.000 HD
ENDBRANCH  14  15
BRANCH   1  17
ATOM     17  C   UNL     1       4.718   5.742  16.486  0.00  0.00    +0.000 C 
BRANCH  17  20
ATOM     18  N   UNL     1       6.482   3.957  13.801  0.00  0.00    +0.000 N 
ATOM     19  C   UNL     1       5.320   4.182  14.493  0.00  0.00    +0.000 A 
ATOM     20  C   UNL     1       5.642   4.984  15.572  0.00  0.00    +0.000 A 
ATOM     21  C   UNL     1       7.059   5.046  15.517  0.00  0.00    +0.000 A 
ATOM     22  N   UNL     1       7.572   4.405  14.459  0.00  0.00    +0.000 NA
BRANCH  18  24
ATOM     23  C   UNL     1       7.315   4.619  11.538  0.00  0.00    +0.000 C 
ATOM     24  C   UNL     1       6.584   3.606  12.402  0.00  0.00    +0.000 C 
ENDBRANCH  18  24
ENDBRANCH  17  20
ENDBRANCH   1  17
TORSDOF 4
ENDMDL
MODEL 9
REMARK VINA RESULT:      -6.3      4.278      5.890
REMARK  Name = 
REMARK  5 active torsions:
REMARK  status: ('A' for Active; 'I' for Inactive)
REMARK    1  A    between atoms: C_1  and  C_2
REMARK    2  A    between atoms: C_2  and  N_3
REMARK    3  A    between atoms: C_5  and  C_6
REMARK    4  A    between atoms: C_6  and  N_7
REMARK    5  A    between atoms: C_20  and  O_21
REMARK                            x       y       z     vdW  Elec       q    Type
REMARK                         _______ _______ _______ _____ _____    ______ ____
ROOT
ATOM      1  N   UNL     1       7.691   6.630  17.538  0.00  0.00    +0.000 NA
ATOM      2  C   UNL     1       7.618   5.191  17.815  0.00  0.00    +0.000 C 
ATOM      3  C   UNL     1       6.285   4.739  18.434  0.00  0.00    +0.000 C 
ATOM      4  C   UNL     1       5.036   5.164  17.621  0.00  0.00    +0.000 C 
ATOM      5  C   UNL     1       5.190   6.618  17.098  0.00  0.00    +0.000 C 
ATOM      6  C   UNL     1       6.598   6.999  16.628  0.00  0.00    +0.000 C 
ATOM      7  C   UNL     1       3.784   5.046  18.491  0.00  0.00    +0.000 A 
ATOM      8  C   UNL     1       3.380   5.876  19.533  0.00  0.00    +0.000 A 
ATOM      9  C   UNL     1       2.223   5.562  20.253  0.00  0.00    +0.000 A 
ATOM     10  C   UNL     1       1.492   4.407  19.953  0.00  0.00    +0.000 A 
ATOM     11  C   UNL     1       1.879   3.590  18.891  0.00  0.00    +0.000 A 
ATOM     12  C   UNL     1       3.004   3.941  18.152  0.00  0.00    +0.000 A 
ATOM     13  C   UNL     1       3.500   3.253  16.929  0.00  0.00    +0.000 C 
ATOM     14  C   UNL     1       4.686   4.140  16.467  0.00  0.00    +0.000 C 
ENDROOT
BRANCH  14  15
ATOM     15  O   UNL     1       5.778   3.302  16.092  0.00  0.00    +0.000 OA
ATOM     16  H   UNL     1       6.521   3.467  16.695  0.00  0.00    +0.000 HD
ENDBRANCH  14  15
BRANCH   1  17
ATOM     17  C   UNL     1       7.762   7.461  18.745  0.00  0.00    +0.000 C 
BRANCH  17  20
ATOM     18  N   UNL     1       8.660  10.911  17.849  0.00  0.00    +0.000 N 
ATOM     19  C   UNL     1       8.026   9.741  17.518  0.00  0.00    +0.000 A 
ATOM     20  C   UNL     1       8.378   8.807  18.475  0.00  0.00    +0.000 A 
ATOM     21  C   UNL     1       9.360   9.486  19.243  0.00  0.00    +0.000 A 
ATOM     22  N   UNL     1       9.550  10.752  18.851  0.00  0.00    +0.000 NA
BRANCH  18  24
ATOM     23  C   UNL     1       9.243  13.342  17.783  0.00  0.00    +0.000 C 
ATOM     24  C   UNL     1       8.247  12.241  17.463  0.00  0.00    +0.000 C 
ENDBRANCH  18  24
ENDBRANCH  17  20
ENDBRANCH   1  17
TORSDOF 4
ENDMDL
