MODEL 1
REMARK VINA RESULT:      -8.9      0.000      0.000
REMARK  Name = 
REMARK  3 active torsions:
REMARK  status: ('A' for Active; 'I' for Inactive)
REMARK    1  A    between atoms: C_2  and  C_12
REMARK    2  A    between atoms: N_3  and  C_4
REMARK    3  A    between atoms: C_4  and  C_5
REMARK                            x       y       z     vdW  Elec       q    Type
REMARK                         _______ _______ _______ _____ _____    ______ ____
ROOT
ATOM      1  C   UNL     1       7.097   5.934  17.687  0.00  0.00    +0.000 A 
ATOM      2  C   UNL     1       7.864   6.078  18.836  0.00  0.00    +0.000 A 
ATOM      3  C   UNL     1       8.496   7.306  19.105  0.00  0.00    +0.000 A 
ATOM      4  C   UNL     1       8.315   8.380  18.245  0.00  0.00    +0.000 A 
ATOM      5  N   UNL     1       8.914   9.626  18.556  0.00  0.00    +0.000 N 
ATOM      6  C   UNL     1       8.517  10.841  18.029  0.00  0.00    +0.000 C 
ATOM      7  O   UNL     1       7.574  10.999  17.259  0.00  0.00    +0.000 OA
ATOM      8  N   UNL     1       9.249  11.930  18.479  0.00  0.00    +0.000 N 
ATOM      9  C   UNL     1       8.851  13.299  18.113  0.00  0.00    +0.000 C 
ATOM     10  C   UNL     1       9.980  14.145  18.627  0.00  0.00    +0.000 A 
ATOM     11  C   UNL     1      10.125  15.520  18.676  0.00  0.00    +0.000 A 
ATOM     12  C   UNL     1      11.319  16.004  19.194  0.00  0.00    +0.000 A 
ATOM     13  N   UNL     1      12.333  15.221  19.648  0.00  0.00    +0.000 NA
ATOM     14  C   UNL     1      12.158  13.884  19.583  0.00  0.00    +0.000 A 
ATOM     15  C   UNL     1      11.008  13.319  19.092  0.00  0.00    +0.000 A 
ATOM     16  C   UNL     1      10.639  11.889  18.933  0.00  0.00    +0.000 C 
ATOM     17  N   UNL     1       7.586   8.200  17.123  0.00  0.00    +0.000 NA
ATOM     18  N   UNL     1       6.975   6.957  16.823  0.00  0.00    +0.000 NA
ATOM     19  H   UNL     1       9.472   9.658  19.395  0.00  0.00    +0.000 HD
ENDROOT
BRANCH   1  21
ATOM     20  O   UNL     1       6.471   4.098  16.371  0.00  0.00    +0.000 OA
ATOM     21  C   UNL     1       6.343   4.665  17.455  0.00  0.00    +0.000 C 
ATOM     22  N   UNL     1       5.497   4.192  18.447  0.00  0.00    +0.000 N 
ATOM     23  H   UNL     1       5.359   4.752  19.282  0.00  0.00    +0.000 HD
BRANCH  22  24
ATOM     24  C   UNL     1       4.664   3.014  18.208  0.00  0.00    +0.000 C 
BRANCH  24  25
ATOM     25  C   UNL     1       3.462   2.922  19.151  0.00  0.00    +0.000 C 
ATOM     26  C   UNL     1       2.299   2.052  18.604  0.00  0.00    +0.000 C 
ATOM     27  C   UNL     1       1.078   2.985  18.716  0.00  0.00    +0.000 C 
ATOM     28  C   UNL     1       1.192   4.083  17.645  0.00  0.00    +0.000 C 
ATOM     29  C   UNL     1       2.306   4.985  18.194  0.00  0.00    +0.000 C 
ATOM     30  C   UNL     1       2.743   4.255  19.476  0.00  0.00    +0.000 C 
ATOM     31  C   UNL     1       1.391   3.757  19.997  0.00  0.00    +0.000 C 
ENDBRANCH  24  25
ENDBRANCH  22  24
ENDBRANCH   1  21
TORSDOF 3
ENDMDL
MODEL 2
REMARK VINA RESULT:      -8.8      8.104      9.726
REMARK  Name = 
REMARK  3 active torsions:
REMARK  status: ('A' for Active; 'I' for Inactive)
REMARK    1  A    between atoms: C_2  and  C_12
REMARK    2  A    between atoms: N_3  and  C_4
REMARK    3  A    between atoms: C_4  and  C_5
REMARK                            x       y       z     vdW  Elec       q    Type
REMARK                         _______ _______ _______ _____ _____    ______ ____
ROOT
ATOM      1  C   UNL     1       1.811   8.210  19.417  0.00  0.00    +0.000 A 
ATOM      2  C   UNL     1       1.400   9.200  18.535  0.00  0.00    +0.000 A 
ATOM      3  C   UNL     1       0.525  10.210  18.977  0.00  0.00    +0.000 A 
ATOM      4  C   UNL     1       0.112  10.238  20.301  0.00  0.00    +0.000 A 
ATOM      5  N   UNL     1      -0.726  11.291  20.745  0.00  0.00    +0.000 N 
ATOM      6  C   UNL     1      -0.890  11.659  22.067  0.00  0.00    +0.000 C 
ATOM      7  O   UNL     1      -0.304  11.148  23.017  0.00  0.00    +0.000 OA
ATOM      8  N   UNL     1      -1.760  12.721  22.265  0.00  0.00    +0.000 N 
ATOM      9  C   UNL     1      -1.926  13.311  23.604  0.00  0.00    +0.000 C 
ATOM     10  C   UNL     1      -3.063  14.275  23.426  0.00  0.00    +0.000 A 
ATOM     11  C   UNL     1      -3.604  15.200  24.302  0.00  0.00    +0.000 A 
ATOM     12  C   UNL     1      -4.688  15.936  23.842  0.00  0.00    +0.000 A 
ATOM     13  N   UNL     1      -5.236  15.804  22.606  0.00  0.00    +0.000 NA
ATOM     14  C   UNL     1      -4.685  14.891  21.779  0.00  0.00    +0.000 A 
ATOM     15  C   UNL     1      -3.608  14.124  22.148  0.00  0.00    +0.000 A 
ATOM     16  C   UNL     1      -2.879  13.075  21.391  0.00  0.00    +0.000 C 
ATOM     17  N   UNL     1       0.508   9.246  21.127  0.00  0.00    +0.000 NA
ATOM     18  N   UNL     1       1.359   8.203  20.684  0.00  0.00    +0.000 NA
ATOM     19  H   UNL     1      -1.001  11.968  20.049  0.00  0.00    +0.000 HD
ENDROOT
BRANCH   1  21
ATOM     20  O   UNL     1       3.371   7.355  17.889  0.00  0.00    +0.000 OA
ATOM     21  C   UNL     1       2.819   7.198  18.978  0.00  0.00    +0.000 C 
ATOM     22  N   UNL     1       3.069   6.100  19.788  0.00  0.00    +0.000 N 
ATOM     23  H   UNL     1       2.515   5.974  20.629  0.00  0.00    +0.000 HD
BRANCH  22  24
ATOM     24  C   UNL     1       3.968   5.039  19.336  0.00  0.00    +0.000 C 
BRANCH  24  25
ATOM     25  C   UNL     1       3.231   3.819  18.776  0.00  0.00    +0.000 C 
ATOM     26  C   UNL     1       1.737   4.082  18.450  0.00  0.00    +0.000 C 
ATOM     27  C   UNL     1       1.007   2.956  19.207  0.00  0.00    +0.000 C 
ATOM     28  C   UNL     1       1.066   3.253  20.715  0.00  0.00    +0.000 C 
ATOM     29  C   UNL     1       2.528   2.949  21.069  0.00  0.00    +0.000 C 
ATOM     30  C   UNL     1       3.145   2.585  19.708  0.00  0.00    +0.000 C 
ATOM     31  C   UNL     1       1.995   1.798  19.072  0.00  0.00    +0.000 C 
ENDBRANCH  24  25
ENDBRANCH  22  24
ENDBRANCH   1  21
TORSDOF 3
ENDMDL
MODEL 3
REMARK VINA RESULT:      -8.8      0.643      1.314
REMARK  Name = 
REMARK  3 active torsions:
REMARK  status: ('A' for Active; 'I' for Inactive)
REMARK    1  A    between atoms: C_2  and  C_12
REMARK    2  A    between atoms: N_3  and  C_4
REMARK    3  A    between atoms: C_4  and  C_5
REMARK                            x       y       z     vdW  Elec       q    Type
REMARK                         _______ _______ _______ _____ _____    ______ ____
ROOT
ATOM      1  C   UNL     1       6.986   6.195  17.502  0.00  0.00    +0.000 A 
ATOM      2  C   UNL     1       7.752   6.289  18.656  0.00  0.00    +0.000 A 
ATOM      3  C   UNL     1       8.399   7.499  18.969  0.00  0.00    +0.000 A 
ATOM      4  C   UNL     1       8.233   8.605  18.147  0.00  0.00    +0.000 A 
ATOM      5  N   UNL     1       8.848   9.831  18.503  0.00  0.00    +0.000 N 
ATOM      6  C   UNL     1       8.467  11.069  18.019  0.00  0.00    +0.000 C 
ATOM      7  O   UNL     1       7.528  11.266  17.253  0.00  0.00    +0.000 OA
ATOM      8  N   UNL     1       9.211  12.132  18.508  0.00  0.00    +0.000 N 
ATOM      9  C   UNL     1       8.832  13.518  18.189  0.00  0.00    +0.000 C 
ATOM     10  C   UNL     1       9.970  14.331  18.736  0.00  0.00    +0.000 A 
ATOM     11  C   UNL     1      10.133  15.702  18.833  0.00  0.00    +0.000 A 
ATOM     12  C   UNL     1      11.331  16.152  19.370  0.00  0.00    +0.000 A 
ATOM     13  N   UNL     1      12.333  15.341  19.798  0.00  0.00    +0.000 NA
ATOM     14  C   UNL     1      12.142  14.009  19.686  0.00  0.00    +0.000 A 
ATOM     15  C   UNL     1      10.986  13.476  19.172  0.00  0.00    +0.000 A 
ATOM     16  C   UNL     1      10.600  12.058  18.963  0.00  0.00    +0.000 C 
ATOM     17  N   UNL     1       7.505   8.473  17.018  0.00  0.00    +0.000 NA
ATOM     18  N   UNL     1       6.879   7.250  16.673  0.00  0.00    +0.000 NA
ATOM     19  H   UNL     1       9.404   9.827  19.344  0.00  0.00    +0.000 HD
ENDROOT
BRANCH   1  21
ATOM     20  O   UNL     1       6.830   3.955  16.825  0.00  0.00    +0.000 OA
ATOM     21  C   UNL     1       6.217   4.945  17.223  0.00  0.00    +0.000 C 
ATOM     22  N   UNL     1       4.839   4.952  17.382  0.00  0.00    +0.000 N 
ATOM     23  H   UNL     1       4.376   5.824  17.620  0.00  0.00    +0.000 HD
BRANCH  22  24
ATOM     24  C   UNL     1       4.046   3.780  17.013  0.00  0.00    +0.000 C 
BRANCH  24  25
ATOM     25  C   UNL     1       2.622   3.810  17.574  0.00  0.00    +0.000 C 
ATOM     26  C   UNL     1       2.436   4.791  18.763  0.00  0.00    +0.000 C 
ATOM     27  C   UNL     1       1.802   3.906  19.853  0.00  0.00    +0.000 C 
ATOM     28  C   UNL     1       2.871   2.943  20.394  0.00  0.00    +0.000 C 
ATOM     29  C   UNL     1       3.034   1.932  19.250  0.00  0.00    +0.000 C 
ATOM     30  C   UNL     1       2.091   2.481  18.166  0.00  0.00    +0.000 C 
ATOM     31  C   UNL     1       0.921   2.972  19.024  0.00  0.00    +0.000 C 
ENDBRANCH  24  25
ENDBRANCH  22  24
ENDBRANCH   1  21
TORSDOF 3
ENDMDL
MODEL 4
REMARK VINA RESULT:      -8.8      9.108     10.451
REMARK  Name = 
REMARK  3 active torsions:
REMARK  status: ('A' for Active; 'I' for Inactive)
REMARK    1  A    between atoms: C_2  and  C_12
REMARK    2  A    between atoms: N_3  and  C_4
REMARK    3  A    between atoms: C_4  and  C_5
REMARK                            x       y       z     vdW  Elec       q    Type
REMARK                         _______ _______ _______ _____ _____    ______ ____
ROOT
ATOM      1  C   UNL     1       1.067   8.854  20.708  0.00  0.00    +0.000 A 
ATOM      2  C   UNL     1       0.832   8.887  22.076  0.00  0.00    +0.000 A 
ATOM      3  C   UNL     1       0.038   9.911  22.625  0.00  0.00    +0.000 A 
ATOM      4  C   UNL     1      -0.542  10.858  21.792  0.00  0.00    +0.000 A 
ATOM      5  N   UNL     1      -1.382  11.852  22.352  0.00  0.00    +0.000 N 
ATOM      6  C   UNL     1      -2.308  12.590  21.639  0.00  0.00    +0.000 C 
ATOM      7  O   UNL     1      -2.547  12.450  20.442  0.00  0.00    +0.000 OA
ATOM      8  N   UNL     1      -3.021  13.507  22.397  0.00  0.00    +0.000 N 
ATOM      9  C   UNL     1      -4.135  14.262  21.801  0.00  0.00    +0.000 C 
ATOM     10  C   UNL     1      -4.501  15.253  22.868  0.00  0.00    +0.000 A 
ATOM     11  C   UNL     1      -5.542  16.161  22.935  0.00  0.00    +0.000 A 
ATOM     12  C   UNL     1      -5.594  16.970  24.062  0.00  0.00    +0.000 A 
ATOM     13  N   UNL     1      -4.700  16.923  25.083  0.00  0.00    +0.000 NA
ATOM     14  C   UNL     1      -3.695  16.026  24.984  0.00  0.00    +0.000 A 
ATOM     15  C   UNL     1      -3.570  15.182  23.909  0.00  0.00    +0.000 A 
ATOM     16  C   UNL     1      -2.542  14.151  23.620  0.00  0.00    +0.000 C 
ATOM     17  N   UNL     1      -0.272  10.814  20.470  0.00  0.00    +0.000 NA
ATOM     18  N   UNL     1       0.556   9.810  19.911  0.00  0.00    +0.000 NA
ATOM     19  H   UNL     1      -1.497  11.829  23.354  0.00  0.00    +0.000 HD
ENDROOT
BRANCH   1  21
ATOM     20  O   UNL     1       2.307   7.848  18.991  0.00  0.00    +0.000 OA
ATOM     21  C   UNL     1       1.823   7.711  20.114  0.00  0.00    +0.000 C 
ATOM     22  N   UNL     1       1.921   6.524  20.826  0.00  0.00    +0.000 N 
ATOM     23  H   UNL     1       1.421   6.436  21.705  0.00  0.00    +0.000 HD
BRANCH  22  24
ATOM     24  C   UNL     1       2.559   5.353  20.226  0.00  0.00    +0.000 C 
BRANCH  24  25
ATOM     25  C   UNL     1       1.596   4.183  20.009  0.00  0.00    +0.000 C 
ATOM     26  C   UNL     1       2.105   2.835  20.584  0.00  0.00    +0.000 C 
ATOM     27  C   UNL     1       1.996   1.876  19.383  0.00  0.00    +0.000 C 
ATOM     28  C   UNL     1       3.095   2.228  18.366  0.00  0.00    +0.000 C 
ATOM     29  C   UNL     1       2.585   3.536  17.748  0.00  0.00    +0.000 C 
ATOM     30  C   UNL     1       1.292   3.812  18.536  0.00  0.00    +0.000 C 
ATOM     31  C   UNL     1       0.739   2.391  18.684  0.00  0.00    +0.000 C 
ENDBRANCH  24  25
ENDBRANCH  22  24
ENDBRANCH   1  21
TORSDOF 3
ENDMDL
MODEL 5
REMARK VINA RESULT:      -8.6      8.404      9.972
REMARK  Name = 
REMARK  3 active torsions:
REMARK  status: ('A' for Active; 'I' for Inactive)
REMARK    1  A    between atoms: C_2  and  C_12
REMARK    2  A    between atoms: N_3  and  C_4
REMARK    3  A    between atoms: C_4  and  C_5
REMARK                            x       y       z     vdW  Elec       q    Type
REMARK                         _______ _______ _______ _____ _____    ______ ____
ROOT
ATOM      1  C   UNL     1       1.474   8.425  19.598  0.00  0.00    +0.000 A 
ATOM      2  C   UNL     1       0.983   9.371  18.708  0.00  0.00    +0.000 A 
ATOM      3  C   UNL     1       0.117  10.380  19.168  0.00  0.00    +0.000 A 
ATOM      4  C   UNL     1      -0.208  10.451  20.516  0.00  0.00    +0.000 A 
ATOM      5  N   UNL     1      -1.039  11.503  20.974  0.00  0.00    +0.000 N 
ATOM      6  C   UNL     1      -1.124  11.920  22.289  0.00  0.00    +0.000 C 
ATOM      7  O   UNL     1      -0.464  11.460  23.217  0.00  0.00    +0.000 OA
ATOM      8  N   UNL     1      -2.004  12.971  22.504  0.00  0.00    +0.000 N 
ATOM      9  C   UNL     1      -2.094  13.610  23.827  0.00  0.00    +0.000 C 
ATOM     10  C   UNL     1      -3.262  14.543  23.690  0.00  0.00    +0.000 A 
ATOM     11  C   UNL     1      -3.765  15.490  24.564  0.00  0.00    +0.000 A 
ATOM     12  C   UNL     1      -4.894  16.185  24.150  0.00  0.00    +0.000 A 
ATOM     13  N   UNL     1      -5.520  15.993  22.960  0.00  0.00    +0.000 NA
ATOM     14  C   UNL     1      -5.003  15.060  22.133  0.00  0.00    +0.000 A 
ATOM     15  C   UNL     1      -3.887  14.330  22.458  0.00  0.00    +0.000 A 
ATOM     16  C   UNL     1      -3.186  13.267  21.694  0.00  0.00    +0.000 C 
ATOM     17  N   UNL     1       0.265   9.501  21.350  0.00  0.00    +0.000 NA
ATOM     18  N   UNL     1       1.108   8.459  20.891  0.00  0.00    +0.000 NA
ATOM     19  H   UNL     1      -1.376  12.146  20.273  0.00  0.00    +0.000 HD
ENDROOT
BRANCH   1  21
ATOM     20  O   UNL     1       2.877   7.486  17.970  0.00  0.00    +0.000 OA
ATOM     21  C   UNL     1       2.474   7.418  19.130  0.00  0.00    +0.000 C 
ATOM     22  N   UNL     1       2.884   6.419  20.003  0.00  0.00    +0.000 N 
ATOM     23  H   UNL     1       2.446   6.356  20.916  0.00  0.00    +0.000 HD
BRANCH  22  24
ATOM     24  C   UNL     1       3.776   5.357  19.542  0.00  0.00    +0.000 C 
BRANCH  24  25
ATOM     25  C   UNL     1       3.235   3.951  19.816  0.00  0.00    +0.000 C 
ATOM     26  C   UNL     1       4.066   2.819  19.156  0.00  0.00    +0.000 C 
ATOM     27  C   UNL     1       3.009   2.016  18.374  0.00  0.00    +0.000 C 
ATOM     28  C   UNL     1       2.562   2.840  17.155  0.00  0.00    +0.000 C 
ATOM     29  C   UNL     1       1.694   3.939  17.783  0.00  0.00    +0.000 C 
ATOM     30  C   UNL     1       1.809   3.653  19.290  0.00  0.00    +0.000 C 
ATOM     31  C   UNL     1       1.793   2.121  19.293  0.00  0.00    +0.000 C 
ENDBRANCH  24  25
ENDBRANCH  22  24
ENDBRANCH   1  21
TORSDOF 3
ENDMDL
MODEL 6
REMARK VINA RESULT:      -8.6      8.190      9.826
REMARK  Name = 
REMARK  3 active torsions:
REMARK  status: ('A' for Active; 'I' for Inactive)
REMARK    1  A    between atoms: C_2  and  C_12
REMARK    2  A    between atoms: N_3  and  C_4
REMARK    3  A    between atoms: C_4  and  C_5
REMARK                            x       y       z     vdW  Elec       q    Type
REMARK                         _______ _______ _______ _____ _____    ______ ____
ROOT
ATOM      1  C   UNL     1       1.816   8.254  19.780  0.00  0.00    +0.000 A 
ATOM      2  C   UNL     1       1.337   8.067  21.069  0.00  0.00    +0.000 A 
ATOM      3  C   UNL     1       0.458   9.011  21.632  0.00  0.00    +0.000 A 
ATOM      4  C   UNL     1       0.040  10.100  20.881  0.00  0.00    +0.000 A 
ATOM      5  N   UNL     1      -0.886  11.014  21.442  0.00  0.00    +0.000 N 
ATOM      6  C   UNL     1      -1.667  11.889  20.710  0.00  0.00    +0.000 C 
ATOM      7  O   UNL     1      -1.686  11.957  19.484  0.00  0.00    +0.000 OA
ATOM      8  N   UNL     1      -2.504  12.690  21.472  0.00  0.00    +0.000 N 
ATOM      9  C   UNL     1      -3.491  13.568  20.823  0.00  0.00    +0.000 C 
ATOM     10  C   UNL     1      -4.043  14.380  21.960  0.00  0.00    +0.000 A 
ATOM     11  C   UNL     1      -5.079  15.297  21.992  0.00  0.00    +0.000 A 
ATOM     12  C   UNL     1      -5.333  15.910  23.212  0.00  0.00    +0.000 A 
ATOM     13  N   UNL     1      -4.638  15.665  24.353  0.00  0.00    +0.000 NA
ATOM     14  C   UNL     1      -3.633  14.766  24.285  0.00  0.00    +0.000 A 
ATOM     15  C   UNL     1      -3.316  14.108  23.123  0.00  0.00    +0.000 A 
ATOM     16  C   UNL     1      -2.254  13.107  22.852  0.00  0.00    +0.000 C 
ATOM     17  N   UNL     1       0.545  10.268  19.640  0.00  0.00    +0.000 NA
ATOM     18  N   UNL     1       1.459   9.344  19.077  0.00  0.00    +0.000 NA
ATOM     19  H   UNL     1      -1.181  10.830  22.389  0.00  0.00    +0.000 HD
ENDROOT
BRANCH   1  21
ATOM     20  O   UNL     1       2.967   7.326  17.959  0.00  0.00    +0.000 OA
ATOM     21  C   UNL     1       2.666   7.201  19.145  0.00  0.00    +0.000 C 
ATOM     22  N   UNL     1       3.053   6.103  19.899  0.00  0.00    +0.000 N 
ATOM     23  H   UNL     1       2.696   6.005  20.844  0.00  0.00    +0.000 HD
BRANCH  22  24
ATOM     24  C   UNL     1       3.792   5.004  19.278  0.00  0.00    +0.000 C 
BRANCH  24  25
ATOM     25  C   UNL     1       2.891   3.861  18.802  0.00  0.00    +0.000 C 
ATOM     26  C   UNL     1       1.374   4.155  18.945  0.00  0.00    +0.000 C 
ATOM     27  C   UNL     1       0.852   2.939  19.732  0.00  0.00    +0.000 C 
ATOM     28  C   UNL     1       1.338   3.043  21.187  0.00  0.00    +0.000 C 
ATOM     29  C   UNL     1       2.831   2.704  21.075  0.00  0.00    +0.000 C 
ATOM     30  C   UNL     1       3.032   2.518  19.561  0.00  0.00    +0.000 C 
ATOM     31  C   UNL     1       1.726   1.812  19.184  0.00  0.00    +0.000 C 
ENDBRANCH  24  25
ENDBRANCH  22  24
ENDBRANCH   1  21
TORSDOF 3
ENDMDL
MODEL 7
REMARK VINA RESULT:      -8.4      7.316      9.468
REMARK  Name = 
REMARK  3 active torsions:
REMARK  status: ('A' for Active; 'I' for Inactive)
REMARK    1  A    between atoms: C_2  and  C_12
REMARK    2  A    between atoms: N_3  and  C_4
REMARK    3  A    between atoms: C_4  and  C_5
REMARK                            x       y       z     vdW  Elec       q    Type
REMARK                         _______ _______ _______ _____ _____    ______ ____
ROOT
ATOM      1  C   UNL     1       2.421   7.793  18.314  0.00  0.00    +0.000 A 
ATOM      2  C   UNL     1       1.818   8.768  17.532  0.00  0.00    +0.000 A 
ATOM      3  C   UNL     1       0.941   9.696  18.124  0.00  0.00    +0.000 A 
ATOM      4  C   UNL     1       0.717   9.659  19.493  0.00  0.00    +0.000 A 
ATOM      5  N   UNL     1      -0.127  10.632  20.084  0.00  0.00    +0.000 N 
ATOM      6  C   UNL     1      -0.132  10.955  21.428  0.00  0.00    +0.000 C 
ATOM      7  O   UNL     1       0.618  10.470  22.270  0.00  0.00    +0.000 OA
ATOM      8  N   UNL     1      -1.043  11.940  21.780  0.00  0.00    +0.000 N 
ATOM      9  C   UNL     1      -1.062  12.483  23.148  0.00  0.00    +0.000 C 
ATOM     10  C   UNL     1      -2.282  13.359  23.163  0.00  0.00    +0.000 A 
ATOM     11  C   UNL     1      -2.763  14.218  24.136  0.00  0.00    +0.000 A 
ATOM     12  C   UNL     1      -3.952  14.877  23.856  0.00  0.00    +0.000 A 
ATOM     13  N   UNL     1      -4.657  14.732  22.703  0.00  0.00    +0.000 NA
ATOM     14  C   UNL     1      -4.160  13.885  21.777  0.00  0.00    +0.000 A 
ATOM     15  C   UNL     1      -2.988  13.196  21.968  0.00  0.00    +0.000 A 
ATOM     16  C   UNL     1      -2.296  12.226  21.082  0.00  0.00    +0.000 C 
ATOM     17  N   UNL     1       1.297   8.682  20.222  0.00  0.00    +0.000 NA
ATOM     18  N   UNL     1       2.152   7.720  19.630  0.00  0.00    +0.000 NA
ATOM     19  H   UNL     1      -0.547  11.302  19.457  0.00  0.00    +0.000 HD
ENDROOT
BRANCH   1  21
ATOM     20  O   UNL     1       4.139   7.302  16.796  0.00  0.00    +0.000 OA
ATOM     21  C   UNL     1       3.430   6.874  17.706  0.00  0.00    +0.000 C 
ATOM     22  N   UNL     1       3.507   5.564  18.155  0.00  0.00    +0.000 N 
ATOM     23  H   UNL     1       2.832   5.240  18.841  0.00  0.00    +0.000 HD
BRANCH  22  24
ATOM     24  C   UNL     1       4.407   4.612  17.507  0.00  0.00    +0.000 C 
BRANCH  24  25
ATOM     25  C   UNL     1       5.735   4.433  18.247  0.00  0.00    +0.000 C 
ATOM     26  C   UNL     1       6.031   5.547  19.285  0.00  0.00    +0.000 C 
ATOM     27  C   UNL     1       7.438   6.033  18.889  0.00  0.00    +0.000 C 
ATOM     28  C   UNL     1       7.336   6.832  17.579  0.00  0.00    +0.000 C 
ATOM     29  C   UNL     1       7.093   5.740  16.528  0.00  0.00    +0.000 C 
ATOM     30  C   UNL     1       7.014   4.457  17.374  0.00  0.00    +0.000 C 
ATOM     31  C   UNL     1       8.097   4.737  18.421  0.00  0.00    +0.000 C 
ENDBRANCH  24  25
ENDBRANCH  22  24
ENDBRANCH   1  21
TORSDOF 3
ENDMDL
MODEL 8
REMARK VINA RESULT:      -8.3      8.746     11.681
REMARK  Name = 
REMARK  3 active torsions:
REMARK  status: ('A' for Active; 'I' for Inactive)
REMARK    1  A    between atoms: C_2  and  C_12
REMARK    2  A    between atoms: N_3  and  C_4
REMARK    3  A    between atoms: C_4  and  C_5
REMARK                            x       y       z     vdW  Elec       q    Type
REMARK                         _______ _______ _______ _____ _____    ______ ____
ROOT
ATOM      1  C   UNL     1      -1.185  11.159  22.448  0.00  0.00    +0.000 A 
ATOM      2  C   UNL     1      -0.588  10.147  23.187  0.00  0.00    +0.000 A 
ATOM      3  C   UNL     1       0.192   9.173  22.536  0.00  0.00    +0.000 A 
ATOM      4  C   UNL     1       0.396   9.253  21.166  0.00  0.00    +0.000 A 
ATOM      5  N   UNL     1       1.227   8.296  20.532  0.00  0.00    +0.000 N 
ATOM      6  C   UNL     1       1.821   8.468  19.295  0.00  0.00    +0.000 C 
ATOM      7  O   UNL     1       1.736   9.484  18.610  0.00  0.00    +0.000 OA
ATOM      8  N   UNL     1       2.594   7.397  18.874  0.00  0.00    +0.000 N 
ATOM      9  C   UNL     1       3.397   7.494  17.644  0.00  0.00    +0.000 C 
ATOM     10  C   UNL     1       3.916   6.098  17.449  0.00  0.00    +0.000 A 
ATOM     11  C   UNL     1       4.813   5.592  16.526  0.00  0.00    +0.000 A 
ATOM     12  C   UNL     1       5.072   4.230  16.588  0.00  0.00    +0.000 A 
ATOM     13  N   UNL     1       4.507   3.381  17.487  0.00  0.00    +0.000 NA
ATOM     14  C   UNL     1       3.634   3.909  18.372  0.00  0.00    +0.000 A 
ATOM     15  C   UNL     1       3.324   5.246  18.386  0.00  0.00    +0.000 A 
ATOM     16  C   UNL     1       2.394   6.000  19.263  0.00  0.00    +0.000 C 
ATOM     17  N   UNL     1      -0.220  10.233  20.472  0.00  0.00    +0.000 NA
ATOM     18  N   UNL     1      -1.037  11.198  21.111  0.00  0.00    +0.000 NA
ATOM     19  H   UNL     1       1.615   7.577  21.124  0.00  0.00    +0.000 HD
ENDROOT
BRANCH   1  21
ATOM     20  O   UNL     1      -1.317  13.278  23.443  0.00  0.00    +0.000 OA
ATOM     21  C   UNL     1      -1.926  12.250  23.149  0.00  0.00    +0.000 C 
ATOM     22  N   UNL     1      -3.260  12.055  23.480  0.00  0.00    +0.000 N 
ATOM     23  H   UNL     1      -3.683  11.151  23.298  0.00  0.00    +0.000 HD
BRANCH  22  24
ATOM     24  C   UNL     1      -3.981  13.058  24.262  0.00  0.00    +0.000 C 
BRANCH  24  25
ATOM     25  C   UNL     1      -5.404  13.311  23.757  0.00  0.00    +0.000 C 
ATOM     26  C   UNL     1      -5.631  12.891  22.281  0.00  0.00    +0.000 C 
ATOM     27  C   UNL     1      -6.223  14.160  21.640  0.00  0.00    +0.000 C 
ATOM     28  C   UNL     1      -5.112  15.215  21.508  0.00  0.00    +0.000 C 
ATOM     29  C   UNL     1      -4.907  15.681  22.956  0.00  0.00    +0.000 C 
ATOM     30  C   UNL     1      -5.875  14.787  23.749  0.00  0.00    +0.000 C 
ATOM     31  C   UNL     1      -7.064  14.725  22.784  0.00  0.00    +0.000 C 
ENDBRANCH  24  25
ENDBRANCH  22  24
ENDBRANCH   1  21
TORSDOF 3
ENDMDL
MODEL 9
REMARK VINA RESULT:      -8.3      8.899     11.699
REMARK  Name = 
REMARK  3 active torsions:
REMARK  status: ('A' for Active; 'I' for Inactive)
REMARK    1  A    between atoms: C_2  and  C_12
REMARK    2  A    between atoms: N_3  and  C_4
REMARK    3  A    between atoms: C_4  and  C_5
REMARK                            x       y       z     vdW  Elec       q    Type
REMARK                         _______ _______ _______ _____ _____    ______ ____
ROOT
ATOM      1  C   UNL     1      -0.923  11.651  22.001  0.00  0.00    +0.000 A 
ATOM      2  C   UNL     1      -0.890  11.829  20.625  0.00  0.00    +0.000 A 
ATOM      3  C   UNL     1      -0.098  10.981  19.828  0.00  0.00    +0.000 A 
ATOM      4  C   UNL     1       0.613   9.944  20.417  0.00  0.00    +0.000 A 
ATOM      5  N   UNL     1       1.364   9.066  19.597  0.00  0.00    +0.000 N 
ATOM      6  C   UNL     1       1.784   7.805  19.977  0.00  0.00    +0.000 C 
ATOM      7  O   UNL     1       1.527   7.273  21.054  0.00  0.00    +0.000 OA
ATOM      8  N   UNL     1       2.506   7.123  19.009  0.00  0.00    +0.000 N 
ATOM      9  C   UNL     1       2.897   5.720  19.220  0.00  0.00    +0.000 C 
ATOM     10  C   UNL     1       3.800   5.426  18.057  0.00  0.00    +0.000 A 
ATOM     11  C   UNL     1       4.390   4.241  17.652  0.00  0.00    +0.000 A 
ATOM     12  C   UNL     1       5.207   4.302  16.531  0.00  0.00    +0.000 A 
ATOM     13  N   UNL     1       5.456   5.434  15.822  0.00  0.00    +0.000 NA
ATOM     14  C   UNL     1       4.866   6.572  16.247  0.00  0.00    +0.000 A 
ATOM     15  C   UNL     1       4.038   6.603  17.342  0.00  0.00    +0.000 A 
ATOM     16  C   UNL     1       3.315   7.743  17.959  0.00  0.00    +0.000 C 
ATOM     17  N   UNL     1       0.581   9.814  21.760  0.00  0.00    +0.000 NA
ATOM     18  N   UNL     1      -0.183  10.685  22.576  0.00  0.00    +0.000 NA
ATOM     19  H   UNL     1       1.359   9.262  18.608  0.00  0.00    +0.000 HD
ENDROOT
BRANCH   1  21
ATOM     20  O   UNL     1      -1.357  13.369  23.537  0.00  0.00    +0.000 OA
ATOM     21  C   UNL     1      -1.842  12.483  22.834  0.00  0.00    +0.000 C 
ATOM     22  N   UNL     1      -3.202  12.206  22.820  0.00  0.00    +0.000 N 
ATOM     23  H   UNL     1      -3.533  11.403  22.295  0.00  0.00    +0.000 HD
BRANCH  22  24
ATOM     24  C   UNL     1      -4.113  12.930  23.705  0.00  0.00    +0.000 C 
BRANCH  24  25
ATOM     25  C   UNL     1      -5.091  13.838  22.956  0.00  0.00    +0.000 C 
ATOM     26  C   UNL     1      -5.674  14.985  23.824  0.00  0.00    +0.000 C 
ATOM     27  C   UNL     1      -7.195  14.830  23.637  0.00  0.00    +0.000 C 
ATOM     28  C   UNL     1      -7.663  13.579  24.400  0.00  0.00    +0.000 C 
ATOM     29  C   UNL     1      -7.139  12.429  23.529  0.00  0.00    +0.000 C 
ATOM     30  C   UNL     1      -6.374  13.161  22.413  0.00  0.00    +0.000 C 
ATOM     31  C   UNL     1      -7.287  14.369  22.184  0.00  0.00    +0.000 C 
ENDBRANCH  24  25
ENDBRANCH  22  24
ENDBRANCH   1  21
TORSDOF 3
ENDMDL
