MODEL 1
REMARK VINA RESULT:      -8.0      0.000      0.000
REMARK  Name = 
REMARK  8 active torsions:
REMARK  status: ('A' for Active; 'I' for Inactive)
REMARK    1  A    between atoms: C_1  and  C_2
REMARK    2  A    between atoms: C_2  and  C_3
REMARK    3  A    between atoms: C_4  and  S_5
REMARK    4  A    between atoms: S_5  and  C_6
REMARK    5  A    between atoms: C_8  and  C_9
REMARK    6  A    between atoms: C_11  and  C_12
REMARK    7  A    between atoms: N_14  and  C_15
REMARK    8  A    between atoms: C_15  and  C_16
REMARK                            x       y       z     vdW  Elec       q    Type
REMARK                         _______ _______ _______ _____ _____    ______ ____
ROOT
ATOM      1  C   UNL     1       1.791   3.649  19.362  0.00  0.00    +0.000 A 
ATOM      2  C   UNL     1       2.942   4.231  18.931  0.00  0.00    +0.000 A 
ATOM      3  N   UNL     1       3.719   3.591  17.948  0.00  0.00    +0.000 N 
ATOM      4  C   UNL     1       3.398   2.269  17.635  0.00  0.00    +0.000 A 
ATOM      5  O   UNL     1       4.212   1.375  17.386  0.00  0.00    +0.000 OA
ATOM      6  N   UNL     1       2.069   1.983  17.642  0.00  0.00    +0.000 N 
ATOM      7  C   UNL     1       1.257   2.487  18.589  0.00  0.00    +0.000 A 
ATOM      8  O   UNL     1       0.182   1.963  18.843  0.00  0.00    +0.000 OA
ATOM      9  H   UNL     1       1.819   1.052  17.339  0.00  0.00    +0.000 HD
ENDROOT
BRANCH   1  11
ATOM     10  C   UNL     1       1.484   3.085  21.784  0.00  0.00    +0.000 C 
ATOM     11  C   UNL     1       1.005   3.929  20.619  0.00  0.00    +0.000 C 
ENDBRANCH   1  11
BRANCH   2  12
ATOM     12  S   UNL     1       3.650   5.587  19.817  0.00  0.00    +0.000 S 
BRANCH  12  13
ATOM     13  C   UNL     1       2.445   6.922  19.816  0.00  0.00    +0.000 A 
ATOM     14  C   UNL     1       1.579   7.214  20.869  0.00  0.00    +0.000 A 
ATOM     15  C   UNL     1       0.760   8.360  20.840  0.00  0.00    +0.000 A 
ATOM     16  C   UNL     1      -0.230   8.634  21.931  0.00  0.00    +0.000 C 
ATOM     17  C   UNL     1       0.866   9.263  19.775  0.00  0.00    +0.000 A 
ATOM     18  C   UNL     1       1.695   8.981  18.690  0.00  0.00    +0.000 A 
ATOM     19  C   UNL     1       1.886  10.014  17.615  0.00  0.00    +0.000 C 
ATOM     20  C   UNL     1       2.430   7.780  18.692  0.00  0.00    +0.000 A 
ENDBRANCH  12  13
ENDBRANCH   2  12
BRANCH   3  21
ATOM     21  C   UNL     1       5.088   4.043  17.620  0.00  0.00    +0.000 C 
BRANCH  21  22
ATOM     22  C   UNL     1       5.244   4.984  16.396  0.00  0.00    +0.000 C 
ATOM     23  C   UNL     1       6.612   5.688  16.331  0.00  0.00    +0.000 C 
ATOM     24  C   UNL     1       7.287   5.068  15.153  0.00  0.00    +0.000 C 
ATOM     25  C   UNL     1       6.479   4.247  14.479  0.00  0.00    +0.000 C 
ATOM     26  C   UNL     1       5.116   4.184  15.082  0.00  0.00    +0.000 C 
ENDBRANCH  21  22
ENDBRANCH   3  21
TORSDOF 5
ENDMDL
MODEL 2
REMARK VINA RESULT:      -7.9      0.767      1.143
REMARK  Name = 
REMARK  8 active torsions:
REMARK  status: ('A' for Active; 'I' for Inactive)
REMARK    1  A    between atoms: C_1  and  C_2
REMARK    2  A    between atoms: C_2  and  C_3
REMARK    3  A    between atoms: C_4  and  S_5
REMARK    4  A    between atoms: S_5  and  C_6
REMARK    5  A    between atoms: C_8  and  C_9
REMARK    6  A    between atoms: C_11  and  C_12
REMARK    7  A    between atoms: N_14  and  C_15
REMARK    8  A    between atoms: C_15  and  C_16
REMARK                            x       y       z     vdW  Elec       q    Type
REMARK                         _______ _______ _______ _____ _____    ______ ____
ROOT
ATOM      1  C   UNL     1       1.741   3.525  19.335  0.00  0.00    +0.000 A 
ATOM      2  C   UNL     1       2.952   4.086  19.075  0.00  0.00    +0.000 A 
ATOM      3  N   UNL     1       3.829   3.461  18.170  0.00  0.00    +0.000 N 
ATOM      4  C   UNL     1       3.513   2.163  17.762  0.00  0.00    +0.000 A 
ATOM      5  O   UNL     1       4.328   1.254  17.578  0.00  0.00    +0.000 OA
ATOM      6  N   UNL     1       2.187   1.920  17.591  0.00  0.00    +0.000 N 
ATOM      7  C   UNL     1       1.276   2.413  18.451  0.00  0.00    +0.000 A 
ATOM      8  O   UNL     1       0.164   1.915  18.546  0.00  0.00    +0.000 OA
ATOM      9  H   UNL     1       1.952   1.011  17.220  0.00  0.00    +0.000 HD
ENDROOT
BRANCH   1  11
ATOM     10  C   UNL     1       1.176   2.945  21.705  0.00  0.00    +0.000 C 
ATOM     11  C   UNL     1       0.810   3.780  20.494  0.00  0.00    +0.000 C 
ENDBRANCH   1  11
BRANCH   2  12
ATOM     12  S   UNL     1       3.580   5.382  20.101  0.00  0.00    +0.000 S 
BRANCH  12  13
ATOM     13  C   UNL     1       2.426   6.759  20.000  0.00  0.00    +0.000 A 
ATOM     14  C   UNL     1       1.563   7.152  21.021  0.00  0.00    +0.000 A 
ATOM     15  C   UNL     1       0.789   8.323  20.908  0.00  0.00    +0.000 A 
ATOM     16  C   UNL     1      -0.200   8.705  21.968  0.00  0.00    +0.000 C 
ATOM     17  C   UNL     1       0.939   9.149  19.788  0.00  0.00    +0.000 A 
ATOM     18  C   UNL     1       1.767   8.767  18.734  0.00  0.00    +0.000 A 
ATOM     19  C   UNL     1       2.007   9.719  17.596  0.00  0.00    +0.000 C 
ATOM     20  C   UNL     1       2.454   7.542  18.822  0.00  0.00    +0.000 A 
ENDBRANCH  12  13
ENDBRANCH   2  12
BRANCH   3  21
ATOM     21  C   UNL     1       5.240   3.881  18.035  0.00  0.00    +0.000 C 
BRANCH  21  22
ATOM     22  C   UNL     1       5.613   4.696  16.769  0.00  0.00    +0.000 C 
ATOM     23  C   UNL     1       4.891   6.053  16.676  0.00  0.00    +0.000 C 
ATOM     24  C   UNL     1       5.975   7.059  16.882  0.00  0.00    +0.000 C 
ATOM     25  C   UNL     1       7.184   6.498  16.935  0.00  0.00    +0.000 C 
ATOM     26  C   UNL     1       7.123   5.018  16.761  0.00  0.00    +0.000 C 
ENDBRANCH  21  22
ENDBRANCH   3  21
TORSDOF 5
ENDMDL
MODEL 3
REMARK VINA RESULT:      -7.9      1.900      5.090
REMARK  Name = 
REMARK  8 active torsions:
REMARK  status: ('A' for Active; 'I' for Inactive)
REMARK    1  A    between atoms: C_1  and  C_2
REMARK    2  A    between atoms: C_2  and  C_3
REMARK    3  A    between atoms: C_4  and  S_5
REMARK    4  A    between atoms: S_5  and  C_6
REMARK    5  A    between atoms: C_8  and  C_9
REMARK    6  A    between atoms: C_11  and  C_12
REMARK    7  A    between atoms: N_14  and  C_15
REMARK    8  A    between atoms: C_15  and  C_16
REMARK                            x       y       z     vdW  Elec       q    Type
REMARK                         _______ _______ _______ _____ _____    ______ ____
ROOT
ATOM      1  C   UNL     1       5.522   6.115  18.292  0.00  0.00    +0.000 A 
ATOM      2  C   UNL     1       4.174   5.958  18.206  0.00  0.00    +0.000 A 
ATOM      3  N   UNL     1       3.578   4.782  18.697  0.00  0.00    +0.000 N 
ATOM      4  C   UNL     1       4.425   3.724  19.030  0.00  0.00    +0.000 A 
ATOM      5  O   UNL     1       4.188   2.528  18.832  0.00  0.00    +0.000 OA
ATOM      6  N   UNL     1       5.607   4.088  19.595  0.00  0.00    +0.000 N 
ATOM      7  C   UNL     1       6.290   5.155  19.142  0.00  0.00    +0.000 A 
ATOM      8  O   UNL     1       7.487   5.276  19.356  0.00  0.00    +0.000 OA
ATOM      9  H   UNL     1       6.193   3.330  19.913  0.00  0.00    +0.000 HD
ENDROOT
BRANCH   1  11
ATOM     10  C   UNL     1       7.053   6.412  16.331  0.00  0.00    +0.000 C 
ATOM     11  C   UNL     1       6.411   7.071  17.536  0.00  0.00    +0.000 C 
ENDBRANCH   1  11
BRANCH   2  12
ATOM     12  S   UNL     1       3.207   7.035  17.190  0.00  0.00    +0.000 S 
BRANCH  12  13
ATOM     13  C   UNL     1       2.449   8.259  18.269  0.00  0.00    +0.000 A 
ATOM     14  C   UNL     1       2.154   9.571  17.901  0.00  0.00    +0.000 A 
ATOM     15  C   UNL     1       1.439  10.424  18.763  0.00  0.00    +0.000 A 
ATOM     16  C   UNL     1       1.191  11.859  18.406  0.00  0.00    +0.000 C 
ATOM     17  C   UNL     1       0.947   9.930  19.978  0.00  0.00    +0.000 A 
ATOM     18  C   UNL     1       1.254   8.635  20.390  0.00  0.00    +0.000 A 
ATOM     19  C   UNL     1       0.622   8.084  21.638  0.00  0.00    +0.000 C 
ATOM     20  C   UNL     1       2.057   7.832  19.559  0.00  0.00    +0.000 A 
ENDBRANCH  12  13
ENDBRANCH   2  12
BRANCH   3  21
ATOM     21  C   UNL     1       2.166   4.446  18.413  0.00  0.00    +0.000 C 
BRANCH  21  22
ATOM     22  C   UNL     1       1.224   4.279  19.634  0.00  0.00    +0.000 C 
ATOM     23  C   UNL     1       0.792   2.823  19.883  0.00  0.00    +0.000 C 
ATOM     24  C   UNL     1       1.482   2.449  21.154  0.00  0.00    +0.000 C 
ATOM     25  C   UNL     1       2.105   3.486  21.716  0.00  0.00    +0.000 C 
ATOM     26  C   UNL     1       1.931   4.739  20.926  0.00  0.00    +0.000 C 
ENDBRANCH  21  22
ENDBRANCH   3  21
TORSDOF 5
ENDMDL
MODEL 4
REMARK VINA RESULT:      -7.8      1.876      4.793
REMARK  Name = 
REMARK  8 active torsions:
REMARK  status: ('A' for Active; 'I' for Inactive)
REMARK    1  A    between atoms: C_1  and  C_2
REMARK    2  A    between atoms: C_2  and  C_3
REMARK    3  A    between atoms: C_4  and  S_5
REMARK    4  A    between atoms: S_5  and  C_6
REMARK    5  A    between atoms: C_8  and  C_9
REMARK    6  A    between atoms: C_11  and  C_12
REMARK    7  A    between atoms: N_14  and  C_15
REMARK    8  A    between atoms: C_15  and  C_16
REMARK                            x       y       z     vdW  Elec       q    Type
REMARK                         _______ _______ _______ _____ _____    ______ ____
ROOT
ATOM      1  C   UNL     1       5.611   5.988  18.263  0.00  0.00    +0.000 A 
ATOM      2  C   UNL     1       4.257   5.921  18.162  0.00  0.00    +0.000 A 
ATOM      3  N   UNL     1       3.586   4.749  18.558  0.00  0.00    +0.000 N 
ATOM      4  C   UNL     1       4.365   3.618  18.810  0.00  0.00    +0.000 A 
ATOM      5  O   UNL     1       4.056   2.459  18.518  0.00  0.00    +0.000 OA
ATOM      6  N   UNL     1       5.562   3.864  19.403  0.00  0.00    +0.000 N 
ATOM      7  C   UNL     1       6.312   4.919  19.037  0.00  0.00    +0.000 A 
ATOM      8  O   UNL     1       7.513   4.948  19.263  0.00  0.00    +0.000 OA
ATOM      9  H   UNL     1       6.099   3.049  19.663  0.00  0.00    +0.000 HD
ENDROOT
BRANCH   1  11
ATOM     10  C   UNL     1       7.136   6.360  16.310  0.00  0.00    +0.000 C 
ATOM     11  C   UNL     1       6.563   6.943  17.587  0.00  0.00    +0.000 C 
ENDBRANCH   1  11
BRANCH   2  12
ATOM     12  S   UNL     1       3.365   7.131  17.231  0.00  0.00    +0.000 S 
BRANCH  12  13
ATOM     13  C   UNL     1       2.242   7.964  18.364  0.00  0.00    +0.000 A 
ATOM     14  C   UNL     1       2.280   7.849  19.752  0.00  0.00    +0.000 A 
ATOM     15  C   UNL     1       1.450   8.639  20.570  0.00  0.00    +0.000 A 
ATOM     16  C   UNL     1       1.430   8.461  22.059  0.00  0.00    +0.000 C 
ATOM     17  C   UNL     1       0.626   9.611  19.990  0.00  0.00    +0.000 A 
ATOM     18  C   UNL     1       0.538   9.727  18.604  0.00  0.00    +0.000 A 
ATOM     19  C   UNL     1      -0.260  10.850  18.002  0.00  0.00    +0.000 C 
ATOM     20  C   UNL     1       1.300   8.857  17.801  0.00  0.00    +0.000 A 
ENDBRANCH  12  13
ENDBRANCH   2  12
BRANCH   3  21
ATOM     21  C   UNL     1       2.158   4.524  18.245  0.00  0.00    +0.000 C 
BRANCH  21  22
ATOM     22  C   UNL     1       1.197   4.333  19.448  0.00  0.00    +0.000 C 
ATOM     23  C   UNL     1       0.811   2.864  19.700  0.00  0.00    +0.000 C 
ATOM     24  C   UNL     1       1.487   2.524  20.987  0.00  0.00    +0.000 C 
ATOM     25  C   UNL     1       2.062   3.586  21.554  0.00  0.00    +0.000 C 
ATOM     26  C   UNL     1       1.860   4.826  20.751  0.00  0.00    +0.000 C 
ENDBRANCH  21  22
ENDBRANCH   3  21
TORSDOF 5
ENDMDL
MODEL 5
REMARK VINA RESULT:      -7.6      2.683      7.106
REMARK  Name = 
REMARK  8 active torsions:
REMARK  status: ('A' for Active; 'I' for Inactive)
REMARK    1  A    between atoms: C_1  and  C_2
REMARK    2  A    between atoms: C_2  and  C_3
REMARK    3  A    between atoms: C_4  and  S_5
REMARK    4  A    between atoms: S_5  and  C_6
REMARK    5  A    between atoms: C_8  and  C_9
REMARK    6  A    between atoms: C_11  and  C_12
REMARK    7  A    between atoms: N_14  and  C_15
REMARK    8  A    between atoms: C_15  and  C_16
REMARK                            x       y       z     vdW  Elec       q    Type
REMARK                         _______ _______ _______ _____ _____    ______ ____
ROOT
ATOM      1  C   UNL     1       6.384   5.796  18.078  0.00  0.00    +0.000 A 
ATOM      2  C   UNL     1       5.178   5.567  17.492  0.00  0.00    +0.000 A 
ATOM      3  N   UNL     1       4.334   4.566  18.005  0.00  0.00    +0.000 N 
ATOM      4  C   UNL     1       4.876   3.688  18.946  0.00  0.00    +0.000 A 
ATOM      5  O   UNL     1       4.636   2.479  19.017  0.00  0.00    +0.000 OA
ATOM      6  N   UNL     1       5.754   4.250  19.818  0.00  0.00    +0.000 N 
ATOM      7  C   UNL     1       6.653   5.162  19.404  0.00  0.00    +0.000 A 
ATOM      8  O   UNL     1       7.666   5.387  20.050  0.00  0.00    +0.000 OA
ATOM      9  H   UNL     1       6.092   3.644  20.552  0.00  0.00    +0.000 HD
ENDROOT
BRANCH   1  11
ATOM     10  C   UNL     1       7.496   8.017  17.748  0.00  0.00    +0.000 C 
ATOM     11  C   UNL     1       7.583   6.521  17.519  0.00  0.00    +0.000 C 
ENDBRANCH   1  11
BRANCH   2  12
ATOM     12  S   UNL     1       4.805   6.257  15.907  0.00  0.00    +0.000 S 
BRANCH  12  13
ATOM     13  C   UNL     1       5.719   5.313  14.678  0.00  0.00    +0.000 A 
ATOM     14  C   UNL     1       5.184   4.285  13.904  0.00  0.00    +0.000 A 
ATOM     15  C   UNL     1       5.932   3.687  12.871  0.00  0.00    +0.000 A 
ATOM     16  C   UNL     1       5.390   2.528  12.090  0.00  0.00    +0.000 C 
ATOM     17  C   UNL     1       7.206   4.180  12.562  0.00  0.00    +0.000 A 
ATOM     18  C   UNL     1       7.783   5.182  13.340  0.00  0.00    +0.000 A 
ATOM     19  C   UNL     1       9.099   5.779  12.924  0.00  0.00    +0.000 C 
ATOM     20  C   UNL     1       7.059   5.695  14.432  0.00  0.00    +0.000 A 
ENDBRANCH  12  13
ENDBRANCH   2  12
BRANCH   3  21
ATOM     21  C   UNL     1       3.134   4.106  17.272  0.00  0.00    +0.000 C 
BRANCH  21  22
ATOM     22  C   UNL     1       1.758   4.382  17.932  0.00  0.00    +0.000 C 
ATOM     23  C   UNL     1       1.120   3.134  18.569  0.00  0.00    +0.000 C 
ATOM     24  C   UNL     1       1.177   3.402  20.037  0.00  0.00    +0.000 C 
ATOM     25  C   UNL     1       1.609   4.634  20.311  0.00  0.00    +0.000 C 
ATOM     26  C   UNL     1       1.904   5.412  19.073  0.00  0.00    +0.000 C 
ENDBRANCH  21  22
ENDBRANCH   3  21
TORSDOF 5
ENDMDL
MODEL 6
REMARK VINA RESULT:      -7.4      1.433      1.866
REMARK  Name = 
REMARK  8 active torsions:
REMARK  status: ('A' for Active; 'I' for Inactive)
REMARK    1  A    between atoms: C_1  and  C_2
REMARK    2  A    between atoms: C_2  and  C_3
REMARK    3  A    between atoms: C_4  and  S_5
REMARK    4  A    between atoms: S_5  and  C_6
REMARK    5  A    between atoms: C_8  and  C_9
REMARK    6  A    between atoms: C_11  and  C_12
REMARK    7  A    between atoms: N_14  and  C_15
REMARK    8  A    between atoms: C_15  and  C_16
REMARK                            x       y       z     vdW  Elec       q    Type
REMARK                         _______ _______ _______ _____ _____    ______ ____
ROOT
ATOM      1  C   UNL     1       1.707   4.015  19.379  0.00  0.00    +0.000 A 
ATOM      2  C   UNL     1       2.564   5.040  19.126  0.00  0.00    +0.000 A 
ATOM      3  N   UNL     1       3.303   5.050  17.929  0.00  0.00    +0.000 N 
ATOM      4  C   UNL     1       3.303   3.882  17.165  0.00  0.00    +0.000 A 
ATOM      5  O   UNL     1       4.274   3.431  16.549  0.00  0.00    +0.000 OA
ATOM      6  N   UNL     1       2.124   3.206  17.146  0.00  0.00    +0.000 N 
ATOM      7  C   UNL     1       1.382   3.077  18.261  0.00  0.00    +0.000 A 
ATOM      8  O   UNL     1       0.551   2.187  18.366  0.00  0.00    +0.000 OA
ATOM      9  H   UNL     1       2.088   2.404  16.533  0.00  0.00    +0.000 HD
ENDROOT
BRANCH   1  11
ATOM     10  C   UNL     1       2.044   2.704  21.487  0.00  0.00    +0.000 C 
ATOM     11  C   UNL     1       1.104   3.590  20.695  0.00  0.00    +0.000 C 
ENDBRANCH   1  11
BRANCH   2  12
ATOM     12  S   UNL     1       3.019   6.166  20.410  0.00  0.00    +0.000 S 
BRANCH  12  13
ATOM     13  C   UNL     1       1.878   7.555  20.341  0.00  0.00    +0.000 A 
ATOM     14  C   UNL     1       1.092   7.993  21.405  0.00  0.00    +0.000 A 
ATOM     15  C   UNL     1       0.325   9.171  21.306  0.00  0.00    +0.000 A 
ATOM     16  C   UNL     1      -0.584   9.601  22.417  0.00  0.00    +0.000 C 
ATOM     17  C   UNL     1       0.409   9.959  20.152  0.00  0.00    +0.000 A 
ATOM     18  C   UNL     1       1.158   9.530  19.057  0.00  0.00    +0.000 A 
ATOM     19  C   UNL     1       1.331  10.442  17.874  0.00  0.00    +0.000 C 
ATOM     20  C   UNL     1       1.835   8.299  19.139  0.00  0.00    +0.000 A 
ENDBRANCH  12  13
ENDBRANCH   2  12
BRANCH   3  21
ATOM     21  C   UNL     1       4.420   5.994  17.710  0.00  0.00    +0.000 C 
BRANCH  21  22
ATOM     22  C   UNL     1       5.845   5.388  17.614  0.00  0.00    +0.000 C 
ATOM     23  C   UNL     1       6.897   6.373  17.071  0.00  0.00    +0.000 C 
ATOM     24  C   UNL     1       7.773   6.657  18.246  0.00  0.00    +0.000 C 
ATOM     25  C   UNL     1       7.470   5.897  19.300  0.00  0.00    +0.000 C 
ATOM     26  C   UNL     1       6.344   4.962  19.010  0.00  0.00    +0.000 C 
ENDBRANCH  21  22
ENDBRANCH   3  21
TORSDOF 5
ENDMDL
MODEL 7
REMARK VINA RESULT:      -7.3      0.830      2.067
REMARK  Name = 
REMARK  8 active torsions:
REMARK  status: ('A' for Active; 'I' for Inactive)
REMARK    1  A    between atoms: C_1  and  C_2
REMARK    2  A    between atoms: C_2  and  C_3
REMARK    3  A    between atoms: C_4  and  S_5
REMARK    4  A    between atoms: S_5  and  C_6
REMARK    5  A    between atoms: C_8  and  C_9
REMARK    6  A    between atoms: C_11  and  C_12
REMARK    7  A    between atoms: N_14  and  C_15
REMARK    8  A    between atoms: C_15  and  C_16
REMARK                            x       y       z     vdW  Elec       q    Type
REMARK                         _______ _______ _______ _____ _____    ______ ____
ROOT
ATOM      1  C   UNL     1       1.716   3.476  19.378  0.00  0.00    +0.000 A 
ATOM      2  C   UNL     1       2.947   4.006  19.150  0.00  0.00    +0.000 A 
ATOM      3  N   UNL     1       3.811   3.390  18.226  0.00  0.00    +0.000 N 
ATOM      4  C   UNL     1       3.456   2.121  17.764  0.00  0.00    +0.000 A 
ATOM      5  O   UNL     1       4.242   1.194  17.548  0.00  0.00    +0.000 OA
ATOM      6  N   UNL     1       2.124   1.930  17.574  0.00  0.00    +0.000 N 
ATOM      7  C   UNL     1       1.223   2.416  18.446  0.00  0.00    +0.000 A 
ATOM      8  O   UNL     1       0.095   1.951  18.514  0.00  0.00    +0.000 OA
ATOM      9  H   UNL     1       1.863   1.044  17.164  0.00  0.00    +0.000 HD
ENDROOT
BRANCH   1  11
ATOM     10  C   UNL     1       1.181   2.900  21.757  0.00  0.00    +0.000 C 
ATOM     11  C   UNL     1       0.785   3.714  20.541  0.00  0.00    +0.000 C 
ENDBRANCH   1  11
BRANCH   2  12
ATOM     12  S   UNL     1       3.608   5.238  20.233  0.00  0.00    +0.000 S 
BRANCH  12  13
ATOM     13  C   UNL     1       2.653   6.743  19.988  0.00  0.00    +0.000 A 
ATOM     14  C   UNL     1       2.662   7.511  18.826  0.00  0.00    +0.000 A 
ATOM     15  C   UNL     1       1.783   8.600  18.667  0.00  0.00    +0.000 A 
ATOM     16  C   UNL     1       1.845   9.478  17.454  0.00  0.00    +0.000 C 
ATOM     17  C   UNL     1       0.831   8.874  19.657  0.00  0.00    +0.000 A 
ATOM     18  C   UNL     1       0.820   8.147  20.846  0.00  0.00    +0.000 A 
ATOM     19  C   UNL     1      -0.281   8.375  21.845  0.00  0.00    +0.000 C 
ATOM     20  C   UNL     1       1.774   7.128  21.027  0.00  0.00    +0.000 A 
ENDBRANCH  12  13
ENDBRANCH   2  12
BRANCH   3  21
ATOM     21  C   UNL     1       5.236   3.769  18.118  0.00  0.00    +0.000 C 
BRANCH  21  22
ATOM     22  C   UNL     1       5.666   4.532  16.838  0.00  0.00    +0.000 C 
ATOM     23  C   UNL     1       4.910   5.857  16.629  0.00  0.00    +0.000 C 
ATOM     24  C   UNL     1       5.947   6.909  16.851  0.00  0.00    +0.000 C 
ATOM     25  C   UNL     1       7.167   6.392  17.010  0.00  0.00    +0.000 C 
ATOM     26  C   UNL     1       7.162   4.904  16.910  0.00  0.00    +0.000 C 
ENDBRANCH  21  22
ENDBRANCH   3  21
TORSDOF 5
ENDMDL
MODEL 8
REMARK VINA RESULT:      -7.3      0.171      1.721
REMARK  Name = 
REMARK  8 active torsions:
REMARK  status: ('A' for Active; 'I' for Inactive)
REMARK    1  A    between atoms: C_1  and  C_2
REMARK    2  A    between atoms: C_2  and  C_3
REMARK    3  A    between atoms: C_4  and  S_5
REMARK    4  A    between atoms: S_5  and  C_6
REMARK    5  A    between atoms: C_8  and  C_9
REMARK    6  A    between atoms: C_11  and  C_12
REMARK    7  A    between atoms: N_14  and  C_15
REMARK    8  A    between atoms: C_15  and  C_16
REMARK                            x       y       z     vdW  Elec       q    Type
REMARK                         _______ _______ _______ _____ _____    ______ ____
ROOT
ATOM      1  C   UNL     1       1.771   3.620  19.430  0.00  0.00    +0.000 A 
ATOM      2  C   UNL     1       2.934   4.195  19.023  0.00  0.00    +0.000 A 
ATOM      3  N   UNL     1       3.684   3.597  17.994  0.00  0.00    +0.000 N 
ATOM      4  C   UNL     1       3.322   2.307  17.603  0.00  0.00    +0.000 A 
ATOM      5  O   UNL     1       4.108   1.408  17.289  0.00  0.00    +0.000 OA
ATOM      6  N   UNL     1       1.985   2.058  17.606  0.00  0.00    +0.000 N 
ATOM      7  C   UNL     1       1.197   2.524  18.591  0.00  0.00    +0.000 A 
ATOM      8  O   UNL     1       0.110   2.016  18.824  0.00  0.00    +0.000 OA
ATOM      9  H   UNL     1       1.706   1.155  17.249  0.00  0.00    +0.000 HD
ENDROOT
BRANCH   1  11
ATOM     10  C   UNL     1       1.464   2.909  21.813  0.00  0.00    +0.000 C 
ATOM     11  C   UNL     1       1.005   3.842  20.710  0.00  0.00    +0.000 C 
ENDBRANCH   1  11
BRANCH   2  12
ATOM     12  S   UNL     1       3.688   5.473  19.985  0.00  0.00    +0.000 S 
BRANCH  12  13
ATOM     13  C   UNL     1       2.659   6.941  19.837  0.00  0.00    +0.000 A 
ATOM     14  C   UNL     1       2.591   7.755  18.708  0.00  0.00    +0.000 A 
ATOM     15  C   UNL     1       1.660   8.809  18.627  0.00  0.00    +0.000 A 
ATOM     16  C   UNL     1       1.638   9.737  17.450  0.00  0.00    +0.000 C 
ATOM     17  C   UNL     1       0.734   8.998  19.660  0.00  0.00    +0.000 A 
ATOM     18  C   UNL     1       0.799   8.224  20.817  0.00  0.00    +0.000 A 
ATOM     19  C   UNL     1      -0.273   8.362  21.863  0.00  0.00    +0.000 C 
ATOM     20  C   UNL     1       1.803   7.244  20.922  0.00  0.00    +0.000 A 
ENDBRANCH  12  13
ENDBRANCH   2  12
BRANCH   3  21
ATOM     21  C   UNL     1       5.062   4.031  17.680  0.00  0.00    +0.000 C 
BRANCH  21  22
ATOM     22  C   UNL     1       5.242   4.974  16.461  0.00  0.00    +0.000 C 
ATOM     23  C   UNL     1       6.616   5.669  16.418  0.00  0.00    +0.000 C 
ATOM     24  C   UNL     1       7.303   5.047  15.248  0.00  0.00    +0.000 C 
ATOM     25  C   UNL     1       6.499   4.234  14.560  0.00  0.00    +0.000 C 
ATOM     26  C   UNL     1       5.128   4.179  15.144  0.00  0.00    +0.000 C 
ENDBRANCH  21  22
ENDBRANCH   3  21
TORSDOF 5
ENDMDL
MODEL 9
REMARK VINA RESULT:      -7.3      1.498      2.550
REMARK  Name = 
REMARK  8 active torsions:
REMARK  status: ('A' for Active; 'I' for Inactive)
REMARK    1  A    between atoms: C_1  and  C_2
REMARK    2  A    between atoms: C_2  and  C_3
REMARK    3  A    between atoms: C_4  and  S_5
REMARK    4  A    between atoms: S_5  and  C_6
REMARK    5  A    between atoms: C_8  and  C_9
REMARK    6  A    between atoms: C_11  and  C_12
REMARK    7  A    between atoms: N_14  and  C_15
REMARK    8  A    between atoms: C_15  and  C_16
REMARK                            x       y       z     vdW  Elec       q    Type
REMARK                         _______ _______ _______ _____ _____    ______ ____
ROOT
ATOM      1  C   UNL     1       1.663   4.080  19.418  0.00  0.00    +0.000 A 
ATOM      2  C   UNL     1       2.518   5.111  19.183  0.00  0.00    +0.000 A 
ATOM      3  N   UNL     1       3.257   5.145  17.987  0.00  0.00    +0.000 N 
ATOM      4  C   UNL     1       3.259   3.991  17.201  0.00  0.00    +0.000 A 
ATOM      5  O   UNL     1       4.230   3.554  16.576  0.00  0.00    +0.000 OA
ATOM      6  N   UNL     1       2.081   3.313  17.170  0.00  0.00    +0.000 N 
ATOM      7  C   UNL     1       1.341   3.162  18.283  0.00  0.00    +0.000 A 
ATOM      8  O   UNL     1       0.512   2.268  18.372  0.00  0.00    +0.000 OA
ATOM      9  H   UNL     1       2.047   2.522  16.542  0.00  0.00    +0.000 HD
ENDROOT
BRANCH   1  11
ATOM     10  C   UNL     1       2.027   2.778  21.527  0.00  0.00    +0.000 C 
ATOM     11  C   UNL     1       1.062   3.629  20.726  0.00  0.00    +0.000 C 
ENDBRANCH   1  11
BRANCH   2  12
ATOM     12  S   UNL     1       2.972   6.214  20.488  0.00  0.00    +0.000 S 
BRANCH  12  13
ATOM     13  C   UNL     1       1.933   7.677  20.345  0.00  0.00    +0.000 A 
ATOM     14  C   UNL     1       1.641   8.332  19.150  0.00  0.00    +0.000 A 
ATOM     15  C   UNL     1       0.712   9.390  19.109  0.00  0.00    +0.000 A 
ATOM     16  C   UNL     1       0.454  10.149  17.842  0.00  0.00    +0.000 C 
ATOM     17  C   UNL     1       0.012   9.744  20.269  0.00  0.00    +0.000 A 
ATOM     18  C   UNL     1       0.308   9.134  21.487  0.00  0.00    +0.000 A 
ATOM     19  C   UNL     1      -0.532   9.442  22.695  0.00  0.00    +0.000 C 
ATOM     20  C   UNL     1       1.313   8.149  21.525  0.00  0.00    +0.000 A 
ENDBRANCH  12  13
ENDBRANCH   2  12
BRANCH   3  21
ATOM     21  C   UNL     1       4.371   6.096  17.785  0.00  0.00    +0.000 C 
BRANCH  21  22
ATOM     22  C   UNL     1       5.789   5.491  17.613  0.00  0.00    +0.000 C 
ATOM     23  C   UNL     1       6.815   6.484  17.036  0.00  0.00    +0.000 C 
ATOM     24  C   UNL     1       7.746   6.750  18.172  0.00  0.00    +0.000 C 
ATOM     25  C   UNL     1       7.492   5.975  19.228  0.00  0.00    +0.000 C 
ATOM     26  C   UNL     1       6.353   5.044  18.978  0.00  0.00    +0.000 C 
ENDBRANCH  21  22
ENDBRANCH   3  21
TORSDOF 5
ENDMDL
