MODEL 1
REMARK VINA RESULT:      -7.8      0.000      0.000
REMARK  Name = 
REMARK  8 active torsions:
REMARK  status: ('A' for Active; 'I' for Inactive)
REMARK    1  A    between atoms: C_1  and  C_2
REMARK    2  A    between atoms: C_2  and  C_3
REMARK    3  A    between atoms: C_3  and  S_4
REMARK    4  A    between atoms: S_4  and  C_5
REMARK    5  A    between atoms: C_12  and  C_13
REMARK    6  A    between atoms: C_16  and  C_17
REMARK    7  A    between atoms: N_18  and  N_19
REMARK    8  A    between atoms: N_25  and  C_26
REMARK                            x       y       z     vdW  Elec       q    Type
REMARK                         _______ _______ _______ _____ _____    ______ ____
ROOT
ATOM      1  C   UNL     1       3.490   6.399  17.714  0.00  0.00    +0.000 A 
ATOM      2  C   UNL     1       4.513   6.936  16.917  0.00  0.00    +0.000 A 
ATOM      3  C   UNL     1       5.281   6.098  16.096  0.00  0.00    +0.000 A 
ATOM      4  C   UNL     1       5.027   4.728  16.077  0.00  0.00    +0.000 A 
ATOM      5  C   UNL     1       4.015   4.189  16.874  0.00  0.00    +0.000 A 
ATOM      6  C   UNL     1       3.237   5.025  17.676  0.00  0.00    +0.000 A 
ENDROOT
BRANCH   1  14
ATOM      7  C   UNL     1       0.035  10.535  20.438  0.00  0.00    +0.000 A 
ATOM      8  C   UNL     1      -0.067   9.559  21.532  0.00  0.00    +0.000 A 
ATOM      9  C   UNL     1       0.569   8.376  21.457  0.00  0.00    +0.000 A 
ATOM     10  C   UNL     1       1.363   8.111  20.223  0.00  0.00    +0.000 A 
ATOM     11  N   UNL     1       1.422   9.039  19.252  0.00  0.00    +0.000 N 
ATOM     12  C   UNL     1       0.751  10.255  19.325  0.00  0.00    +0.000 A 
ATOM     13  C   UNL     1       2.226   8.573  18.239  0.00  0.00    +0.000 A 
ATOM     14  C   UNL     1       2.644   7.293  18.575  0.00  0.00    +0.000 A 
ATOM     15  N   UNL     1       2.095   7.053  19.853  0.00  0.00    +0.000 N 
ATOM     16  C   UNL     1       2.334   5.919  20.741  0.00  0.00    +0.000 C 
BRANCH   7  17
ATOM     17  S   UNL     1      -0.845  12.033  20.561  0.00  0.00    +0.000 S 
BRANCH  17  18
ATOM     18  C   UNL     1      -1.296  12.334  18.818  0.00  0.00    +0.000 C 
BRANCH  18  20
ATOM     19  C   UNL     1      -2.386  10.639  17.314  0.00  0.00    +0.000 C 
ATOM     20  C   UNL     1      -2.592  11.601  18.476  0.00  0.00    +0.000 C 
ENDBRANCH  18  20
ENDBRANCH  17  18
ENDBRANCH   7  17
ENDBRANCH   1  14
BRANCH   4  21
ATOM     21  C   UNL     1       5.802   3.841  15.188  0.00  0.00    +0.000 C 
ATOM     22  N   UNL     1       5.789   4.037  13.911  0.00  0.00    +0.000 NA
BRANCH  22  23
ATOM     23  N   UNL     1       6.563   3.187  13.174  0.00  0.00    +0.000 N 
ATOM     24  C   UNL     1       6.109   2.648  12.006  0.00  0.00    +0.000 C 
ATOM     25  N   UNL     1       4.899   2.772  11.582  0.00  0.00    +0.000 NA
ATOM     26  N   UNL     1       7.015   1.949  11.292  0.00  0.00    +0.000 N 
ATOM     27  H   UNL     1       7.575   3.275  13.221  0.00  0.00    +0.000 HD
ATOM     28  H   UNL     1       4.450   3.349  12.312  0.00  0.00    +0.000 HD
ATOM     29  H   UNL     1       7.563   1.295  11.835  0.00  0.00    +0.000 HD
ATOM     30  H   UNL     1       6.535   1.467  10.538  0.00  0.00    +0.000 HD
ENDBRANCH  22  23
ENDBRANCH   4  21
TORSDOF 6
ENDMDL
MODEL 2
REMARK VINA RESULT:      -7.7      4.620     10.799
REMARK  Name = 
REMARK  8 active torsions:
REMARK  status: ('A' for Active; 'I' for Inactive)
REMARK    1  A    between atoms: C_1  and  C_2
REMARK    2  A    between atoms: C_2  and  C_3
REMARK    3  A    between atoms: C_3  and  S_4
REMARK    4  A    between atoms: S_4  and  C_5
REMARK    5  A    between atoms: C_12  and  C_13
REMARK    6  A    between atoms: C_16  and  C_17
REMARK    7  A    between atoms: N_18  and  N_19
REMARK    8  A    between atoms: N_25  and  C_26
REMARK                            x       y       z     vdW  Elec       q    Type
REMARK                         _______ _______ _______ _____ _____    ______ ____
ROOT
ATOM      1  C   UNL     1       0.327   9.592  21.015  0.00  0.00    +0.000 A 
ATOM      2  C   UNL     1       0.034   9.428  22.378  0.00  0.00    +0.000 A 
ATOM      3  C   UNL     1      -0.829  10.323  23.027  0.00  0.00    +0.000 A 
ATOM      4  C   UNL     1      -1.394  11.379  22.313  0.00  0.00    +0.000 A 
ATOM      5  C   UNL     1      -1.098  11.549  20.959  0.00  0.00    +0.000 A 
ATOM      6  C   UNL     1      -0.256  10.647  20.308  0.00  0.00    +0.000 A 
ENDROOT
BRANCH   1  14
ATOM      7  C   UNL     1       3.764   5.121  18.859  0.00  0.00    +0.000 A 
ATOM      8  C   UNL     1       3.874   5.946  17.648  0.00  0.00    +0.000 A 
ATOM      9  C   UNL     1       3.270   7.147  17.579  0.00  0.00    +0.000 A 
ATOM     10  C   UNL     1       2.492   7.583  18.775  0.00  0.00    +0.000 A 
ATOM     11  N   UNL     1       2.425   6.787  19.856  0.00  0.00    +0.000 N 
ATOM     12  C   UNL     1       3.036   5.540  19.919  0.00  0.00    +0.000 A 
ATOM     13  C   UNL     1       1.676   7.415  20.824  0.00  0.00    +0.000 A 
ATOM     14  C   UNL     1       1.229   8.622  20.306  0.00  0.00    +0.000 A 
ATOM     15  N   UNL     1       1.793   8.698  19.016  0.00  0.00    +0.000 N 
ATOM     16  C   UNL     1       1.767   9.821  18.083  0.00  0.00    +0.000 C 
BRANCH   7  17
ATOM     17  S   UNL     1       4.524   3.553  18.881  0.00  0.00    +0.000 S 
BRANCH  17  18
ATOM     18  C   UNL     1       3.182   2.508  19.541  0.00  0.00    +0.000 C 
BRANCH  18  20
ATOM     19  C   UNL     1       0.772   2.540  18.823  0.00  0.00    +0.000 C 
ATOM     20  C   UNL     1       2.193   2.158  18.431  0.00  0.00    +0.000 C 
ENDBRANCH  18  20
ENDBRANCH  17  18
ENDBRANCH   7  17
ENDBRANCH   1  14
BRANCH   4  21
ATOM     21  C   UNL     1      -2.334  12.303  22.974  0.00  0.00    +0.000 C 
ATOM     22  N   UNL     1      -3.428  11.850  23.490  0.00  0.00    +0.000 NA
BRANCH  22  23
ATOM     23  N   UNL     1      -4.218  12.777  24.110  0.00  0.00    +0.000 N 
ATOM     24  C   UNL     1      -5.478  13.045  23.662  0.00  0.00    +0.000 C 
ATOM     25  N   UNL     1      -5.967  12.572  22.569  0.00  0.00    +0.000 NA
ATOM     26  N   UNL     1      -6.215  13.861  24.443  0.00  0.00    +0.000 N 
ATOM     27  H   UNL     1      -4.087  12.952  25.102  0.00  0.00    +0.000 HD
ATOM     28  H   UNL     1      -5.198  11.990  22.198  0.00  0.00    +0.000 HD
ATOM     29  H   UNL     1      -5.730  14.691  24.758  0.00  0.00    +0.000 HD
ATOM     30  H   UNL     1      -7.061  14.116  23.942  0.00  0.00    +0.000 HD
ENDBRANCH  22  23
ENDBRANCH   4  21
TORSDOF 6
ENDMDL
MODEL 3
REMARK VINA RESULT:      -7.7      1.254      1.688
REMARK  Name = 
REMARK  8 active torsions:
REMARK  status: ('A' for Active; 'I' for Inactive)
REMARK    1  A    between atoms: C_1  and  C_2
REMARK    2  A    between atoms: C_2  and  C_3
REMARK    3  A    between atoms: C_3  and  S_4
REMARK    4  A    between atoms: S_4  and  C_5
REMARK    5  A    between atoms: C_12  and  C_13
REMARK    6  A    between atoms: C_16  and  C_17
REMARK    7  A    between atoms: N_18  and  N_19
REMARK    8  A    between atoms: N_25  and  C_26
REMARK                            x       y       z     vdW  Elec       q    Type
REMARK                         _______ _______ _______ _____ _____    ______ ____
ROOT
ATOM      1  C   UNL     1       3.390   6.482  17.784  0.00  0.00    +0.000 A 
ATOM      2  C   UNL     1       4.420   7.006  16.986  0.00  0.00    +0.000 A 
ATOM      3  C   UNL     1       5.187   6.156  16.177  0.00  0.00    +0.000 A 
ATOM      4  C   UNL     1       4.925   4.787  16.169  0.00  0.00    +0.000 A 
ATOM      5  C   UNL     1       3.907   4.261  16.968  0.00  0.00    +0.000 A 
ATOM      6  C   UNL     1       3.130   5.109  17.758  0.00  0.00    +0.000 A 
ENDROOT
BRANCH   1  14
ATOM      7  C   UNL     1      -0.050  10.664  20.454  0.00  0.00    +0.000 A 
ATOM      8  C   UNL     1      -0.165   9.699  21.556  0.00  0.00    +0.000 A 
ATOM      9  C   UNL     1       0.463   8.510  21.495  0.00  0.00    +0.000 A 
ATOM     10  C   UNL     1       1.263   8.229  20.267  0.00  0.00    +0.000 A 
ATOM     11  N   UNL     1       1.332   9.149  19.289  0.00  0.00    +0.000 N 
ATOM     12  C   UNL     1       0.670  10.370  19.347  0.00  0.00    +0.000 A 
ATOM     13  C   UNL     1       2.138   8.669  18.284  0.00  0.00    +0.000 A 
ATOM     14  C   UNL     1       2.546   7.389  18.633  0.00  0.00    +0.000 A 
ATOM     15  N   UNL     1       1.989   7.164  19.910  0.00  0.00    +0.000 N 
ATOM     16  C   UNL     1       2.216   6.035  20.809  0.00  0.00    +0.000 C 
BRANCH   7  17
ATOM     17  S   UNL     1      -0.922  12.169  20.560  0.00  0.00    +0.000 S 
BRANCH  17  18
ATOM     18  C   UNL     1      -0.444  12.750  22.222  0.00  0.00    +0.000 C 
BRANCH  18  20
ATOM     19  C   UNL     1      -2.617  12.013  23.251  0.00  0.00    +0.000 C 
ATOM     20  C   UNL     1      -1.682  13.188  23.003  0.00  0.00    +0.000 C 
ENDBRANCH  18  20
ENDBRANCH  17  18
ENDBRANCH   7  17
ENDBRANCH   1  14
BRANCH   4  21
ATOM     21  C   UNL     1       5.699   3.888  15.292  0.00  0.00    +0.000 C 
ATOM     22  N   UNL     1       5.763   4.123  14.023  0.00  0.00    +0.000 NA
BRANCH  22  23
ATOM     23  N   UNL     1       6.530   3.255  13.299  0.00  0.00    +0.000 N 
ATOM     24  C   UNL     1       6.099   2.757  12.104  0.00  0.00    +0.000 C 
ATOM     25  N   UNL     1       4.912   2.939  11.638  0.00  0.00    +0.000 NA
ATOM     26  N   UNL     1       7.003   2.035  11.411  0.00  0.00    +0.000 N 
ATOM     27  H   UNL     1       7.542   3.301  13.386  0.00  0.00    +0.000 HD
ATOM     28  H   UNL     1       4.459   3.520  12.362  0.00  0.00    +0.000 HD
ATOM     29  H   UNL     1       7.503   1.349  11.961  0.00  0.00    +0.000 HD
ATOM     30  H   UNL     1       6.533   1.587  10.630  0.00  0.00    +0.000 HD
ENDBRANCH  22  23
ENDBRANCH   4  21
TORSDOF 6
ENDMDL
MODEL 4
REMARK VINA RESULT:      -7.6      0.434      1.043
REMARK  Name = 
REMARK  8 active torsions:
REMARK  status: ('A' for Active; 'I' for Inactive)
REMARK    1  A    between atoms: C_1  and  C_2
REMARK    2  A    between atoms: C_2  and  C_3
REMARK    3  A    between atoms: C_3  and  S_4
REMARK    4  A    between atoms: S_4  and  C_5
REMARK    5  A    between atoms: C_12  and  C_13
REMARK    6  A    between atoms: C_16  and  C_17
REMARK    7  A    between atoms: N_18  and  N_19
REMARK    8  A    between atoms: N_25  and  C_26
REMARK                            x       y       z     vdW  Elec       q    Type
REMARK                         _______ _______ _______ _____ _____    ______ ____
ROOT
ATOM      1  C   UNL     1       3.653   6.179  17.490  0.00  0.00    +0.000 A 
ATOM      2  C   UNL     1       3.457   4.790  17.444  0.00  0.00    +0.000 A 
ATOM      3  C   UNL     1       4.233   3.997  16.586  0.00  0.00    +0.000 A 
ATOM      4  C   UNL     1       5.198   4.594  15.777  0.00  0.00    +0.000 A 
ATOM      5  C   UNL     1       5.389   5.977  15.814  0.00  0.00    +0.000 A 
ATOM      6  C   UNL     1       4.632   6.764  16.682  0.00  0.00    +0.000 A 
ENDROOT
BRANCH   1  14
ATOM      7  C   UNL     1       0.313  10.181  20.538  0.00  0.00    +0.000 A 
ATOM      8  C   UNL     1       0.271   9.164  21.597  0.00  0.00    +0.000 A 
ATOM      9  C   UNL     1       0.909   7.989  21.446  0.00  0.00    +0.000 A 
ATOM     10  C   UNL     1       1.643   7.777  20.165  0.00  0.00    +0.000 A 
ATOM     11  N   UNL     1       1.648   8.743  19.229  0.00  0.00    +0.000 N 
ATOM     12  C   UNL     1       0.975   9.949  19.381  0.00  0.00    +0.000 A 
ATOM     13  C   UNL     1       2.404   8.322  18.161  0.00  0.00    +0.000 A 
ATOM     14  C   UNL     1       2.845   7.033  18.426  0.00  0.00    +0.000 A 
ATOM     15  N   UNL     1       2.362   6.740  19.718  0.00  0.00    +0.000 N 
ATOM     16  C   UNL     1       2.651   5.575  20.549  0.00  0.00    +0.000 C 
BRANCH   7  17
ATOM     17  S   UNL     1      -0.569  11.667  20.762  0.00  0.00    +0.000 S 
BRANCH  17  18
ATOM     18  C   UNL     1      -0.998  12.098  19.041  0.00  0.00    +0.000 C 
BRANCH  18  20
ATOM     19  C   UNL     1      -2.370  10.278  17.978  0.00  0.00    +0.000 C 
ATOM     20  C   UNL     1      -2.408  11.611  18.713  0.00  0.00    +0.000 C 
ENDBRANCH  18  20
ENDBRANCH  17  18
ENDBRANCH   7  17
ENDBRANCH   1  14
BRANCH   4  21
ATOM     21  C   UNL     1       6.047   3.766  14.899  0.00  0.00    +0.000 C 
ATOM     22  N   UNL     1       5.972   3.900  13.616  0.00  0.00    +0.000 NA
BRANCH  22  23
ATOM     23  N   UNL     1       6.820   3.115  12.889  0.00  0.00    +0.000 N 
ATOM     24  C   UNL     1       6.376   2.395  11.818  0.00  0.00    +0.000 C 
ATOM     25  N   UNL     1       5.134   2.282  11.497  0.00  0.00    +0.000 NA
ATOM     26  N   UNL     1       7.330   1.782  11.089  0.00  0.00    +0.000 N 
ATOM     27  H   UNL     1       7.803   3.367  12.836  0.00  0.00    +0.000 HD
ATOM     28  H   UNL     1       4.651   2.850  12.212  0.00  0.00    +0.000 HD
ATOM     29  H   UNL     1       8.018   1.281  11.634  0.00  0.00    +0.000 HD
ATOM     30  H   UNL     1       6.882   1.156  10.426  0.00  0.00    +0.000 HD
ENDBRANCH  22  23
ENDBRANCH   4  21
TORSDOF 6
ENDMDL
MODEL 5
REMARK VINA RESULT:      -7.6      1.483      2.109
REMARK  Name = 
REMARK  8 active torsions:
REMARK  status: ('A' for Active; 'I' for Inactive)
REMARK    1  A    between atoms: C_1  and  C_2
REMARK    2  A    between atoms: C_2  and  C_3
REMARK    3  A    between atoms: C_3  and  S_4
REMARK    4  A    between atoms: S_4  and  C_5
REMARK    5  A    between atoms: C_12  and  C_13
REMARK    6  A    between atoms: C_16  and  C_17
REMARK    7  A    between atoms: N_18  and  N_19
REMARK    8  A    between atoms: N_25  and  C_26
REMARK                            x       y       z     vdW  Elec       q    Type
REMARK                         _______ _______ _______ _____ _____    ______ ____
ROOT
ATOM      1  C   UNL     1       3.329   6.447  17.891  0.00  0.00    +0.000 A 
ATOM      2  C   UNL     1       3.086   5.068  17.782  0.00  0.00    +0.000 A 
ATOM      3  C   UNL     1       3.872   4.278  16.931  0.00  0.00    +0.000 A 
ATOM      4  C   UNL     1       4.896   4.869  16.191  0.00  0.00    +0.000 A 
ATOM      5  C   UNL     1       5.135   6.241  16.290  0.00  0.00    +0.000 A 
ATOM      6  C   UNL     1       4.365   7.023  17.152  0.00  0.00    +0.000 A 
ENDROOT
BRANCH   1  14
ATOM      7  C   UNL     1       0.002  10.462  20.935  0.00  0.00    +0.000 A 
ATOM      8  C   UNL     1      -0.142   9.403  21.944  0.00  0.00    +0.000 A 
ATOM      9  C   UNL     1       0.452   8.208  21.774  0.00  0.00    +0.000 A 
ATOM     10  C   UNL     1       1.246   8.018  20.525  0.00  0.00    +0.000 A 
ATOM     11  N   UNL     1       1.343   9.021  19.635  0.00  0.00    +0.000 N 
ATOM     12  C   UNL     1       0.715  10.250  19.806  0.00  0.00    +0.000 A 
ATOM     13  C   UNL     1       2.138   8.613  18.590  0.00  0.00    +0.000 A 
ATOM     14  C   UNL     1       2.508   7.295  18.820  0.00  0.00    +0.000 A 
ATOM     15  N   UNL     1       1.943   6.970  20.071  0.00  0.00    +0.000 N 
ATOM     16  C   UNL     1       2.136   5.758  20.862  0.00  0.00    +0.000 C 
BRANCH   7  17
ATOM     17  S   UNL     1      -0.827  11.974  21.179  0.00  0.00    +0.000 S 
BRANCH  17  18
ATOM     18  C   UNL     1      -1.375  11.814  22.912  0.00  0.00    +0.000 C 
BRANCH  18  20
ATOM     19  C   UNL     1      -3.608  12.491  23.849  0.00  0.00    +0.000 C 
ATOM     20  C   UNL     1      -2.282  12.984  23.288  0.00  0.00    +0.000 C 
ENDBRANCH  18  20
ENDBRANCH  17  18
ENDBRANCH   7  17
ENDBRANCH   1  14
BRANCH   4  21
ATOM     21  C   UNL     1       5.756   4.042  15.323  0.00  0.00    +0.000 C 
ATOM     22  N   UNL     1       5.580   4.053  14.043  0.00  0.00    +0.000 NA
BRANCH  22  23
ATOM     23  N   UNL     1       6.445   3.282  13.320  0.00  0.00    +0.000 N 
ATOM     24  C   UNL     1       6.098   2.783  12.099  0.00  0.00    +0.000 C 
ATOM     25  N   UNL     1       4.914   2.869  11.599  0.00  0.00    +0.000 NA
ATOM     26  N   UNL     1       7.085   2.168  11.416  0.00  0.00    +0.000 N 
ATOM     27  H   UNL     1       7.445   3.417  13.441  0.00  0.00    +0.000 HD
ATOM     28  H   UNL     1       4.388   3.384  12.324  0.00  0.00    +0.000 HD
ATOM     29  H   UNL     1       7.630   1.514  11.962  0.00  0.00    +0.000 HD
ATOM     30  H   UNL     1       6.682   1.703  10.607  0.00  0.00    +0.000 HD
ENDBRANCH  22  23
ENDBRANCH   4  21
TORSDOF 6
ENDMDL
MODEL 6
REMARK VINA RESULT:      -7.5      1.036      1.265
REMARK  Name = 
REMARK  8 active torsions:
REMARK  status: ('A' for Active; 'I' for Inactive)
REMARK    1  A    between atoms: C_1  and  C_2
REMARK    2  A    between atoms: C_2  and  C_3
REMARK    3  A    between atoms: C_3  and  S_4
REMARK    4  A    between atoms: S_4  and  C_5
REMARK    5  A    between atoms: C_12  and  C_13
REMARK    6  A    between atoms: C_16  and  C_17
REMARK    7  A    between atoms: N_18  and  N_19
REMARK    8  A    between atoms: N_25  and  C_26
REMARK                            x       y       z     vdW  Elec       q    Type
REMARK                         _______ _______ _______ _____ _____    ______ ____
ROOT
ATOM      1  C   UNL     1       3.621   6.274  17.627  0.00  0.00    +0.000 A 
ATOM      2  C   UNL     1       4.676   6.830  16.886  0.00  0.00    +0.000 A 
ATOM      3  C   UNL     1       5.455   6.017  16.050  0.00  0.00    +0.000 A 
ATOM      4  C   UNL     1       5.180   4.654  15.959  0.00  0.00    +0.000 A 
ATOM      5  C   UNL     1       4.137   4.096  16.702  0.00  0.00    +0.000 A 
ATOM      6  C   UNL     1       3.348   4.908  17.518  0.00  0.00    +0.000 A 
ENDROOT
BRANCH   1  14
ATOM      7  C   UNL     1       0.122  10.322  20.425  0.00  0.00    +0.000 A 
ATOM      8  C   UNL     1       0.023   9.321  21.497  0.00  0.00    +0.000 A 
ATOM      9  C   UNL     1       0.667   8.144  21.399  0.00  0.00    +0.000 A 
ATOM     10  C   UNL     1       1.470   7.913  20.163  0.00  0.00    +0.000 A 
ATOM     11  N   UNL     1       1.526   8.863  19.214  0.00  0.00    +0.000 N 
ATOM     12  C   UNL     1       0.846  10.072  19.310  0.00  0.00    +0.000 A 
ATOM     13  C   UNL     1       2.338   8.426  18.194  0.00  0.00    +0.000 A 
ATOM     14  C   UNL     1       2.765   7.142  18.504  0.00  0.00    +0.000 A 
ATOM     15  N   UNL     1       2.212   6.870  19.773  0.00  0.00    +0.000 N 
ATOM     16  C   UNL     1       2.455   5.718  20.637  0.00  0.00    +0.000 C 
BRANCH   7  17
ATOM     17  S   UNL     1      -0.771  11.810  20.577  0.00  0.00    +0.000 S 
BRANCH  17  18
ATOM     18  C   UNL     1       0.574  13.016  20.835  0.00  0.00    +0.000 C 
BRANCH  18  20
ATOM     19  C   UNL     1      -0.272  13.597  18.539  0.00  0.00    +0.000 C 
ATOM     20  C   UNL     1       0.865  13.765  19.537  0.00  0.00    +0.000 C 
ENDBRANCH  18  20
ENDBRANCH  17  18
ENDBRANCH   7  17
ENDBRANCH   1  14
BRANCH   4  21
ATOM     21  C   UNL     1       5.967   3.796  15.053  0.00  0.00    +0.000 C 
ATOM     22  N   UNL     1       5.781   3.864  13.777  0.00  0.00    +0.000 NA
BRANCH  22  23
ATOM     23  N   UNL     1       6.579   3.056  13.018  0.00  0.00    +0.000 N 
ATOM     24  C   UNL     1       6.127   2.504  11.856  0.00  0.00    +0.000 C 
ATOM     25  N   UNL     1       4.904   2.573  11.457  0.00  0.00    +0.000 NA
ATOM     26  N   UNL     1       7.051   1.853  11.119  0.00  0.00    +0.000 N 
ATOM     27  H   UNL     1       7.586   3.192  13.046  0.00  0.00    +0.000 HD
ATOM     28  H   UNL     1       4.443   3.123  12.200  0.00  0.00    +0.000 HD
ATOM     29  H   UNL     1       7.640   1.222  11.645  0.00  0.00    +0.000 HD
ATOM     30  H   UNL     1       6.579   1.354  10.371  0.00  0.00    +0.000 HD
ENDBRANCH  22  23
ENDBRANCH   4  21
TORSDOF 6
ENDMDL
MODEL 7
REMARK VINA RESULT:      -7.3      0.702      1.536
REMARK  Name = 
REMARK  8 active torsions:
REMARK  status: ('A' for Active; 'I' for Inactive)
REMARK    1  A    between atoms: C_1  and  C_2
REMARK    2  A    between atoms: C_2  and  C_3
REMARK    3  A    between atoms: C_3  and  S_4
REMARK    4  A    between atoms: S_4  and  C_5
REMARK    5  A    between atoms: C_12  and  C_13
REMARK    6  A    between atoms: C_16  and  C_17
REMARK    7  A    between atoms: N_18  and  N_19
REMARK    8  A    between atoms: N_25  and  C_26
REMARK                            x       y       z     vdW  Elec       q    Type
REMARK                         _______ _______ _______ _____ _____    ______ ____
ROOT
ATOM      1  C   UNL     1       3.547   6.370  17.558  0.00  0.00    +0.000 A 
ATOM      2  C   UNL     1       3.360   4.979  17.550  0.00  0.00    +0.000 A 
ATOM      3  C   UNL     1       4.142   4.166  16.717  0.00  0.00    +0.000 A 
ATOM      4  C   UNL     1       5.107   4.747  15.894  0.00  0.00    +0.000 A 
ATOM      5  C   UNL     1       5.290   6.131  15.894  0.00  0.00    +0.000 A 
ATOM      6  C   UNL     1       4.526   6.937  16.737  0.00  0.00    +0.000 A 
ENDROOT
BRANCH   1  14
ATOM      7  C   UNL     1       0.183  10.440  20.486  0.00  0.00    +0.000 A 
ATOM      8  C   UNL     1       0.130   9.446  21.567  0.00  0.00    +0.000 A 
ATOM      9  C   UNL     1       0.768   8.268  21.447  0.00  0.00    +0.000 A 
ATOM     10  C   UNL     1       1.514   8.028  20.178  0.00  0.00    +0.000 A 
ATOM     11  N   UNL     1       1.529   8.972  19.221  0.00  0.00    +0.000 N 
ATOM     12  C   UNL     1       0.855  10.182  19.340  0.00  0.00    +0.000 A 
ATOM     13  C   UNL     1       2.294   8.527  18.169  0.00  0.00    +0.000 A 
ATOM     14  C   UNL     1       2.732   7.244  18.467  0.00  0.00    +0.000 A 
ATOM     15  N   UNL     1       2.236   6.980  19.761  0.00  0.00    +0.000 N 
ATOM     16  C   UNL     1       2.516   5.833  20.620  0.00  0.00    +0.000 C 
BRANCH   7  17
ATOM     17  S   UNL     1      -0.700  11.931  20.669  0.00  0.00    +0.000 S 
BRANCH  17  18
ATOM     18  C   UNL     1      -0.922  12.438  18.930  0.00  0.00    +0.000 C 
BRANCH  18  20
ATOM     19  C   UNL     1      -0.583  14.749  19.861  0.00  0.00    +0.000 C 
ATOM     20  C   UNL     1      -0.294  13.810  18.698  0.00  0.00    +0.000 C 
ENDBRANCH  18  20
ENDBRANCH  17  18
ENDBRANCH   7  17
ENDBRANCH   1  14
BRANCH   4  21
ATOM     21  C   UNL     1       5.963   3.899  15.043  0.00  0.00    +0.000 C 
ATOM     22  N   UNL     1       5.806   3.906  13.760  0.00  0.00    +0.000 NA
BRANCH  22  23
ATOM     23  N   UNL     1       6.667   3.115  13.054  0.00  0.00    +0.000 N 
ATOM     24  C   UNL     1       6.278   2.499  11.901  0.00  0.00    +0.000 C 
ATOM     25  N   UNL     1       5.065   2.490  11.466  0.00  0.00    +0.000 NA
ATOM     26  N   UNL     1       7.255   1.873  11.214  0.00  0.00    +0.000 N 
ATOM     27  H   UNL     1       7.664   3.305  13.104  0.00  0.00    +0.000 HD
ATOM     28  H   UNL     1       4.555   3.041  12.176  0.00  0.00    +0.000 HD
ATOM     29  H   UNL     1       7.860   1.292  11.779  0.00  0.00    +0.000 HD
ATOM     30  H   UNL     1       6.831   1.323  10.472  0.00  0.00    +0.000 HD
ENDBRANCH  22  23
ENDBRANCH   4  21
TORSDOF 6
ENDMDL
MODEL 8
REMARK VINA RESULT:      -7.3      0.861      1.451
REMARK  Name = 
REMARK  8 active torsions:
REMARK  status: ('A' for Active; 'I' for Inactive)
REMARK    1  A    between atoms: C_1  and  C_2
REMARK    2  A    between atoms: C_2  and  C_3
REMARK    3  A    between atoms: C_3  and  S_4
REMARK    4  A    between atoms: S_4  and  C_5
REMARK    5  A    between atoms: C_12  and  C_13
REMARK    6  A    between atoms: C_16  and  C_17
REMARK    7  A    between atoms: N_18  and  N_19
REMARK    8  A    between atoms: N_25  and  C_26
REMARK                            x       y       z     vdW  Elec       q    Type
REMARK                         _______ _______ _______ _____ _____    ______ ____
ROOT
ATOM      1  C   UNL     1       3.270   6.573  17.883  0.00  0.00    +0.000 A 
ATOM      2  C   UNL     1       3.016   5.194  17.821  0.00  0.00    +0.000 A 
ATOM      3  C   UNL     1       3.788   4.372  16.987  0.00  0.00    +0.000 A 
ATOM      4  C   UNL     1       4.808   4.931  16.218  0.00  0.00    +0.000 A 
ATOM      5  C   UNL     1       5.058   6.304  16.272  0.00  0.00    +0.000 A 
ATOM      6  C   UNL     1       4.303   7.119  17.117  0.00  0.00    +0.000 A 
ENDROOT
BRANCH   1  14
ATOM      7  C   UNL     1       0.026  10.718  20.842  0.00  0.00    +0.000 A 
ATOM      8  C   UNL     1      -0.151   9.679  21.866  0.00  0.00    +0.000 A 
ATOM      9  C   UNL     1       0.414   8.467  21.719  0.00  0.00    +0.000 A 
ATOM     10  C   UNL     1       1.211   8.238  20.478  0.00  0.00    +0.000 A 
ATOM     11  N   UNL     1       1.339   9.224  19.574  0.00  0.00    +0.000 N 
ATOM     12  C   UNL     1       0.741  10.470  19.721  0.00  0.00    +0.000 A 
ATOM     13  C   UNL     1       2.129   8.779  18.541  0.00  0.00    +0.000 A 
ATOM     14  C   UNL     1       2.465   7.456  18.794  0.00  0.00    +0.000 A 
ATOM     15  N   UNL     1       1.884   7.165  20.045  0.00  0.00    +0.000 N 
ATOM     16  C   UNL     1       2.042   5.961  20.857  0.00  0.00    +0.000 C 
BRANCH   7  17
ATOM     17  S   UNL     1      -0.766  12.254  21.057  0.00  0.00    +0.000 S 
BRANCH  17  18
ATOM     18  C   UNL     1      -1.878  12.296  19.610  0.00  0.00    +0.000 C 
BRANCH  18  20
ATOM     19  C   UNL     1      -3.386  12.788  21.560  0.00  0.00    +0.000 C 
ATOM     20  C   UNL     1      -3.313  12.565  20.057  0.00  0.00    +0.000 C 
ENDBRANCH  18  20
ENDBRANCH  17  18
ENDBRANCH   7  17
ENDBRANCH   1  14
BRANCH   4  21
ATOM     21  C   UNL     1       5.653   4.071  15.368  0.00  0.00    +0.000 C 
ATOM     22  N   UNL     1       5.564   4.150  14.081  0.00  0.00    +0.000 NA
BRANCH  22  23
ATOM     23  N   UNL     1       6.410   3.339  13.379  0.00  0.00    +0.000 N 
ATOM     24  C   UNL     1       6.069   2.857  12.149  0.00  0.00    +0.000 C 
ATOM     25  N   UNL     1       4.903   2.998  11.621  0.00  0.00    +0.000 NA
ATOM     26  N   UNL     1       7.042   2.196  11.489  0.00  0.00    +0.000 N 
ATOM     27  H   UNL     1       7.412   3.427  13.524  0.00  0.00    +0.000 HD
ATOM     28  H   UNL     1       4.384   3.537  12.334  0.00  0.00    +0.000 HD
ATOM     29  H   UNL     1       7.542   1.517  12.048  0.00  0.00    +0.000 HD
ATOM     30  H   UNL     1       6.637   1.750  10.671  0.00  0.00    +0.000 HD
ENDBRANCH  22  23
ENDBRANCH   4  21
TORSDOF 6
ENDMDL
MODEL 9
REMARK VINA RESULT:      -7.3      3.175      5.002
REMARK  Name = 
REMARK  8 active torsions:
REMARK  status: ('A' for Active; 'I' for Inactive)
REMARK    1  A    between atoms: C_1  and  C_2
REMARK    2  A    between atoms: C_2  and  C_3
REMARK    3  A    between atoms: C_3  and  S_4
REMARK    4  A    between atoms: S_4  and  C_5
REMARK    5  A    between atoms: C_12  and  C_13
REMARK    6  A    between atoms: C_16  and  C_17
REMARK    7  A    between atoms: N_18  and  N_19
REMARK    8  A    between atoms: N_25  and  C_26
REMARK                            x       y       z     vdW  Elec       q    Type
REMARK                         _______ _______ _______ _____ _____    ______ ____
ROOT
ATOM      1  C   UNL     1       1.255   9.002  19.418  0.00  0.00    +0.000 A 
ATOM      2  C   UNL     1       1.604   7.867  20.167  0.00  0.00    +0.000 A 
ATOM      3  C   UNL     1       2.464   6.901  19.624  0.00  0.00    +0.000 A 
ATOM      4  C   UNL     1       2.969   7.071  18.336  0.00  0.00    +0.000 A 
ATOM      5  C   UNL     1       2.617   8.195  17.585  0.00  0.00    +0.000 A 
ATOM      6  C   UNL     1       1.778   9.166  18.132  0.00  0.00    +0.000 A 
ENDROOT
BRANCH   1  14
ATOM      7  C   UNL     1      -1.725  13.306  22.428  0.00  0.00    +0.000 A 
ATOM      8  C   UNL     1      -2.606  13.354  21.253  0.00  0.00    +0.000 A 
ATOM      9  C   UNL     1      -2.399  12.535  20.205  0.00  0.00    +0.000 A 
ATOM     10  C   UNL     1      -1.242  11.597  20.298  0.00  0.00    +0.000 A 
ATOM     11  N   UNL     1      -0.468  11.596  21.397  0.00  0.00    +0.000 N 
ATOM     12  C   UNL     1      -0.674  12.454  22.471  0.00  0.00    +0.000 A 
ATOM     13  C   UNL     1       0.507  10.637  21.252  0.00  0.00    +0.000 A 
ATOM     14  C   UNL     1       0.357  10.055  20.001  0.00  0.00    +0.000 A 
ATOM     15  N   UNL     1      -0.781  10.676  19.444  0.00  0.00    +0.000 N 
ATOM     16  C   UNL     1      -1.474  10.344  18.202  0.00  0.00    +0.000 C 
BRANCH   7  17
ATOM     17  S   UNL     1      -2.005  14.420  23.737  0.00  0.00    +0.000 S 
BRANCH  17  18
ATOM     18  C   UNL     1      -3.796  14.208  24.018  0.00  0.00    +0.000 C 
BRANCH  18  20
ATOM     19  C   UNL     1      -5.552  12.445  24.378  0.00  0.00    +0.000 C 
ATOM     20  C   UNL     1      -4.083  12.805  24.548  0.00  0.00    +0.000 C 
ENDBRANCH  18  20
ENDBRANCH  17  18
ENDBRANCH   7  17
ENDBRANCH   1  14
BRANCH   4  21
ATOM     21  C   UNL     1       3.905   6.081  17.770  0.00  0.00    +0.000 C 
ATOM     22  N   UNL     1       5.105   5.987  18.238  0.00  0.00    +0.000 NA
BRANCH  22  23
ATOM     23  N   UNL     1       5.887   5.020  17.673  0.00  0.00    +0.000 N 
ATOM     24  C   UNL     1       7.039   5.336  17.015  0.00  0.00    +0.000 C 
ATOM     25  N   UNL     1       7.406   6.542  16.751  0.00  0.00    +0.000 NA
ATOM     26  N   UNL     1       7.802   4.291  16.635  0.00  0.00    +0.000 N 
ATOM     27  H   UNL     1       5.884   4.086  18.075  0.00  0.00    +0.000 HD
ATOM     28  H   UNL     1       6.649   7.115  17.159  0.00  0.00    +0.000 HD
ATOM     29  H   UNL     1       7.293   3.540  16.188  0.00  0.00    +0.000 HD
ATOM     30  H   UNL     1       8.539   4.630  16.025  0.00  0.00    +0.000 HD
ENDBRANCH  22  23
ENDBRANCH   4  21
TORSDOF 6
ENDMDL
