MODEL 1
REMARK VINA RESULT:      -9.0      0.000      0.000
REMARK  Name = 
REMARK  6 active torsions:
REMARK  status: ('A' for Active; 'I' for Inactive)
REMARK    1  A    between atoms: C_1  and  C_2
REMARK    2  A    between atoms: C_2  and  C_3
REMARK    3  A    between atoms: C_7  and  C_8
REMARK    4  A    between atoms: C_11  and  C_12
REMARK    5  A    between atoms: C_26  and  C_27
REMARK    6  A    between atoms: C_28  and  C_29
REMARK                            x       y       z     vdW  Elec       q    Type
REMARK                         _______ _______ _______ _____ _____    ______ ____
ROOT
ATOM      1  C   UNL     1       2.615   2.536  19.495  0.00  0.00    +0.000 A 
ATOM      2  N   UNL     1       1.766   2.110  20.462  0.00  0.00    +0.000 NA
ATOM      3  C   UNL     1       1.130   3.057  21.157  0.00  0.00    +0.000 A 
ATOM      4  N   UNL     1       1.250   4.377  20.977  0.00  0.00    +0.000 NA
ATOM      5  C   UNL     1       2.097   4.793  20.000  0.00  0.00    +0.000 A 
ATOM      6  C   UNL     1       2.824   3.882  19.221  0.00  0.00    +0.000 A 
ENDROOT
BRANCH   5   7
ATOM      7  C   UNL     1       2.061   6.261  19.764  0.00  0.00    +0.000 A 
ATOM      8  C   UNL     1       1.527   7.133  20.736  0.00  0.00    +0.000 A 
ATOM      9  C   UNL     1       1.319   8.494  20.467  0.00  0.00    +0.000 A 
ATOM     10  C   UNL     1       1.631   9.007  19.208  0.00  0.00    +0.000 A 
ATOM     11  C   UNL     1       2.161   8.158  18.249  0.00  0.00    +0.000 A 
ATOM     12  F   UNL     1       2.392   8.583  16.999  0.00  0.00    +0.000 F 
ATOM     13  C   UNL     1       2.461   6.836  18.552  0.00  0.00    +0.000 A 
BRANCH  10  14
ATOM     14  C   UNL     1       1.333  10.422  18.909  0.00  0.00    +0.000 C 
ATOM     15  O   UNL     1       2.178  11.254  19.242  0.00  0.00    +0.000 OA
ATOM     16  N   UNL     1       0.148  10.771  18.269  0.00  0.00    +0.000 N 
ATOM     17  C   UNL     1      -0.126  12.188  18.010  0.00  0.00    +0.000 C 
ATOM     18  C   UNL     1      -1.544  12.582  18.439  0.00  0.00    +0.000 C 
ATOM     19  N   UNL     1      -2.494  11.523  18.195  0.00  0.00    +0.000 N 
ATOM     20  C   UNL     1      -3.839  11.543  18.358  0.00  0.00    +0.000 A 
ATOM     21  N   UNL     1      -4.319  10.345  18.109  0.00  0.00    +0.000 NA
ATOM     22  N   UNL     1      -3.260   9.523  17.782  0.00  0.00    +0.000 NA
ATOM     23  C   UNL     1      -2.162  10.246  17.840  0.00  0.00    +0.000 A 
ATOM     24  C   UNL     1      -0.759   9.839  17.578  0.00  0.00    +0.000 C 
ENDBRANCH  10  14
ENDBRANCH   5   7
BRANCH   1  26
ATOM     25  C   UNL     1       4.572   0.995  19.285  0.00  0.00    +0.000 C 
ATOM     26  C   UNL     1       3.256   1.444  18.670  0.00  0.00    +0.000 C 
ENDBRANCH   1  26
BRANCH   6  27
ATOM     27  C   UNL     1       3.713   4.275  18.157  0.00  0.00    +0.000 C 
ATOM     28  C   UNL     1       4.483   4.545  17.273  0.00  0.00    +0.000 C 
BRANCH  28  29
ATOM     29  C   UNL     1       5.442   4.826  16.249  0.00  0.00    +0.000 A 
ATOM     30  C   UNL     1       5.306   4.317  14.961  0.00  0.00    +0.000 A 
ATOM     31  C   UNL     1       6.279   4.606  14.002  0.00  0.00    +0.000 A 
ATOM     32  C   UNL     1       7.364   5.392  14.362  0.00  0.00    +0.000 A 
ATOM     33  N   UNL     1       8.342   5.720  13.428  0.00  0.00    +0.000 N 
ATOM     34  N   UNL     1       7.509   5.910  15.593  0.00  0.00    +0.000 NA
ATOM     35  C   UNL     1       6.549   5.620  16.506  0.00  0.00    +0.000 A 
ATOM     36  H   UNL     1       8.719   4.900  12.970  0.00  0.00    +0.000 HD
ATOM     37  H   UNL     1       9.059   6.246  13.922  0.00  0.00    +0.000 HD
ENDBRANCH  28  29
ENDBRANCH   6  27
TORSDOF 5
ENDMDL
MODEL 2
REMARK VINA RESULT:      -8.9      1.814      2.113
REMARK  Name = 
REMARK  6 active torsions:
REMARK  status: ('A' for Active; 'I' for Inactive)
REMARK    1  A    between atoms: C_1  and  C_2
REMARK    2  A    between atoms: C_2  and  C_3
REMARK    3  A    between atoms: C_7  and  C_8
REMARK    4  A    between atoms: C_11  and  C_12
REMARK    5  A    between atoms: C_26  and  C_27
REMARK    6  A    between atoms: C_28  and  C_29
REMARK                            x       y       z     vdW  Elec       q    Type
REMARK                         _______ _______ _______ _____ _____    ______ ____
ROOT
ATOM      1  C   UNL     1       2.711   2.567  19.516  0.00  0.00    +0.000 A 
ATOM      2  N   UNL     1       1.854   2.165  20.486  0.00  0.00    +0.000 NA
ATOM      3  C   UNL     1       1.218   3.129  21.158  0.00  0.00    +0.000 A 
ATOM      4  N   UNL     1       1.348   4.445  20.953  0.00  0.00    +0.000 NA
ATOM      5  C   UNL     1       2.202   4.836  19.973  0.00  0.00    +0.000 A 
ATOM      6  C   UNL     1       2.928   3.906  19.216  0.00  0.00    +0.000 A 
ENDROOT
BRANCH   5   7
ATOM      7  C   UNL     1       2.177   6.300  19.708  0.00  0.00    +0.000 A 
ATOM      8  C   UNL     1       1.687   7.198  20.680  0.00  0.00    +0.000 A 
ATOM      9  C   UNL     1       1.487   8.555  20.390  0.00  0.00    +0.000 A 
ATOM     10  C   UNL     1       1.761   9.039  19.110  0.00  0.00    +0.000 A 
ATOM     11  C   UNL     1       2.246   8.163  18.151  0.00  0.00    +0.000 A 
ATOM     12  F   UNL     1       2.439   8.561  16.885  0.00  0.00    +0.000 F 
ATOM     13  C   UNL     1       2.540   6.844  18.471  0.00  0.00    +0.000 A 
BRANCH  10  14
ATOM     14  C   UNL     1       1.470  10.451  18.792  0.00  0.00    +0.000 C 
ATOM     15  O   UNL     1       2.140  10.973  17.900  0.00  0.00    +0.000 OA
ATOM     16  N   UNL     1       0.470  11.135  19.477  0.00  0.00    +0.000 N 
ATOM     17  C   UNL     1       0.225  12.543  19.152  0.00  0.00    +0.000 C 
ATOM     18  C   UNL     1       0.139  13.412  20.412  0.00  0.00    +0.000 C 
ATOM     19  N   UNL     1      -0.502  12.717  21.503  0.00  0.00    +0.000 N 
ATOM     20  C   UNL     1      -0.834  13.193  22.727  0.00  0.00    +0.000 A 
ATOM     21  N   UNL     1      -1.319  12.210  23.452  0.00  0.00    +0.000 NA
ATOM     22  N   UNL     1      -1.295  11.065  22.684  0.00  0.00    +0.000 NA
ATOM     23  C   UNL     1      -0.797  11.383  21.508  0.00  0.00    +0.000 A 
ATOM     24  C   UNL     1      -0.562  10.517  20.326  0.00  0.00    +0.000 C 
ENDBRANCH  10  14
ENDBRANCH   5   7
BRANCH   1  26
ATOM     25  C   UNL     1       4.647   0.993  19.363  0.00  0.00    +0.000 C 
ATOM     26  C   UNL     1       3.350   1.455  18.716  0.00  0.00    +0.000 C 
ENDBRANCH   1  26
BRANCH   6  27
ATOM     27  C   UNL     1       3.826   4.273  18.150  0.00  0.00    +0.000 C 
ATOM     28  C   UNL     1       4.585   4.516  17.249  0.00  0.00    +0.000 C 
BRANCH  28  29
ATOM     29  C   UNL     1       5.519   4.750  16.191  0.00  0.00    +0.000 A 
ATOM     30  C   UNL     1       5.347   4.188  14.928  0.00  0.00    +0.000 A 
ATOM     31  C   UNL     1       6.296   4.433  13.934  0.00  0.00    +0.000 A 
ATOM     32  C   UNL     1       7.393   5.228  14.232  0.00  0.00    +0.000 A 
ATOM     33  N   UNL     1       8.348   5.512  13.262  0.00  0.00    +0.000 N 
ATOM     34  N   UNL     1       7.572   5.795  15.437  0.00  0.00    +0.000 NA
ATOM     35  C   UNL     1       6.635   5.548  16.386  0.00  0.00    +0.000 A 
ATOM     36  H   UNL     1       8.711   4.672  12.828  0.00  0.00    +0.000 HD
ATOM     37  H   UNL     1       9.080   6.055  13.714  0.00  0.00    +0.000 HD
ENDBRANCH  28  29
ENDBRANCH   6  27
TORSDOF 5
ENDMDL
MODEL 3
REMARK VINA RESULT:      -8.6      1.800      2.198
REMARK  Name = 
REMARK  6 active torsions:
REMARK  status: ('A' for Active; 'I' for Inactive)
REMARK    1  A    between atoms: C_1  and  C_2
REMARK    2  A    between atoms: C_2  and  C_3
REMARK    3  A    between atoms: C_7  and  C_8
REMARK    4  A    between atoms: C_11  and  C_12
REMARK    5  A    between atoms: C_26  and  C_27
REMARK    6  A    between atoms: C_28  and  C_29
REMARK                            x       y       z     vdW  Elec       q    Type
REMARK                         _______ _______ _______ _____ _____    ______ ____
ROOT
ATOM      1  C   UNL     1       3.522   2.653  20.240  0.00  0.00    +0.000 A 
ATOM      2  N   UNL     1       2.816   2.244  21.322  0.00  0.00    +0.000 NA
ATOM      3  C   UNL     1       1.993   3.142  21.872  0.00  0.00    +0.000 A 
ATOM      4  N   UNL     1       1.802   4.396  21.445  0.00  0.00    +0.000 NA
ATOM      5  C   UNL     1       2.508   4.792  20.356  0.00  0.00    +0.000 A 
ATOM      6  C   UNL     1       3.408   3.932  19.710  0.00  0.00    +0.000 A 
ENDROOT
BRANCH   5   7
ATOM      7  C   UNL     1       2.130   6.142  19.857  0.00  0.00    +0.000 A 
ATOM      8  C   UNL     1       2.217   6.452  18.483  0.00  0.00    +0.000 A 
ATOM      9  C   UNL     1       2.039   7.761  18.013  0.00  0.00    +0.000 A 
ATOM     10  C   UNL     1       1.783   8.793  18.916  0.00  0.00    +0.000 A 
ATOM     11  C   UNL     1       1.691   8.496  20.267  0.00  0.00    +0.000 A 
ATOM     12  F   UNL     1       1.536   9.466  21.180  0.00  0.00    +0.000 F 
ATOM     13  C   UNL     1       1.766   7.184  20.718  0.00  0.00    +0.000 A 
BRANCH  10  14
ATOM     14  C   UNL     1       1.677  10.179  18.420  0.00  0.00    +0.000 C 
ATOM     15  O   UNL     1       2.514  10.542  17.591  0.00  0.00    +0.000 OA
ATOM     16  N   UNL     1       0.662  11.015  18.875  0.00  0.00    +0.000 N 
ATOM     17  C   UNL     1       0.602  12.393  18.378  0.00  0.00    +0.000 C 
ATOM     18  C   UNL     1       0.425  13.402  19.517  0.00  0.00    +0.000 C 
ATOM     19  N   UNL     1      -0.428  12.889  20.563  0.00  0.00    +0.000 N 
ATOM     20  C   UNL     1      -0.882  13.525  21.670  0.00  0.00    +0.000 A 
ATOM     21  N   UNL     1      -1.557  12.673  22.409  0.00  0.00    +0.000 NA
ATOM     22  N   UNL     1      -1.536  11.449  21.770  0.00  0.00    +0.000 NA
ATOM     23  C   UNL     1      -0.849  11.592  20.657  0.00  0.00    +0.000 A 
ATOM     24  C   UNL     1      -0.534  10.582  19.616  0.00  0.00    +0.000 C 
ENDBRANCH  10  14
ENDBRANCH   5   7
BRANCH   1  26
ATOM     25  C   UNL     1       3.740   1.090  18.302  0.00  0.00    +0.000 C 
ATOM     26  C   UNL     1       4.378   1.592  19.588  0.00  0.00    +0.000 C 
ENDBRANCH   1  26
BRANCH   6  27
ATOM     27  C   UNL     1       4.159   4.300  18.536  0.00  0.00    +0.000 C 
ATOM     28  C   UNL     1       4.809   4.546  17.555  0.00  0.00    +0.000 C 
BRANCH  28  29
ATOM     29  C   UNL     1       5.627   4.795  16.407  0.00  0.00    +0.000 A 
ATOM     30  C   UNL     1       5.310   4.269  15.157  0.00  0.00    +0.000 A 
ATOM     31  C   UNL     1       6.149   4.527  14.071  0.00  0.00    +0.000 A 
ATOM     32  C   UNL     1       7.285   5.299  14.268  0.00  0.00    +0.000 A 
ATOM     33  N   UNL     1       8.133   5.595  13.207  0.00  0.00    +0.000 N 
ATOM     34  N   UNL     1       7.603   5.832  15.460  0.00  0.00    +0.000 NA
ATOM     35  C   UNL     1       6.771   5.572  16.499  0.00  0.00    +0.000 A 
ATOM     36  H   UNL     1       8.432   4.762  12.715  0.00  0.00    +0.000 HD
ATOM     37  H   UNL     1       8.918   6.116  13.590  0.00  0.00    +0.000 HD
ENDBRANCH  28  29
ENDBRANCH   6  27
TORSDOF 5
ENDMDL
MODEL 4
REMARK VINA RESULT:      -8.0      3.831      8.918
REMARK  Name = 
REMARK  6 active torsions:
REMARK  status: ('A' for Active; 'I' for Inactive)
REMARK    1  A    between atoms: C_1  and  C_2
REMARK    2  A    between atoms: C_2  and  C_3
REMARK    3  A    between atoms: C_7  and  C_8
REMARK    4  A    between atoms: C_11  and  C_12
REMARK    5  A    between atoms: C_26  and  C_27
REMARK    6  A    between atoms: C_28  and  C_29
REMARK                            x       y       z     vdW  Elec       q    Type
REMARK                         _______ _______ _______ _____ _____    ______ ____
ROOT
ATOM      1  C   UNL     1      -0.905  13.825  22.799  0.00  0.00    +0.000 A 
ATOM      2  N   UNL     1      -1.966  13.391  23.522  0.00  0.00    +0.000 NA
ATOM      3  C   UNL     1      -2.369  12.137  23.296  0.00  0.00    +0.000 A 
ATOM      4  N   UNL     1      -1.816  11.279  22.431  0.00  0.00    +0.000 NA
ATOM      5  C   UNL     1      -0.749  11.722  21.718  0.00  0.00    +0.000 A 
ATOM      6  C   UNL     1      -0.253  13.024  21.870  0.00  0.00    +0.000 A 
ENDROOT
BRANCH   5   7
ATOM      7  C   UNL     1      -0.102  10.666  20.894  0.00  0.00    +0.000 A 
ATOM      8  C   UNL     1       0.954   9.891  21.418  0.00  0.00    +0.000 A 
ATOM      9  C   UNL     1       1.695   9.018  20.608  0.00  0.00    +0.000 A 
ATOM     10  C   UNL     1       1.401   8.914  19.249  0.00  0.00    +0.000 A 
ATOM     11  C   UNL     1       0.361   9.669  18.727  0.00  0.00    +0.000 A 
ATOM     12  F   UNL     1       0.099   9.671  17.412  0.00  0.00    +0.000 F 
ATOM     13  C   UNL     1      -0.436  10.454  19.551  0.00  0.00    +0.000 A 
BRANCH  10  14
ATOM     14  C   UNL     1       2.239   8.053  18.390  0.00  0.00    +0.000 C 
ATOM     15  O   UNL     1       2.694   8.561  17.365  0.00  0.00    +0.000 OA
ATOM     16  N   UNL     1       2.497   6.735  18.753  0.00  0.00    +0.000 N 
ATOM     17  C   UNL     1       3.313   5.902  17.864  0.00  0.00    +0.000 C 
ATOM     18  C   UNL     1       2.666   4.536  17.611  0.00  0.00    +0.000 C 
ATOM     19  N   UNL     1       1.990   4.034  18.783  0.00  0.00    +0.000 N 
ATOM     20  C   UNL     1       1.392   2.832  18.962  0.00  0.00    +0.000 A 
ATOM     21  N   UNL     1       0.817   2.810  20.144  0.00  0.00    +0.000 NA
ATOM     22  N   UNL     1       1.041   4.031  20.747  0.00  0.00    +0.000 NA
ATOM     23  C   UNL     1       1.749   4.763  19.914  0.00  0.00    +0.000 A 
ATOM     24  C   UNL     1       2.251   6.150  20.082  0.00  0.00    +0.000 C 
ENDBRANCH  10  14
ENDBRANCH   5   7
BRANCH   1  26
ATOM     25  C   UNL     1      -1.296  16.274  22.487  0.00  0.00    +0.000 C 
ATOM     26  C   UNL     1      -0.418  15.215  23.137  0.00  0.00    +0.000 C 
ENDBRANCH   1  26
BRANCH   6  27
ATOM     27  C   UNL     1       0.892  13.529  21.155  0.00  0.00    +0.000 C 
ATOM     28  C   UNL     1       1.884  13.903  20.586  0.00  0.00    +0.000 C 
BRANCH  28  29
ATOM     29  C   UNL     1       3.099  14.326  19.960  0.00  0.00    +0.000 A 
ATOM     30  C   UNL     1       3.242  14.334  18.575  0.00  0.00    +0.000 A 
ATOM     31  C   UNL     1       4.454  14.740  18.013  0.00  0.00    +0.000 A 
ATOM     32  C   UNL     1       5.490  15.121  18.853  0.00  0.00    +0.000 A 
ATOM     33  N   UNL     1       6.705  15.552  18.330  0.00  0.00    +0.000 N 
ATOM     34  N   UNL     1       5.371  15.138  20.192  0.00  0.00    +0.000 NA
ATOM     35  C   UNL     1       4.184  14.745  20.715  0.00  0.00    +0.000 A 
ATOM     36  H   UNL     1       7.095  14.885  17.675  0.00  0.00    +0.000 HD
ATOM     37  H   UNL     1       7.325  15.721  19.118  0.00  0.00    +0.000 HD
ENDBRANCH  28  29
ENDBRANCH   6  27
TORSDOF 5
ENDMDL
MODEL 5
REMARK VINA RESULT:      -8.0      2.820      8.931
REMARK  Name = 
REMARK  6 active torsions:
REMARK  status: ('A' for Active; 'I' for Inactive)
REMARK    1  A    between atoms: C_1  and  C_2
REMARK    2  A    between atoms: C_2  and  C_3
REMARK    3  A    between atoms: C_7  and  C_8
REMARK    4  A    between atoms: C_11  and  C_12
REMARK    5  A    between atoms: C_26  and  C_27
REMARK    6  A    between atoms: C_28  and  C_29
REMARK                            x       y       z     vdW  Elec       q    Type
REMARK                         _______ _______ _______ _____ _____    ______ ____
ROOT
ATOM      1  C   UNL     1      -2.257  12.533  21.270  0.00  0.00    +0.000 A 
ATOM      2  N   UNL     1      -1.837  12.816  22.527  0.00  0.00    +0.000 NA
ATOM      3  C   UNL     1      -0.838  12.068  23.005  0.00  0.00    +0.000 A 
ATOM      4  N   UNL     1      -0.216  11.079  22.352  0.00  0.00    +0.000 NA
ATOM      5  C   UNL     1      -0.639  10.810  21.091  0.00  0.00    +0.000 A 
ATOM      6  C   UNL     1      -1.689  11.526  20.498  0.00  0.00    +0.000 A 
ENDROOT
BRANCH   5   7
ATOM      7  C   UNL     1       0.197   9.804  20.383  0.00  0.00    +0.000 A 
ATOM      8  C   UNL     1       0.765   8.719  21.084  0.00  0.00    +0.000 A 
ATOM      9  C   UNL     1       1.697   7.862  20.481  0.00  0.00    +0.000 A 
ATOM     10  C   UNL     1       2.091   8.084  19.161  0.00  0.00    +0.000 A 
ATOM     11  C   UNL     1       1.534   9.146  18.464  0.00  0.00    +0.000 A 
ATOM     12  F   UNL     1       1.947   9.453  17.226  0.00  0.00    +0.000 F 
ATOM     13  C   UNL     1       0.537   9.929  19.031  0.00  0.00    +0.000 A 
BRANCH  10  14
ATOM     14  C   UNL     1       3.132   7.226  18.563  0.00  0.00    +0.000 C 
ATOM     15  O   UNL     1       3.957   7.775  17.831  0.00  0.00    +0.000 OA
ATOM     16  N   UNL     1       3.164   5.862  18.838  0.00  0.00    +0.000 N 
ATOM     17  C   UNL     1       4.198   5.036  18.207  0.00  0.00    +0.000 C 
ATOM     18  C   UNL     1       3.610   3.766  17.584  0.00  0.00    +0.000 C 
ATOM     19  N   UNL     1       2.526   3.230  18.373  0.00  0.00    +0.000 N 
ATOM     20  C   UNL     1       1.836   2.080  18.188  0.00  0.00    +0.000 A 
ATOM     21  N   UNL     1       0.871   2.010  19.078  0.00  0.00    +0.000 NA
ATOM     22  N   UNL     1       0.931   3.146  19.858  0.00  0.00    +0.000 NA
ATOM     23  C   UNL     1       1.934   3.877  19.421  0.00  0.00    +0.000 A 
ATOM     24  C   UNL     1       2.420   5.190  19.916  0.00  0.00    +0.000 C 
ENDBRANCH  10  14
ENDBRANCH   5   7
BRANCH   1  26
ATOM     25  C   UNL     1      -4.687  13.117  21.323  0.00  0.00    +0.000 C 
ATOM     26  C   UNL     1      -3.328  13.448  20.724  0.00  0.00    +0.000 C 
ENDBRANCH   1  26
BRANCH   6  27
ATOM     27  C   UNL     1      -2.153  11.294  19.154  0.00  0.00    +0.000 C 
ATOM     28  C   UNL     1      -2.502  11.047  18.030  0.00  0.00    +0.000 C 
BRANCH  28  29
ATOM     29  C   UNL     1      -2.858  10.727  16.681  0.00  0.00    +0.000 A 
ATOM     30  C   UNL     1      -2.191   9.737  15.965  0.00  0.00    +0.000 A 
ATOM     31  C   UNL     1      -2.565   9.474  14.646  0.00  0.00    +0.000 A 
ATOM     32  C   UNL     1      -3.594  10.212  14.079  0.00  0.00    +0.000 A 
ATOM     33  N   UNL     1      -4.010   9.964  12.775  0.00  0.00    +0.000 N 
ATOM     34  N   UNL     1      -4.265  11.160  14.755  0.00  0.00    +0.000 NA
ATOM     35  C   UNL     1      -3.887  11.395  16.036  0.00  0.00    +0.000 A 
ATOM     36  H   UNL     1      -3.239   9.992  12.119  0.00  0.00    +0.000 HD
ATOM     37  H   UNL     1      -4.725  10.653  12.555  0.00  0.00    +0.000 HD
ENDBRANCH  28  29
ENDBRANCH   6  27
TORSDOF 5
ENDMDL
MODEL 6
REMARK VINA RESULT:      -7.8      3.336      4.867
REMARK  Name = 
REMARK  6 active torsions:
REMARK  status: ('A' for Active; 'I' for Inactive)
REMARK    1  A    between atoms: C_1  and  C_2
REMARK    2  A    between atoms: C_2  and  C_3
REMARK    3  A    between atoms: C_7  and  C_8
REMARK    4  A    between atoms: C_11  and  C_12
REMARK    5  A    between atoms: C_26  and  C_27
REMARK    6  A    between atoms: C_28  and  C_29
REMARK                            x       y       z     vdW  Elec       q    Type
REMARK                         _______ _______ _______ _____ _____    ______ ____
ROOT
ATOM      1  C   UNL     1       5.713   4.804  16.652  0.00  0.00    +0.000 A 
ATOM      2  N   UNL     1       4.962   3.696  16.440  0.00  0.00    +0.000 NA
ATOM      3  C   UNL     1       3.716   3.719  16.920  0.00  0.00    +0.000 A 
ATOM      4  N   UNL     1       3.147   4.735  17.580  0.00  0.00    +0.000 NA
ATOM      5  C   UNL     1       3.906   5.843  17.780  0.00  0.00    +0.000 A 
ATOM      6  C   UNL     1       5.231   5.919  17.327  0.00  0.00    +0.000 A 
ENDROOT
BRANCH   5   7
ATOM      7  C   UNL     1       3.157   6.978  18.384  0.00  0.00    +0.000 A 
ATOM      8  C   UNL     1       2.687   6.903  19.713  0.00  0.00    +0.000 A 
ATOM      9  C   UNL     1       1.831   7.877  20.244  0.00  0.00    +0.000 A 
ATOM     10  C   UNL     1       1.416   8.945  19.448  0.00  0.00    +0.000 A 
ATOM     11  C   UNL     1       1.877   9.028  18.143  0.00  0.00    +0.000 A 
ATOM     12  F   UNL     1       1.436   9.984  17.313  0.00  0.00    +0.000 F 
ATOM     13  C   UNL     1       2.805   8.118  17.653  0.00  0.00    +0.000 A 
BRANCH  10  14
ATOM     14  C   UNL     1       0.451   9.921  19.992  0.00  0.00    +0.000 C 
ATOM     15  O   UNL     1      -0.658   9.492  20.314  0.00  0.00    +0.000 OA
ATOM     16  N   UNL     1       0.807  11.259  20.134  0.00  0.00    +0.000 N 
ATOM     17  C   UNL     1      -0.185  12.204  20.655  0.00  0.00    +0.000 C 
ATOM     18  C   UNL     1      -0.269  13.471  19.797  0.00  0.00    +0.000 C 
ATOM     19  N   UNL     1       1.023  13.864  19.287  0.00  0.00    +0.000 N 
ATOM     20  C   UNL     1       1.349  14.970  18.577  0.00  0.00    +0.000 A 
ATOM     21  N   UNL     1       2.616  14.901  18.232  0.00  0.00    +0.000 NA
ATOM     22  N   UNL     1       3.125  13.717  18.723  0.00  0.00    +0.000 NA
ATOM     23  C   UNL     1       2.152  13.097  19.357  0.00  0.00    +0.000 A 
ATOM     24  C   UNL     1       2.178  11.791  20.062  0.00  0.00    +0.000 C 
ENDBRANCH  10  14
ENDBRANCH   5   7
BRANCH   1  26
ATOM     25  C   UNL     1       6.995   4.839  14.506  0.00  0.00    +0.000 C 
ATOM     26  C   UNL     1       7.087   4.784  16.024  0.00  0.00    +0.000 C 
ENDBRANCH   1  26
BRANCH   6  27
ATOM     27  C   UNL     1       6.064   7.083  17.492  0.00  0.00    +0.000 C 
ATOM     28  C   UNL     1       6.797   8.019  17.670  0.00  0.00    +0.000 C 
BRANCH  28  29
ATOM     29  C   UNL     1       7.683   9.110  17.942  0.00  0.00    +0.000 A 
ATOM     30  C   UNL     1       8.759   8.976  18.815  0.00  0.00    +0.000 A 
ATOM     31  C   UNL     1       9.585  10.076  19.060  0.00  0.00    +0.000 A 
ATOM     32  C   UNL     1       9.306  11.279  18.428  0.00  0.00    +0.000 A 
ATOM     33  N   UNL     1      10.119  12.390  18.629  0.00  0.00    +0.000 N 
ATOM     34  N   UNL     1       8.285  11.428  17.568  0.00  0.00    +0.000 NA
ATOM     35  C   UNL     1       7.500  10.346  17.342  0.00  0.00    +0.000 A 
ATOM     36  H   UNL     1      10.236  12.601  19.613  0.00  0.00    +0.000 HD
ATOM     37  H   UNL     1       9.697  13.163  18.120  0.00  0.00    +0.000 HD
ENDBRANCH  28  29
ENDBRANCH   6  27
TORSDOF 5
ENDMDL
MODEL 7
REMARK VINA RESULT:      -7.6      1.964      3.091
REMARK  Name = 
REMARK  6 active torsions:
REMARK  status: ('A' for Active; 'I' for Inactive)
REMARK    1  A    between atoms: C_1  and  C_2
REMARK    2  A    between atoms: C_2  and  C_3
REMARK    3  A    between atoms: C_7  and  C_8
REMARK    4  A    between atoms: C_11  and  C_12
REMARK    5  A    between atoms: C_26  and  C_27
REMARK    6  A    between atoms: C_28  and  C_29
REMARK                            x       y       z     vdW  Elec       q    Type
REMARK                         _______ _______ _______ _____ _____    ______ ____
ROOT
ATOM      1  C   UNL     1       3.511   2.909  20.358  0.00  0.00    +0.000 A 
ATOM      2  N   UNL     1       2.787   2.517  21.435  0.00  0.00    +0.000 NA
ATOM      3  C   UNL     1       2.004   3.442  21.997  0.00  0.00    +0.000 A 
ATOM      4  N   UNL     1       1.868   4.709  21.588  0.00  0.00    +0.000 NA
ATOM      5  C   UNL     1       2.591   5.089  20.504  0.00  0.00    +0.000 A 
ATOM      6  C   UNL     1       3.453   4.199  19.846  0.00  0.00    +0.000 A 
ENDROOT
BRANCH   5   7
ATOM      7  C   UNL     1       2.272   6.460  20.024  0.00  0.00    +0.000 A 
ATOM      8  C   UNL     1       1.433   7.309  20.777  0.00  0.00    +0.000 A 
ATOM      9  C   UNL     1       0.975   8.531  20.266  0.00  0.00    +0.000 A 
ATOM     10  C   UNL     1       1.339   8.924  18.977  0.00  0.00    +0.000 A 
ATOM     11  C   UNL     1       2.167   8.098  18.232  0.00  0.00    +0.000 A 
ATOM     12  F   UNL     1       2.471   8.388  16.959  0.00  0.00    +0.000 F 
ATOM     13  C   UNL     1       2.701   6.938  18.780  0.00  0.00    +0.000 A 
BRANCH  10  14
ATOM     14  C   UNL     1       0.787  10.173  18.418  0.00  0.00    +0.000 C 
ATOM     15  O   UNL     1       0.176  10.087  17.352  0.00  0.00    +0.000 OA
ATOM     16  N   UNL     1       0.953  11.380  19.092  0.00  0.00    +0.000 N 
ATOM     17  C   UNL     1       0.412  12.605  18.495  0.00  0.00    +0.000 C 
ATOM     18  C   UNL     1       1.440  13.741  18.496  0.00  0.00    +0.000 C 
ATOM     19  N   UNL     1       2.263  13.722  19.682  0.00  0.00    +0.000 N 
ATOM     20  C   UNL     1       3.204  14.616  20.070  0.00  0.00    +0.000 A 
ATOM     21  N   UNL     1       3.783  14.181  21.167  0.00  0.00    +0.000 NA
ATOM     22  N   UNL     1       3.209  12.970  21.497  0.00  0.00    +0.000 NA
ATOM     23  C   UNL     1       2.293  12.702  20.591  0.00  0.00    +0.000 A 
ATOM     24  C   UNL     1       1.394  11.526  20.489  0.00  0.00    +0.000 C 
ENDBRANCH  10  14
ENDBRANCH   5   7
BRANCH   1  26
ATOM     25  C   UNL     1       3.621   1.310  18.440  0.00  0.00    +0.000 C 
ATOM     26  C   UNL     1       4.320   1.821  19.691  0.00  0.00    +0.000 C 
ENDBRANCH   1  26
BRANCH   6  27
ATOM     27  C   UNL     1       4.219   4.550  18.677  0.00  0.00    +0.000 C 
ATOM     28  C   UNL     1       4.862   4.779  17.687  0.00  0.00    +0.000 C 
BRANCH  28  29
ATOM     29  C   UNL     1       5.657   4.994  16.516  0.00  0.00    +0.000 A 
ATOM     30  C   UNL     1       5.306   4.447  15.285  0.00  0.00    +0.000 A 
ATOM     31  C   UNL     1       6.124   4.672  14.176  0.00  0.00    +0.000 A 
ATOM     32  C   UNL     1       7.273   5.433  14.332  0.00  0.00    +0.000 A 
ATOM     33  N   UNL     1       8.101   5.698  13.246  0.00  0.00    +0.000 N 
ATOM     34  N   UNL     1       7.624   5.987  15.505  0.00  0.00    +0.000 NA
ATOM     35  C   UNL     1       6.812   5.759  16.567  0.00  0.00    +0.000 A 
ATOM     36  H   UNL     1       8.379   4.851  12.765  0.00  0.00    +0.000 HD
ATOM     37  H   UNL     1       8.901   6.216  13.601  0.00  0.00    +0.000 HD
ENDBRANCH  28  29
ENDBRANCH   6  27
TORSDOF 5
ENDMDL
MODEL 8
REMARK VINA RESULT:      -7.5      7.580     10.503
REMARK  Name = 
REMARK  6 active torsions:
REMARK  status: ('A' for Active; 'I' for Inactive)
REMARK    1  A    between atoms: C_1  and  C_2
REMARK    2  A    between atoms: C_2  and  C_3
REMARK    3  A    between atoms: C_7  and  C_8
REMARK    4  A    between atoms: C_11  and  C_12
REMARK    5  A    between atoms: C_26  and  C_27
REMARK    6  A    between atoms: C_28  and  C_29
REMARK                            x       y       z     vdW  Elec       q    Type
REMARK                         _______ _______ _______ _____ _____    ______ ____
ROOT
ATOM      1  C   UNL     1      -2.864  13.293  22.926  0.00  0.00    +0.000 A 
ATOM      2  N   UNL     1      -2.625  13.933  24.097  0.00  0.00    +0.000 NA
ATOM      3  C   UNL     1      -1.444  14.548  24.210  0.00  0.00    +0.000 A 
ATOM      4  N   UNL     1      -0.490  14.594  23.273  0.00  0.00    +0.000 NA
ATOM      5  C   UNL     1      -0.743  13.956  22.102  0.00  0.00    +0.000 A 
ATOM      6  C   UNL     1      -1.946  13.269  21.883  0.00  0.00    +0.000 A 
ENDROOT
BRANCH   5   7
ATOM      7  C   UNL     1       0.299  14.179  21.063  0.00  0.00    +0.000 A 
ATOM      8  C   UNL     1       1.297  13.210  20.826  0.00  0.00    +0.000 A 
ATOM      9  C   UNL     1       2.387  13.471  19.984  0.00  0.00    +0.000 A 
ATOM     10  C   UNL     1       2.508  14.719  19.371  0.00  0.00    +0.000 A 
ATOM     11  C   UNL     1       1.529  15.675  19.596  0.00  0.00    +0.000 A 
ATOM     12  F   UNL     1       1.647  16.916  19.102  0.00  0.00    +0.000 F 
ATOM     13  C   UNL     1       0.399  15.378  20.347  0.00  0.00    +0.000 A 
BRANCH  10  14
ATOM     14  C   UNL     1       3.701  15.010  18.552  0.00  0.00    +0.000 C 
ATOM     15  O   UNL     1       3.549  15.031  17.330  0.00  0.00    +0.000 OA
ATOM     16  N   UNL     1       4.928  15.258  19.159  0.00  0.00    +0.000 N 
ATOM     17  C   UNL     1       6.097  15.520  18.314  0.00  0.00    +0.000 C 
ATOM     18  C   UNL     1       7.309  14.686  18.744  0.00  0.00    +0.000 C 
ATOM     19  N   UNL     1       7.375  14.531  20.178  0.00  0.00    +0.000 N 
ATOM     20  C   UNL     1       8.345  13.945  20.919  0.00  0.00    +0.000 A 
ATOM     21  N   UNL     1       7.975  13.935  22.180  0.00  0.00    +0.000 NA
ATOM     22  N   UNL     1       6.730  14.524  22.261  0.00  0.00    +0.000 NA
ATOM     23  C   UNL     1       6.377  14.878  21.044  0.00  0.00    +0.000 A 
ATOM     24  C   UNL     1       5.132  15.547  20.589  0.00  0.00    +0.000 C 
ENDBRANCH  10  14
ENDBRANCH   5   7
BRANCH   1  26
ATOM     25  C   UNL     1      -5.245  13.398  23.678  0.00  0.00    +0.000 C 
ATOM     26  C   UNL     1      -4.239  12.679  22.793  0.00  0.00    +0.000 C 
ENDBRANCH   1  26
BRANCH   6  27
ATOM     27  C   UNL     1      -2.269  12.602  20.648  0.00  0.00    +0.000 C 
ATOM     28  C   UNL     1      -2.534  12.102  19.586  0.00  0.00    +0.000 C 
BRANCH  28  29
ATOM     29  C   UNL     1      -2.877  11.564  18.305  0.00  0.00    +0.000 A 
ATOM     30  C   UNL     1      -1.959  10.843  17.547  0.00  0.00    +0.000 A 
ATOM     31  C   UNL     1      -2.337  10.354  16.295  0.00  0.00    +0.000 A 
ATOM     32  C   UNL     1      -3.621  10.605  15.835  0.00  0.00    +0.000 A 
ATOM     33  N   UNL     1      -4.042  10.115  14.603  0.00  0.00    +0.000 N 
ATOM     34  N   UNL     1      -4.531  11.283  16.555  0.00  0.00    +0.000 NA
ATOM     35  C   UNL     1      -4.143  11.744  17.770  0.00  0.00    +0.000 A 
ATOM     36  H   UNL     1      -3.411  10.377  13.855  0.00  0.00    +0.000 HD
ATOM     37  H   UNL     1      -4.984  10.466  14.449  0.00  0.00    +0.000 HD
ENDBRANCH  28  29
ENDBRANCH   6  27
TORSDOF 5
ENDMDL
MODEL 9
REMARK VINA RESULT:      -7.5      4.907      8.395
REMARK  Name = 
REMARK  6 active torsions:
REMARK  status: ('A' for Active; 'I' for Inactive)
REMARK    1  A    between atoms: C_1  and  C_2
REMARK    2  A    between atoms: C_2  and  C_3
REMARK    3  A    between atoms: C_7  and  C_8
REMARK    4  A    between atoms: C_11  and  C_12
REMARK    5  A    between atoms: C_26  and  C_27
REMARK    6  A    between atoms: C_28  and  C_29
REMARK                            x       y       z     vdW  Elec       q    Type
REMARK                         _______ _______ _______ _____ _____    ______ ____
ROOT
ATOM      1  C   UNL     1      -1.870  10.957  18.736  0.00  0.00    +0.000 A 
ATOM      2  N   UNL     1      -2.857  11.880  18.838  0.00  0.00    +0.000 NA
ATOM      3  C   UNL     1      -2.509  13.076  19.322  0.00  0.00    +0.000 A 
ATOM      4  N   UNL     1      -1.279  13.440  19.704  0.00  0.00    +0.000 NA
ATOM      5  C   UNL     1      -0.297  12.511  19.590  0.00  0.00    +0.000 A 
ATOM      6  C   UNL     1      -0.557  11.221  19.105  0.00  0.00    +0.000 A 
ENDROOT
BRANCH   5   7
ATOM      7  C   UNL     1       1.061  13.038  19.893  0.00  0.00    +0.000 A 
ATOM      8  C   UNL     1       1.337  13.646  21.136  0.00  0.00    +0.000 A 
ATOM      9  C   UNL     1       2.550  14.307  21.377  0.00  0.00    +0.000 A 
ATOM     10  C   UNL     1       3.510  14.383  20.368  0.00  0.00    +0.000 A 
ATOM     11  C   UNL     1       3.250  13.784  19.145  0.00  0.00    +0.000 A 
ATOM     12  F   UNL     1       4.102  13.907  18.118  0.00  0.00    +0.000 F 
ATOM     13  C   UNL     1       2.091  13.043  18.945  0.00  0.00    +0.000 A 
BRANCH  10  14
ATOM     14  C   UNL     1       4.749  15.150  20.606  0.00  0.00    +0.000 C 
ATOM     15  O   UNL     1       4.933  16.147  19.906  0.00  0.00    +0.000 OA
ATOM     16  N   UNL     1       5.648  14.749  21.590  0.00  0.00    +0.000 N 
ATOM     17  C   UNL     1       6.879  15.520  21.782  0.00  0.00    +0.000 C 
ATOM     18  C   UNL     1       8.113  14.615  21.853  0.00  0.00    +0.000 C 
ATOM     19  N   UNL     1       7.831  13.372  22.533  0.00  0.00    +0.000 N 
ATOM     20  C   UNL     1       8.689  12.378  22.864  0.00  0.00    +0.000 A 
ATOM     21  N   UNL     1       8.011  11.384  23.393  0.00  0.00    +0.000 NA
ATOM     22  N   UNL     1       6.677  11.737  23.399  0.00  0.00    +0.000 NA
ATOM     23  C   UNL     1       6.580  12.940  22.875  0.00  0.00    +0.000 A 
ATOM     24  C   UNL     1       5.370  13.770  22.654  0.00  0.00    +0.000 C 
ENDBRANCH  10  14
ENDBRANCH   5   7
BRANCH   1  26
ATOM     25  C   UNL     1      -2.760   9.851  16.679  0.00  0.00    +0.000 C 
ATOM     26  C   UNL     1      -2.274   9.645  18.106  0.00  0.00    +0.000 C 
ENDBRANCH   1  26
BRANCH   6  27
ATOM     27  C   UNL     1       0.459  10.211  18.942  0.00  0.00    +0.000 C 
ATOM     28  C   UNL     1       1.259   9.324  18.804  0.00  0.00    +0.000 C 
BRANCH  28  29
ATOM     29  C   UNL     1       2.169   8.228  18.670  0.00  0.00    +0.000 A 
ATOM     30  C   UNL     1       3.023   8.117  17.576  0.00  0.00    +0.000 A 
ATOM     31  C   UNL     1       3.881   7.019  17.484  0.00  0.00    +0.000 A 
ATOM     32  C   UNL     1       3.857   6.061  18.487  0.00  0.00    +0.000 A 
ATOM     33  N   UNL     1       4.712   4.965  18.441  0.00  0.00    +0.000 N 
ATOM     34  N   UNL     1       3.055   6.154  19.561  0.00  0.00    +0.000 NA
ATOM     35  C   UNL     1       2.234   7.231  19.632  0.00  0.00    +0.000 A 
ATOM     36  H   UNL     1       4.643   4.466  17.563  0.00  0.00    +0.000 HD
ATOM     37  H   UNL     1       4.481   4.374  19.236  0.00  0.00    +0.000 HD
ENDBRANCH  28  29
ENDBRANCH   6  27
TORSDOF 5
ENDMDL
