MODEL 1
REMARK VINA RESULT:      -8.0      0.000      0.000
REMARK  Name = 
REMARK  4 active torsions:
REMARK  status: ('A' for Active; 'I' for Inactive)
REMARK    1  A    between atoms: C_1  and  N_2
REMARK    2  A    between atoms: C_11  and  C_13
REMARK    3  A    between atoms: C_15  and  C_16
REMARK    4  A    between atoms: C_21  and  C_22
REMARK                            x       y       z     vdW  Elec       q    Type
REMARK                         _______ _______ _______ _____ _____    ______ ____
ROOT
ATOM      1  C   UNL     1       4.876   3.631  17.083  0.00  0.00    +0.000 C 
ATOM      2  N   UNL     1       4.294   3.727  18.421  0.00  0.00    +0.000 NA
ATOM      3  C   UNL     1       4.680   4.965  19.099  0.00  0.00    +0.000 C 
ATOM      4  C   UNL     1       3.978   6.205  18.547  0.00  0.00    +0.000 C 
ATOM      5  C   UNL     1       2.434   6.081  18.553  0.00  0.00    +0.000 C 
ATOM      6  C   UNL     1       2.059   4.752  17.852  0.00  0.00    +0.000 C 
ATOM      7  C   UNL     1       2.837   3.549  18.407  0.00  0.00    +0.000 C 
ATOM      8  C   UNL     1       1.846   6.097  19.993  0.00  0.00    +0.000 C 
ATOM      9  C   UNL     1       2.007   7.445  20.697  0.00  0.00    +0.000 C 
ATOM     10  N   UNL     1       1.476   8.524  19.869  0.00  0.00    +0.000 N 
ATOM     11  C   UNL     1       0.664   9.482  20.483  0.00  0.00    +0.000 C 
ATOM     12  O   UNL     1       0.442   9.494  21.693  0.00  0.00    +0.000 OA
ATOM     13  C   UNL     1       2.065   8.596  18.526  0.00  0.00    +0.000 C 
ATOM     14  C   UNL     1       1.822   7.280  17.784  0.00  0.00    +0.000 C 
ENDROOT
BRANCH  11  15
ATOM     15  C   UNL     1       0.025  10.552  19.676  0.00  0.00    +0.000 A 
ATOM     16  C   UNL     1      -1.146  10.324  18.947  0.00  0.00    +0.000 A 
ATOM     17  C   UNL     1      -1.631  11.285  18.055  0.00  0.00    +0.000 A 
ATOM     18  C   UNL     1      -1.038  12.557  18.045  0.00  0.00    +0.000 A 
ATOM     19  C   UNL     1       0.057  12.852  18.875  0.00  0.00    +0.000 A 
ATOM     20  C   UNL     1       0.599  11.830  19.669  0.00  0.00    +0.000 A 
BRANCH  17  21
ATOM     21  C   UNL     1      -2.728  10.928  17.082  0.00  0.00    +0.000 C 
ATOM     22  F   UNL     1      -3.115   9.623  17.165  0.00  0.00    +0.000 F 
ATOM     23  F   UNL     1      -3.852  11.670  17.251  0.00  0.00    +0.000 F 
ATOM     24  F   UNL     1      -2.340  11.109  15.788  0.00  0.00    +0.000 F 
ENDBRANCH  17  21
BRANCH  19  25
ATOM     25  C   UNL     1       0.662  14.236  18.915  0.00  0.00    +0.000 C 
ATOM     26  F   UNL     1       1.020  14.630  20.170  0.00  0.00    +0.000 F 
ATOM     27  F   UNL     1       1.788  14.334  18.158  0.00  0.00    +0.000 F 
ATOM     28  F   UNL     1      -0.190  15.191  18.453  0.00  0.00    +0.000 F 
ENDBRANCH  19  25
ENDBRANCH  11  15
TORSDOF 3
ENDMDL
MODEL 2
REMARK VINA RESULT:      -8.0      0.306      1.102
REMARK  Name = 
REMARK  4 active torsions:
REMARK  status: ('A' for Active; 'I' for Inactive)
REMARK    1  A    between atoms: C_1  and  N_2
REMARK    2  A    between atoms: C_11  and  C_13
REMARK    3  A    between atoms: C_15  and  C_16
REMARK    4  A    between atoms: C_21  and  C_22
REMARK                            x       y       z     vdW  Elec       q    Type
REMARK                         _______ _______ _______ _____ _____    ______ ____
ROOT
ATOM      1  C   UNL     1       5.046   3.770  16.827  0.00  0.00    +0.000 C 
ATOM      2  N   UNL     1       4.490   3.834  18.178  0.00  0.00    +0.000 NA
ATOM      3  C   UNL     1       4.837   5.085  18.855  0.00  0.00    +0.000 C 
ATOM      4  C   UNL     1       4.071   6.296  18.326  0.00  0.00    +0.000 C 
ATOM      5  C   UNL     1       2.534   6.106  18.366  0.00  0.00    +0.000 C 
ATOM      6  C   UNL     1       2.201   4.766  17.665  0.00  0.00    +0.000 C 
ATOM      7  C   UNL     1       3.042   3.595  18.196  0.00  0.00    +0.000 C 
ATOM      8  C   UNL     1       1.979   6.090  19.818  0.00  0.00    +0.000 C 
ATOM      9  C   UNL     1       2.097   7.440  20.526  0.00  0.00    +0.000 C 
ATOM     10  N   UNL     1       1.503   8.500  19.717  0.00  0.00    +0.000 N 
ATOM     11  C   UNL     1       0.664   9.419  20.354  0.00  0.00    +0.000 C 
ATOM     12  O   UNL     1       0.468   9.415  21.569  0.00  0.00    +0.000 OA
ATOM     13  C   UNL     1       2.058   8.603  18.362  0.00  0.00    +0.000 C 
ATOM     14  C   UNL     1       1.855   7.282  17.618  0.00  0.00    +0.000 C 
ENDROOT
BRANCH  11  15
ATOM     15  C   UNL     1      -0.038  10.464  19.568  0.00  0.00    +0.000 A 
ATOM     16  C   UNL     1      -1.174  10.174  18.807  0.00  0.00    +0.000 A 
ATOM     17  C   UNL     1      -1.713  11.125  17.936  0.00  0.00    +0.000 A 
ATOM     18  C   UNL     1      -1.217  12.438  17.978  0.00  0.00    +0.000 A 
ATOM     19  C   UNL     1      -0.163  12.786  18.841  0.00  0.00    +0.000 A 
ATOM     20  C   UNL     1       0.439  11.781  19.614  0.00  0.00    +0.000 A 
BRANCH  17  21
ATOM     21  C   UNL     1      -2.760  10.721  16.927  0.00  0.00    +0.000 C 
ATOM     22  F   UNL     1      -3.706  11.681  16.723  0.00  0.00    +0.000 F 
ATOM     23  F   UNL     1      -2.241  10.433  15.706  0.00  0.00    +0.000 F 
ATOM     24  F   UNL     1      -3.448   9.612  17.322  0.00  0.00    +0.000 F 
ENDBRANCH  17  21
BRANCH  19  25
ATOM     25  C   UNL     1       0.335  14.209  18.939  0.00  0.00    +0.000 C 
ATOM     26  F   UNL     1      -0.494  15.111  18.342  0.00  0.00    +0.000 F 
ATOM     27  F   UNL     1       0.473  14.625  20.226  0.00  0.00    +0.000 F 
ATOM     28  F   UNL     1       1.552  14.376  18.354  0.00  0.00    +0.000 F 
ENDBRANCH  19  25
ENDBRANCH  11  15
TORSDOF 3
ENDMDL
MODEL 3
REMARK VINA RESULT:      -7.9      0.185      3.338
REMARK  Name = 
REMARK  4 active torsions:
REMARK  status: ('A' for Active; 'I' for Inactive)
REMARK    1  A    between atoms: C_1  and  N_2
REMARK    2  A    between atoms: C_11  and  C_13
REMARK    3  A    between atoms: C_15  and  C_16
REMARK    4  A    between atoms: C_21  and  C_22
REMARK                            x       y       z     vdW  Elec       q    Type
REMARK                         _______ _______ _______ _____ _____    ______ ____
ROOT
ATOM      1  C   UNL     1       4.927   3.504  17.271  0.00  0.00    +0.000 C 
ATOM      2  N   UNL     1       4.268   3.630  18.571  0.00  0.00    +0.000 NA
ATOM      3  C   UNL     1       4.646   4.866  19.259  0.00  0.00    +0.000 C 
ATOM      4  C   UNL     1       4.012   6.118  18.654  0.00  0.00    +0.000 C 
ATOM      5  C   UNL     1       2.468   6.034  18.569  0.00  0.00    +0.000 C 
ATOM      6  C   UNL     1       2.099   4.708  17.859  0.00  0.00    +0.000 C 
ATOM      7  C   UNL     1       2.811   3.491  18.472  0.00  0.00    +0.000 C 
ATOM      8  C   UNL     1       1.796   6.082  19.971  0.00  0.00    +0.000 C 
ATOM      9  C   UNL     1       1.951   7.432  20.671  0.00  0.00    +0.000 C 
ATOM     10  N   UNL     1       1.500   8.516  19.802  0.00  0.00    +0.000 N 
ATOM     11  C   UNL     1       0.678   9.502  20.358  0.00  0.00    +0.000 C 
ATOM     12  O   UNL     1       0.385   9.533  21.552  0.00  0.00    +0.000 OA
ATOM     13  C   UNL     1       2.169   8.558  18.497  0.00  0.00    +0.000 C 
ATOM     14  C   UNL     1       1.936   7.240  17.754  0.00  0.00    +0.000 C 
ENDROOT
BRANCH  11  15
ATOM     15  C   UNL     1       0.118  10.579  19.504  0.00  0.00    +0.000 A 
ATOM     16  C   UNL     1       0.668  11.864  19.484  0.00  0.00    +0.000 A 
ATOM     17  C   UNL     1       0.023  12.908  18.815  0.00  0.00    +0.000 A 
ATOM     18  C   UNL     1      -1.080  12.608  18.000  0.00  0.00    +0.000 A 
ATOM     19  C   UNL     1      -1.565  11.293  17.894  0.00  0.00    +0.000 A 
ATOM     20  C   UNL     1      -0.974  10.288  18.675  0.00  0.00    +0.000 A 
BRANCH  17  21
ATOM     21  C   UNL     1       0.473  14.333  19.024  0.00  0.00    +0.000 C 
ATOM     22  F   UNL     1       0.721  14.630  20.332  0.00  0.00    +0.000 F 
ATOM     23  F   UNL     1       1.606  14.639  18.343  0.00  0.00    +0.000 F 
ATOM     24  F   UNL     1      -0.471  15.230  18.622  0.00  0.00    +0.000 F 
ENDBRANCH  17  21
BRANCH  19  25
ATOM     25  C   UNL     1      -2.713  10.951  16.972  0.00  0.00    +0.000 C 
ATOM     26  F   UNL     1      -2.424  11.155  15.656  0.00  0.00    +0.000 F 
ATOM     27  F   UNL     1      -3.091   9.648  17.073  0.00  0.00    +0.000 F 
ATOM     28  F   UNL     1      -3.826  11.690  17.230  0.00  0.00    +0.000 F 
ENDBRANCH  19  25
ENDBRANCH  11  15
TORSDOF 3
ENDMDL
MODEL 4
REMARK VINA RESULT:      -7.7      0.393      3.334
REMARK  Name = 
REMARK  4 active torsions:
REMARK  status: ('A' for Active; 'I' for Inactive)
REMARK    1  A    between atoms: C_1  and  N_2
REMARK    2  A    between atoms: C_11  and  C_13
REMARK    3  A    between atoms: C_15  and  C_16
REMARK    4  A    between atoms: C_21  and  C_22
REMARK                            x       y       z     vdW  Elec       q    Type
REMARK                         _______ _______ _______ _____ _____    ______ ____
ROOT
ATOM      1  C   UNL     1       5.000   3.629  17.194  0.00  0.00    +0.000 C 
ATOM      2  N   UNL     1       4.328   3.690  18.492  0.00  0.00    +0.000 NA
ATOM      3  C   UNL     1       4.674   4.905  19.232  0.00  0.00    +0.000 C 
ATOM      4  C   UNL     1       4.019   6.167  18.670  0.00  0.00    +0.000 C 
ATOM      5  C   UNL     1       2.478   6.055  18.567  0.00  0.00    +0.000 C 
ATOM      6  C   UNL     1       2.143   4.751  17.801  0.00  0.00    +0.000 C 
ATOM      7  C   UNL     1       2.875   3.525  18.373  0.00  0.00    +0.000 C 
ATOM      8  C   UNL     1       1.793   6.034  19.963  0.00  0.00    +0.000 C 
ATOM      9  C   UNL     1       1.912   7.358  20.716  0.00  0.00    +0.000 C 
ATOM     10  N   UNL     1       1.447   8.467  19.886  0.00  0.00    +0.000 N 
ATOM     11  C   UNL     1       0.600   9.412  20.472  0.00  0.00    +0.000 C 
ATOM     12  O   UNL     1       0.295   9.390  21.663  0.00  0.00    +0.000 OA
ATOM     13  C   UNL     1       2.127   8.573  18.590  0.00  0.00    +0.000 C 
ATOM     14  C   UNL     1       1.928   7.281  17.794  0.00  0.00    +0.000 C 
ENDROOT
BRANCH  11  15
ATOM     15  C   UNL     1       0.025  10.511  19.655  0.00  0.00    +0.000 A 
ATOM     16  C   UNL     1       0.513  11.818  19.733  0.00  0.00    +0.000 A 
ATOM     17  C   UNL     1      -0.153  12.869  19.095  0.00  0.00    +0.000 A 
ATOM     18  C   UNL     1      -1.205  12.566  18.215  0.00  0.00    +0.000 A 
ATOM     19  C   UNL     1      -1.621  11.239  18.014  0.00  0.00    +0.000 A 
ATOM     20  C   UNL     1      -1.015  10.219  18.763  0.00  0.00    +0.000 A 
BRANCH  17  21
ATOM     21  C   UNL     1       0.218  14.299  19.404  0.00  0.00    +0.000 C 
ATOM     22  F   UNL     1       0.660  14.986  18.312  0.00  0.00    +0.000 F 
ATOM     23  F   UNL     1      -0.815  15.018  19.913  0.00  0.00    +0.000 F 
ATOM     24  F   UNL     1       1.227  14.378  20.315  0.00  0.00    +0.000 F 
ENDBRANCH  17  21
BRANCH  19  25
ATOM     25  C   UNL     1      -2.710  10.899  17.023  0.00  0.00    +0.000 C 
ATOM     26  F   UNL     1      -3.144   9.611  17.122  0.00  0.00    +0.000 F 
ATOM     27  F   UNL     1      -3.816  11.677  17.178  0.00  0.00    +0.000 F 
ATOM     28  F   UNL     1      -2.310  11.061  15.733  0.00  0.00    +0.000 F 
ENDBRANCH  19  25
ENDBRANCH  11  15
TORSDOF 3
ENDMDL
MODEL 5
REMARK VINA RESULT:      -7.7      0.372      3.319
REMARK  Name = 
REMARK  4 active torsions:
REMARK  status: ('A' for Active; 'I' for Inactive)
REMARK    1  A    between atoms: C_1  and  N_2
REMARK    2  A    between atoms: C_11  and  C_13
REMARK    3  A    between atoms: C_15  and  C_16
REMARK    4  A    between atoms: C_21  and  C_22
REMARK                            x       y       z     vdW  Elec       q    Type
REMARK                         _______ _______ _______ _____ _____    ______ ____
ROOT
ATOM      1  C   UNL     1       4.463   3.124  17.396  0.00  0.00    +0.000 C 
ATOM      2  N   UNL     1       3.879   3.337  18.720  0.00  0.00    +0.000 NA
ATOM      3  C   UNL     1       4.376   4.563  19.348  0.00  0.00    +0.000 C 
ATOM      4  C   UNL     1       3.803   5.838  18.730  0.00  0.00    +0.000 C 
ATOM      5  C   UNL     1       2.255   5.863  18.719  0.00  0.00    +0.000 C 
ATOM      6  C   UNL     1       1.760   4.546  18.072  0.00  0.00    +0.000 C 
ATOM      7  C   UNL     1       2.412   3.301  18.693  0.00  0.00    +0.000 C 
ATOM      8  C   UNL     1       1.656   6.003  20.148  0.00  0.00    +0.000 C 
ATOM      9  C   UNL     1       1.939   7.359  20.793  0.00  0.00    +0.000 C 
ATOM     10  N   UNL     1       1.524   8.446  19.909  0.00  0.00    +0.000 N 
ATOM     11  C   UNL     1       0.802   9.505  20.468  0.00  0.00    +0.000 C 
ATOM     12  O   UNL     1       0.570   9.593  21.673  0.00  0.00    +0.000 OA
ATOM     13  C   UNL     1       2.131   8.399  18.574  0.00  0.00    +0.000 C 
ATOM     14  C   UNL     1       1.770   7.079  17.888  0.00  0.00    +0.000 C 
ENDROOT
BRANCH  11  15
ATOM     15  C   UNL     1       0.279  10.593  19.604  0.00  0.00    +0.000 A 
ATOM     16  C   UNL     1       0.953  11.808  19.462  0.00  0.00    +0.000 A 
ATOM     17  C   UNL     1       0.360  12.881  18.791  0.00  0.00    +0.000 A 
ATOM     18  C   UNL     1      -0.839  12.662  18.094  0.00  0.00    +0.000 A 
ATOM     19  C   UNL     1      -1.464  11.403  18.108  0.00  0.00    +0.000 A 
ATOM     20  C   UNL     1      -0.909  10.380  18.892  0.00  0.00    +0.000 A 
BRANCH  17  21
ATOM     21  C   UNL     1       0.970  14.259  18.877  0.00  0.00    +0.000 C 
ATOM     22  F   UNL     1       0.111  15.250  18.503  0.00  0.00    +0.000 F 
ATOM     23  F   UNL     1       1.394  14.576  20.128  0.00  0.00    +0.000 F 
ATOM     24  F   UNL     1       2.053  14.389  18.060  0.00  0.00    +0.000 F 
ENDBRANCH  17  21
BRANCH  19  25
ATOM     25  C   UNL     1      -2.721  11.142  17.310  0.00  0.00    +0.000 C 
ATOM     26  F   UNL     1      -3.785  11.886  17.724  0.00  0.00    +0.000 F 
ATOM     27  F   UNL     1      -2.565  11.418  15.988  0.00  0.00    +0.000 F 
ATOM     28  F   UNL     1      -3.122   9.844  17.382  0.00  0.00    +0.000 F 
ENDBRANCH  19  25
ENDBRANCH  11  15
TORSDOF 3
ENDMDL
MODEL 6
REMARK VINA RESULT:      -7.4      4.488      7.985
REMARK  Name = 
REMARK  4 active torsions:
REMARK  status: ('A' for Active; 'I' for Inactive)
REMARK    1  A    between atoms: C_1  and  N_2
REMARK    2  A    between atoms: C_11  and  C_13
REMARK    3  A    between atoms: C_15  and  C_16
REMARK    4  A    between atoms: C_21  and  C_22
REMARK                            x       y       z     vdW  Elec       q    Type
REMARK                         _______ _______ _______ _____ _____    ______ ____
ROOT
ATOM      1  C   UNL     1      -0.054  14.827  18.207  0.00  0.00    +0.000 C 
ATOM      2  N   UNL     1       0.097  14.177  19.508  0.00  0.00    +0.000 NA
ATOM      3  C   UNL     1      -0.701  12.954  19.606  0.00  0.00    +0.000 C 
ATOM      4  C   UNL     1      -0.133  11.790  18.795  0.00  0.00    +0.000 C 
ATOM      5  C   UNL     1       1.339  11.466  19.151  0.00  0.00    +0.000 C 
ATOM      6  C   UNL     1       2.153  12.780  19.062  0.00  0.00    +0.000 C 
ATOM      7  C   UNL     1       1.504  13.932  19.847  0.00  0.00    +0.000 C 
ATOM      8  C   UNL     1       1.482  10.856  20.574  0.00  0.00    +0.000 C 
ATOM      9  C   UNL     1       0.866   9.463  20.701  0.00  0.00    +0.000 C 
ATOM     10  N   UNL     1       1.382   8.575  19.662  0.00  0.00    +0.000 N 
ATOM     11  C   UNL     1       1.782   7.289  20.040  0.00  0.00    +0.000 C 
ATOM     12  O   UNL     1       1.648   6.856  21.183  0.00  0.00    +0.000 OA
ATOM     13  C   UNL     1       1.193   9.075  18.296  0.00  0.00    +0.000 C 
ATOM     14  C   UNL     1       1.891  10.428  18.140  0.00  0.00    +0.000 C 
ENDROOT
BRANCH  11  15
ATOM     15  C   UNL     1       2.396   6.374  19.045  0.00  0.00    +0.000 A 
ATOM     16  C   UNL     1       1.930   5.070  18.859  0.00  0.00    +0.000 A 
ATOM     17  C   UNL     1       2.629   4.169  18.051  0.00  0.00    +0.000 A 
ATOM     18  C   UNL     1       3.697   4.646  17.275  0.00  0.00    +0.000 A 
ATOM     19  C   UNL     1       4.095   5.992  17.342  0.00  0.00    +0.000 A 
ATOM     20  C   UNL     1       3.454   6.843  18.254  0.00  0.00    +0.000 A 
BRANCH  17  21
ATOM     21  C   UNL     1       2.275   2.701  18.072  0.00  0.00    +0.000 C 
ATOM     22  F   UNL     1       2.938   2.004  19.039  0.00  0.00    +0.000 F 
ATOM     23  F   UNL     1       0.953   2.475  18.279  0.00  0.00    +0.000 F 
ATOM     24  F   UNL     1       2.592   2.084  16.899  0.00  0.00    +0.000 F 
ENDBRANCH  17  21
BRANCH  19  25
ATOM     25  C   UNL     1       5.204   6.528  16.465  0.00  0.00    +0.000 C 
ATOM     26  F   UNL     1       6.025   5.554  15.981  0.00  0.00    +0.000 F 
ATOM     27  F   UNL     1       4.730   7.191  15.376  0.00  0.00    +0.000 F 
ATOM     28  F   UNL     1       6.010   7.405  17.123  0.00  0.00    +0.000 F 
ENDBRANCH  19  25
ENDBRANCH  11  15
TORSDOF 3
ENDMDL
MODEL 7
REMARK VINA RESULT:      -7.4      1.249      3.554
REMARK  Name = 
REMARK  4 active torsions:
REMARK  status: ('A' for Active; 'I' for Inactive)
REMARK    1  A    between atoms: C_1  and  N_2
REMARK    2  A    between atoms: C_11  and  C_13
REMARK    3  A    between atoms: C_15  and  C_16
REMARK    4  A    between atoms: C_21  and  C_22
REMARK                            x       y       z     vdW  Elec       q    Type
REMARK                         _______ _______ _______ _____ _____    ______ ____
ROOT
ATOM      1  C   UNL     1       3.930   1.797  17.801  0.00  0.00    +0.000 C 
ATOM      2  N   UNL     1       3.430   2.139  19.132  0.00  0.00    +0.000 NA
ATOM      3  C   UNL     1       4.089   3.327  19.677  0.00  0.00    +0.000 C 
ATOM      4  C   UNL     1       3.641   4.629  19.015  0.00  0.00    +0.000 C 
ATOM      5  C   UNL     1       2.106   4.834  19.058  0.00  0.00    +0.000 C 
ATOM      6  C   UNL     1       1.437   3.554  18.498  0.00  0.00    +0.000 C 
ATOM      7  C   UNL     1       1.968   2.272  19.159  0.00  0.00    +0.000 C 
ATOM      8  C   UNL     1       1.587   5.110  20.498  0.00  0.00    +0.000 C 
ATOM      9  C   UNL     1       2.050   6.454  21.061  0.00  0.00    +0.000 C 
ATOM     10  N   UNL     1       1.726   7.538  20.137  0.00  0.00    +0.000 N 
ATOM     11  C   UNL     1       1.154   8.699  20.666  0.00  0.00    +0.000 C 
ATOM     12  O   UNL     1       0.983   8.871  21.871  0.00  0.00    +0.000 OA
ATOM     13  C   UNL     1       2.268   7.357  18.785  0.00  0.00    +0.000 C 
ATOM     14  C   UNL     1       1.730   6.057  18.183  0.00  0.00    +0.000 C 
ENDROOT
BRANCH  11  15
ATOM     15  C   UNL     1       0.723   9.798  19.765  0.00  0.00    +0.000 A 
ATOM     16  C   UNL     1       1.517  10.927  19.551  0.00  0.00    +0.000 A 
ATOM     17  C   UNL     1       1.021  12.028  18.846  0.00  0.00    +0.000 A 
ATOM     18  C   UNL     1      -0.214  11.907  18.189  0.00  0.00    +0.000 A 
ATOM     19  C   UNL     1      -0.967  10.724  18.277  0.00  0.00    +0.000 A 
ATOM     20  C   UNL     1      -0.501   9.683  19.093  0.00  0.00    +0.000 A 
BRANCH  17  21
ATOM     21  C   UNL     1       1.776  13.335  18.853  0.00  0.00    +0.000 C 
ATOM     22  F   UNL     1       0.977  14.413  19.096  0.00  0.00    +0.000 F 
ATOM     23  F   UNL     1       2.762  13.375  19.785  0.00  0.00    +0.000 F 
ATOM     24  F   UNL     1       2.371  13.587  17.654  0.00  0.00    +0.000 F 
ENDBRANCH  17  21
BRANCH  19  25
ATOM     25  C   UNL     1      -2.268  10.564  17.523  0.00  0.00    +0.000 C 
ATOM     26  F   UNL     1      -2.093  10.349  16.189  0.00  0.00    +0.000 F 
ATOM     27  F   UNL     1      -3.005   9.515  17.976  0.00  0.00    +0.000 F 
ATOM     28  F   UNL     1      -3.067  11.661  17.624  0.00  0.00    +0.000 F 
ENDBRANCH  19  25
ENDBRANCH  11  15
TORSDOF 3
ENDMDL
MODEL 8
REMARK VINA RESULT:      -7.4      4.745      8.197
REMARK  Name = 
REMARK  4 active torsions:
REMARK  status: ('A' for Active; 'I' for Inactive)
REMARK    1  A    between atoms: C_1  and  N_2
REMARK    2  A    between atoms: C_11  and  C_13
REMARK    3  A    between atoms: C_15  and  C_16
REMARK    4  A    between atoms: C_21  and  C_22
REMARK                            x       y       z     vdW  Elec       q    Type
REMARK                         _______ _______ _______ _____ _____    ______ ____
ROOT
ATOM      1  C   UNL     1      -0.429  14.026  18.356  0.00  0.00    +0.000 C 
ATOM      2  N   UNL     1      -0.185  13.357  19.633  0.00  0.00    +0.000 NA
ATOM      3  C   UNL     1      -0.864  12.062  19.713  0.00  0.00    +0.000 C 
ATOM      4  C   UNL     1      -0.211  10.979  18.855  0.00  0.00    +0.000 C 
ATOM      5  C   UNL     1       1.293  10.784  19.166  0.00  0.00    +0.000 C 
ATOM      6  C   UNL     1       1.979  12.171  19.098  0.00  0.00    +0.000 C 
ATOM      7  C   UNL     1       1.247  13.235  19.932  0.00  0.00    +0.000 C 
ATOM      8  C   UNL     1       1.530  10.151  20.567  0.00  0.00    +0.000 C 
ATOM      9  C   UNL     1       1.049   8.704  20.666  0.00  0.00    +0.000 C 
ATOM     10  N   UNL     1       1.618   7.897  19.590  0.00  0.00    +0.000 N 
ATOM     11  C   UNL     1       2.145   6.645  19.919  0.00  0.00    +0.000 C 
ATOM     12  O   UNL     1       2.082   6.169  21.051  0.00  0.00    +0.000 OA
ATOM     13  C   UNL     1       1.348   8.416  18.244  0.00  0.00    +0.000 C 
ATOM     14  C   UNL     1       1.913   9.832  18.112  0.00  0.00    +0.000 C 
ENDROOT
BRANCH  11  15
ATOM     15  C   UNL     1       2.815   5.819  18.883  0.00  0.00    +0.000 A 
ATOM     16  C   UNL     1       2.523   4.462  18.721  0.00  0.00    +0.000 A 
ATOM     17  C   UNL     1       3.287   3.662  17.867  0.00  0.00    +0.000 A 
ATOM     18  C   UNL     1       4.227   4.279  17.026  0.00  0.00    +0.000 A 
ATOM     19  C   UNL     1       4.439   5.668  17.074  0.00  0.00    +0.000 A 
ATOM     20  C   UNL     1       3.745   6.426  18.029  0.00  0.00    +0.000 A 
BRANCH  17  21
ATOM     21  C   UNL     1       3.142   2.160  17.904  0.00  0.00    +0.000 C 
ATOM     22  F   UNL     1       2.010   1.716  17.286  0.00  0.00    +0.000 F 
ATOM     23  F   UNL     1       4.178   1.511  17.313  0.00  0.00    +0.000 F 
ATOM     24  F   UNL     1       3.069   1.686  19.179  0.00  0.00    +0.000 F 
ENDBRANCH  17  21
BRANCH  19  25
ATOM     25  C   UNL     1       5.404   6.348  16.131  0.00  0.00    +0.000 C 
ATOM     26  F   UNL     1       6.135   5.472  15.386  0.00  0.00    +0.000 F 
ATOM     27  F   UNL     1       4.775   7.160  15.239  0.00  0.00    +0.000 F 
ATOM     28  F   UNL     1       6.307   7.129  16.783  0.00  0.00    +0.000 F 
ENDBRANCH  19  25
ENDBRANCH  11  15
TORSDOF 3
ENDMDL
MODEL 9
REMARK VINA RESULT:      -7.3      1.201      3.555
REMARK  Name = 
REMARK  4 active torsions:
REMARK  status: ('A' for Active; 'I' for Inactive)
REMARK    1  A    between atoms: C_1  and  N_2
REMARK    2  A    between atoms: C_11  and  C_13
REMARK    3  A    between atoms: C_15  and  C_16
REMARK    4  A    between atoms: C_21  and  C_22
REMARK                            x       y       z     vdW  Elec       q    Type
REMARK                         _______ _______ _______ _____ _____    ______ ____
ROOT
ATOM      1  C   UNL     1       3.899   1.897  17.710  0.00  0.00    +0.000 C 
ATOM      2  N   UNL     1       3.365   2.187  19.040  0.00  0.00    +0.000 NA
ATOM      3  C   UNL     1       4.013   3.349  19.650  0.00  0.00    +0.000 C 
ATOM      4  C   UNL     1       3.587   4.679  19.030  0.00  0.00    +0.000 C 
ATOM      5  C   UNL     1       2.052   4.888  19.042  0.00  0.00    +0.000 C 
ATOM      6  C   UNL     1       1.394   3.634  18.413  0.00  0.00    +0.000 C 
ATOM      7  C   UNL     1       1.904   2.324  19.035  0.00  0.00    +0.000 C 
ATOM      8  C   UNL     1       1.497   5.107  20.478  0.00  0.00    +0.000 C 
ATOM      9  C   UNL     1       1.949   6.425  21.107  0.00  0.00    +0.000 C 
ATOM     10  N   UNL     1       1.653   7.547  20.221  0.00  0.00    +0.000 N 
ATOM     11  C   UNL     1       1.070   8.688  20.781  0.00  0.00    +0.000 C 
ATOM     12  O   UNL     1       0.869   8.811  21.988  0.00  0.00    +0.000 OA
ATOM     13  C   UNL     1       2.229   7.419  18.877  0.00  0.00    +0.000 C 
ATOM     14  C   UNL     1       1.703   6.147  18.208  0.00  0.00    +0.000 C 
ENDROOT
BRANCH  11  15
ATOM     15  C   UNL     1       0.666   9.824  19.915  0.00  0.00    +0.000 A 
ATOM     16  C   UNL     1       1.442  10.983  19.813  0.00  0.00    +0.000 A 
ATOM     17  C   UNL     1       0.961  12.108  19.138  0.00  0.00    +0.000 A 
ATOM     18  C   UNL     1      -0.227  11.995  18.398  0.00  0.00    +0.000 A 
ATOM     19  C   UNL     1      -0.952  10.791  18.374  0.00  0.00    +0.000 A 
ATOM     20  C   UNL     1      -0.509   9.718  19.161  0.00  0.00    +0.000 A 
BRANCH  17  21
ATOM     21  C   UNL     1       1.677  13.430  19.264  0.00  0.00    +0.000 C 
ATOM     22  F   UNL     1       3.025  13.329  19.080  0.00  0.00    +0.000 F 
ATOM     23  F   UNL     1       1.241  14.359  18.374  0.00  0.00    +0.000 F 
ATOM     24  F   UNL     1       1.520  13.980  20.501  0.00  0.00    +0.000 F 
ENDBRANCH  17  21
BRANCH  19  25
ATOM     25  C   UNL     1      -2.198  10.641  17.531  0.00  0.00    +0.000 C 
ATOM     26  F   UNL     1      -3.086   9.741  18.039  0.00  0.00    +0.000 F 
ATOM     27  F   UNL     1      -2.883  11.809  17.404  0.00  0.00    +0.000 F 
ATOM     28  F   UNL     1      -1.924  10.223  16.266  0.00  0.00    +0.000 F 
ENDBRANCH  19  25
ENDBRANCH  11  15
TORSDOF 3
ENDMDL
