MODEL 1
REMARK VINA RESULT:      -7.5      0.000      0.000
REMARK  Name = 
REMARK  3 active torsions:
REMARK  status: ('A' for Active; 'I' for Inactive)
REMARK    1  A    between atoms: C_1  and  C_2
REMARK    2  A    between atoms: C_4  and  C_5
REMARK    3  A    between atoms: C_6  and  C_7
REMARK                            x       y       z     vdW  Elec       q    Type
REMARK                         _______ _______ _______ _____ _____    ______ ____
ROOT
ATOM      1  C   UNL     1       8.962  10.982  18.338  0.00  0.00    +0.000 A 
ATOM      2  C   UNL     1       8.416  12.069  17.702  0.00  0.00    +0.000 A 
ATOM      3  N   UNL     1       8.832  13.342  17.891  0.00  0.00    +0.000 NA
ATOM      4  C   UNL     1       9.851  13.561  18.743  0.00  0.00    +0.000 A 
ATOM      5  N   UNL     1      10.327  14.852  18.897  0.00  0.00    +0.000 N 
ATOM      6  C   UNL     1       9.416  15.954  18.627  0.00  0.00    +0.000 C 
ATOM      7  C   UNL     1       9.853  16.702  17.368  0.00  0.00    +0.000 C 
ATOM      8  C   UNL     1      11.113  17.554  17.535  0.00  0.00    +0.000 C 
ATOM      9  C   UNL     1      12.332  16.821  18.095  0.00  0.00    +0.000 C 
ATOM     10  C   UNL     1      12.160  16.412  19.560  0.00  0.00    +0.000 C 
ATOM     11  C   UNL     1      11.478  15.054  19.764  0.00  0.00    +0.000 C 
ATOM     12  N   UNL     1      10.439  12.551  19.416  0.00  0.00    +0.000 NA
ATOM     13  C   UNL     1       9.981  11.294  19.205  0.00  0.00    +0.000 A 
ENDROOT
BRANCH   1  15
ATOM     14  C   UNL     1       8.146   8.516  17.900  0.00  0.00    +0.000 C 
ATOM     15  C   UNL     1       8.512   9.647  18.100  0.00  0.00    +0.000 C 
BRANCH  14  19
ATOM     16  C   UNL     1       6.651   4.593  15.362  0.00  0.00    +0.000 C 
ATOM     17  C   UNL     1       7.075   5.431  16.518  0.00  0.00    +0.000 A 
ATOM     18  N   UNL     1       7.412   6.708  16.453  0.00  0.00    +0.000 NA
ATOM     19  C   UNL     1       7.745   7.158  17.714  0.00  0.00    +0.000 A 
ATOM     20  C   UNL     1       7.664   6.228  18.727  0.00  0.00    +0.000 A 
ATOM     21  S   UNL     1       7.146   4.727  18.090  0.00  0.00    +0.000 S 
ENDBRANCH  14  19
ENDBRANCH   1  15
TORSDOF 2
ENDMDL
MODEL 2
REMARK VINA RESULT:      -7.1      1.206      2.224
REMARK  Name = 
REMARK  3 active torsions:
REMARK  status: ('A' for Active; 'I' for Inactive)
REMARK    1  A    between atoms: C_1  and  C_2
REMARK    2  A    between atoms: C_4  and  C_5
REMARK    3  A    between atoms: C_6  and  C_7
REMARK                            x       y       z     vdW  Elec       q    Type
REMARK                         _______ _______ _______ _____ _____    ______ ____
ROOT
ATOM      1  C   UNL     1       8.806  10.427  18.464  0.00  0.00    +0.000 A 
ATOM      2  C   UNL     1       9.334  10.740  19.692  0.00  0.00    +0.000 A 
ATOM      3  N   UNL     1       9.761  11.976  20.037  0.00  0.00    +0.000 NA
ATOM      4  C   UNL     1       9.652  12.965  19.131  0.00  0.00    +0.000 A 
ATOM      5  N   UNL     1      10.028  14.248  19.494  0.00  0.00    +0.000 N 
ATOM      6  C   UNL     1      11.017  14.399  20.551  0.00  0.00    +0.000 C 
ATOM      7  C   UNL     1      10.368  15.000  21.797  0.00  0.00    +0.000 C 
ATOM      8  C   UNL     1      10.011  16.483  21.680  0.00  0.00    +0.000 C 
ATOM      9  C   UNL     1       9.151  16.858  20.473  0.00  0.00    +0.000 C 
ATOM     10  C   UNL     1       9.896  16.717  19.144  0.00  0.00    +0.000 C 
ATOM     11  C   UNL     1       9.829  15.315  18.525  0.00  0.00    +0.000 C 
ATOM     12  N   UNL     1       9.152  12.744  17.899  0.00  0.00    +0.000 NA
ATOM     13  C   UNL     1       8.749  11.487  17.593  0.00  0.00    +0.000 A 
ENDROOT
BRANCH   1  15
ATOM     14  C   UNL     1       7.942   8.012  17.866  0.00  0.00    +0.000 C 
ATOM     15  C   UNL     1       8.345   9.115  18.139  0.00  0.00    +0.000 C 
BRANCH  14  19
ATOM     16  C   UNL     1       6.710   4.389  14.796  0.00  0.00    +0.000 C 
ATOM     17  C   UNL     1       6.897   5.139  16.069  0.00  0.00    +0.000 A 
ATOM     18  N   UNL     1       7.410   6.352  16.173  0.00  0.00    +0.000 NA
ATOM     19  C   UNL     1       7.428   6.731  17.499  0.00  0.00    +0.000 A 
ATOM     20  C   UNL     1       6.933   5.809  18.395  0.00  0.00    +0.000 A 
ATOM     21  S   UNL     1       6.417   4.410  17.556  0.00  0.00    +0.000 S 
ENDBRANCH  14  19
ENDBRANCH   1  15
TORSDOF 2
ENDMDL
MODEL 3
REMARK VINA RESULT:      -7.1      0.772      1.905
REMARK  Name = 
REMARK  3 active torsions:
REMARK  status: ('A' for Active; 'I' for Inactive)
REMARK    1  A    between atoms: C_1  and  C_2
REMARK    2  A    between atoms: C_4  and  C_5
REMARK    3  A    between atoms: C_6  and  C_7
REMARK                            x       y       z     vdW  Elec       q    Type
REMARK                         _______ _______ _______ _____ _____    ______ ____
ROOT
ATOM      1  C   UNL     1       9.050  11.034  18.154  0.00  0.00    +0.000 A 
ATOM      2  C   UNL     1      10.246  11.358  18.745  0.00  0.00    +0.000 A 
ATOM      3  N   UNL     1      10.702  12.624  18.882  0.00  0.00    +0.000 NA
ATOM      4  C   UNL     1       9.936  13.631  18.425  0.00  0.00    +0.000 A 
ATOM      5  N   UNL     1      10.363  14.935  18.617  0.00  0.00    +0.000 N 
ATOM      6  C   UNL     1      11.793  15.173  18.754  0.00  0.00    +0.000 C 
ATOM      7  C   UNL     1      12.119  15.609  20.182  0.00  0.00    +0.000 C 
ATOM      8  C   UNL     1      11.671  17.028  20.537  0.00  0.00    +0.000 C 
ATOM      9  C   UNL     1      10.195  17.335  20.275  0.00  0.00    +0.000 C 
ATOM     10  C   UNL     1       9.850  17.372  18.785  0.00  0.00    +0.000 C 
ATOM     11  C   UNL     1       9.484  16.010  18.184  0.00  0.00    +0.000 C 
ATOM     12  N   UNL     1       8.751  13.402  17.825  0.00  0.00    +0.000 NA
ATOM     13  C   UNL     1       8.340  12.118  17.697  0.00  0.00    +0.000 A 
ENDROOT
BRANCH   1  15
ATOM     14  C   UNL     1       8.208   8.548  17.939  0.00  0.00    +0.000 C 
ATOM     15  C   UNL     1       8.588   9.687  18.043  0.00  0.00    +0.000 C 
BRANCH  14  19
ATOM     16  C   UNL     1       6.584   4.521  15.655  0.00  0.00    +0.000 C 
ATOM     17  C   UNL     1       7.084   5.404  16.747  0.00  0.00    +0.000 A 
ATOM     18  N   UNL     1       7.393   6.682  16.614  0.00  0.00    +0.000 NA
ATOM     19  C   UNL     1       7.816   7.179  17.829  0.00  0.00    +0.000 A 
ATOM     20  C   UNL     1       7.830   6.283  18.875  0.00  0.00    +0.000 A 
ATOM     21  S   UNL     1       7.289   4.754  18.330  0.00  0.00    +0.000 S 
ENDBRANCH  14  19
ENDBRANCH   1  15
TORSDOF 2
ENDMDL
MODEL 4
REMARK VINA RESULT:      -7.0      0.964      1.248
REMARK  Name = 
REMARK  3 active torsions:
REMARK  status: ('A' for Active; 'I' for Inactive)
REMARK    1  A    between atoms: C_1  and  C_2
REMARK    2  A    between atoms: C_4  and  C_5
REMARK    3  A    between atoms: C_6  and  C_7
REMARK                            x       y       z     vdW  Elec       q    Type
REMARK                         _______ _______ _______ _____ _____    ______ ____
ROOT
ATOM      1  C   UNL     1       9.366  11.067  18.324  0.00  0.00    +0.000 A 
ATOM      2  C   UNL     1       8.776  12.022  19.113  0.00  0.00    +0.000 A 
ATOM      3  N   UNL     1       9.237  13.287  19.242  0.00  0.00    +0.000 NA
ATOM      4  C   UNL     1      10.334  13.640  18.547  0.00  0.00    +0.000 A 
ATOM      5  N   UNL     1      10.780  14.949  18.621  0.00  0.00    +0.000 N 
ATOM      6  C   UNL     1      10.452  15.717  19.814  0.00  0.00    +0.000 C 
ATOM      7  C   UNL     1       9.456  16.823  19.471  0.00  0.00    +0.000 C 
ATOM      8  C   UNL     1      10.044  17.987  18.671  0.00  0.00    +0.000 C 
ATOM      9  C   UNL     1      10.777  17.597  17.386  0.00  0.00    +0.000 C 
ATOM     10  C   UNL     1      12.082  16.845  17.651  0.00  0.00    +0.000 C 
ATOM     11  C   UNL     1      11.921  15.327  17.802  0.00  0.00    +0.000 C 
ATOM     12  N   UNL     1      10.982  12.762  17.754  0.00  0.00    +0.000 NA
ATOM     13  C   UNL     1      10.491  11.502  17.666  0.00  0.00    +0.000 A 
ENDROOT
BRANCH   1  15
ATOM     14  C   UNL     1       8.388   8.635  18.076  0.00  0.00    +0.000 C 
ATOM     15  C   UNL     1       8.841   9.745  18.195  0.00  0.00    +0.000 C 
BRANCH  14  19
ATOM     16  C   UNL     1       6.390   4.955  15.519  0.00  0.00    +0.000 C 
ATOM     17  C   UNL     1       6.960   5.709  16.670  0.00  0.00    +0.000 A 
ATOM     18  N   UNL     1       7.404   6.953  16.624  0.00  0.00    +0.000 NA
ATOM     19  C   UNL     1       7.856   7.324  17.873  0.00  0.00    +0.000 A 
ATOM     20  C   UNL     1       7.756   6.368  18.859  0.00  0.00    +0.000 A 
ATOM     21  S   UNL     1       7.067   4.943  18.211  0.00  0.00    +0.000 S 
ENDBRANCH  14  19
ENDBRANCH   1  15
TORSDOF 2
ENDMDL
MODEL 5
REMARK VINA RESULT:      -7.0      3.710     10.372
REMARK  Name = 
REMARK  3 active torsions:
REMARK  status: ('A' for Active; 'I' for Inactive)
REMARK    1  A    between atoms: C_1  and  C_2
REMARK    2  A    between atoms: C_4  and  C_5
REMARK    3  A    between atoms: C_6  and  C_7
REMARK                            x       y       z     vdW  Elec       q    Type
REMARK                         _______ _______ _______ _____ _____    ______ ____
ROOT
ATOM      1  C   UNL     1       7.188   7.167  18.210  0.00  0.00    +0.000 A 
ATOM      2  C   UNL     1       6.041   7.151  17.456  0.00  0.00    +0.000 A 
ATOM      3  N   UNL     1       5.208   6.089  17.372  0.00  0.00    +0.000 NA
ATOM      4  C   UNL     1       5.509   4.984  18.079  0.00  0.00    +0.000 A 
ATOM      5  N   UNL     1       4.630   3.914  18.051  0.00  0.00    +0.000 N 
ATOM      6  C   UNL     1       3.770   3.765  16.887  0.00  0.00    +0.000 C 
ATOM      7  C   UNL     1       2.315   4.033  17.269  0.00  0.00    +0.000 C 
ATOM      8  C   UNL     1       1.661   2.935  18.110  0.00  0.00    +0.000 C 
ATOM      9  C   UNL     1       2.419   2.542  19.380  0.00  0.00    +0.000 C 
ATOM     10  C   UNL     1       3.739   1.825  19.088  0.00  0.00    +0.000 C 
ATOM     11  C   UNL     1       4.937   2.760  18.883  0.00  0.00    +0.000 C 
ATOM     12  N   UNL     1       6.619   4.912  18.840  0.00  0.00    +0.000 NA
ATOM     13  C   UNL     1       7.432   5.995  18.883  0.00  0.00    +0.000 A 
ENDROOT
BRANCH   1  15
ATOM     14  C   UNL     1       8.745   9.285  18.374  0.00  0.00    +0.000 C 
ATOM     15  C   UNL     1       8.037   8.313  18.293  0.00  0.00    +0.000 C 
BRANCH  14  19
ATOM     16  C   UNL     1      11.507  13.055  16.881  0.00  0.00    +0.000 C 
ATOM     17  C   UNL     1      10.820  12.102  17.797  0.00  0.00    +0.000 A 
ATOM     18  N   UNL     1      10.061  11.090  17.417  0.00  0.00    +0.000 NA
ATOM     19  C   UNL     1       9.593  10.424  18.530  0.00  0.00    +0.000 A 
ATOM     20  C   UNL     1       9.993  10.930  19.747  0.00  0.00    +0.000 A 
ATOM     21  S   UNL     1      11.000  12.291  19.501  0.00  0.00    +0.000 S 
ENDBRANCH  14  19
ENDBRANCH   1  15
TORSDOF 2
ENDMDL
MODEL 6
REMARK VINA RESULT:      -6.9      3.755     10.465
REMARK  Name = 
REMARK  3 active torsions:
REMARK  status: ('A' for Active; 'I' for Inactive)
REMARK    1  A    between atoms: C_1  and  C_2
REMARK    2  A    between atoms: C_4  and  C_5
REMARK    3  A    between atoms: C_6  and  C_7
REMARK                            x       y       z     vdW  Elec       q    Type
REMARK                         _______ _______ _______ _____ _____    ______ ____
ROOT
ATOM      1  C   UNL     1       6.959   7.248  18.058  0.00  0.00    +0.000 A 
ATOM      2  C   UNL     1       5.768   7.191  17.379  0.00  0.00    +0.000 A 
ATOM      3  N   UNL     1       4.970   6.100  17.343  0.00  0.00    +0.000 NA
ATOM      4  C   UNL     1       5.355   5.004  18.023  0.00  0.00    +0.000 A 
ATOM      5  N   UNL     1       4.517   3.903  18.046  0.00  0.00    +0.000 N 
ATOM      6  C   UNL     1       3.589   3.726  16.939  0.00  0.00    +0.000 C 
ATOM      7  C   UNL     1       2.153   3.939  17.415  0.00  0.00    +0.000 C 
ATOM      8  C   UNL     1       1.595   2.815  18.290  0.00  0.00    +0.000 C 
ATOM      9  C   UNL     1       2.446   2.447  19.507  0.00  0.00    +0.000 C 
ATOM     10  C   UNL     1       3.770   1.780  19.127  0.00  0.00    +0.000 C 
ATOM     11  C   UNL     1       4.918   2.758  18.850  0.00  0.00    +0.000 C 
ATOM     12  N   UNL     1       6.515   4.971  18.711  0.00  0.00    +0.000 NA
ATOM     13  C   UNL     1       7.288   6.083  18.708  0.00  0.00    +0.000 A 
ENDROOT
BRANCH   1  15
ATOM     14  C   UNL     1       8.452   9.416  18.136  0.00  0.00    +0.000 C 
ATOM     15  C   UNL     1       7.769   8.424  18.093  0.00  0.00    +0.000 C 
BRANCH  14  19
ATOM     16  C   UNL     1      12.332  12.012  19.644  0.00  0.00    +0.000 C 
ATOM     17  C   UNL     1      11.064  11.676  18.938  0.00  0.00    +0.000 A 
ATOM     18  N   UNL     1      10.439  10.513  19.003  0.00  0.00    +0.000 NA
ATOM     19  C   UNL     1       9.300  10.562  18.227  0.00  0.00    +0.000 A 
ATOM     20  C   UNL     1       9.064  11.753  17.576  0.00  0.00    +0.000 A 
ATOM     21  S   UNL     1      10.309  12.867  17.947  0.00  0.00    +0.000 S 
ENDBRANCH  14  19
ENDBRANCH   1  15
TORSDOF 2
ENDMDL
MODEL 7
REMARK VINA RESULT:      -6.8      3.554     10.257
REMARK  Name = 
REMARK  3 active torsions:
REMARK  status: ('A' for Active; 'I' for Inactive)
REMARK    1  A    between atoms: C_1  and  C_2
REMARK    2  A    between atoms: C_4  and  C_5
REMARK    3  A    between atoms: C_6  and  C_7
REMARK                            x       y       z     vdW  Elec       q    Type
REMARK                         _______ _______ _______ _____ _____    ______ ____
ROOT
ATOM      1  C   UNL     1       7.317   7.506  18.067  0.00  0.00    +0.000 A 
ATOM      2  C   UNL     1       6.231   7.329  17.247  0.00  0.00    +0.000 A 
ATOM      3  N   UNL     1       5.452   6.224  17.253  0.00  0.00    +0.000 NA
ATOM      4  C   UNL     1       5.746   5.240  18.123  0.00  0.00    +0.000 A 
ATOM      5  N   UNL     1       4.919   4.131  18.183  0.00  0.00    +0.000 N 
ATOM      6  C   UNL     1       4.154   3.783  16.994  0.00  0.00    +0.000 C 
ATOM      7  C   UNL     1       2.664   4.024  17.238  0.00  0.00    +0.000 C 
ATOM      8  C   UNL     1       1.998   3.015  18.175  0.00  0.00    +0.000 C 
ATOM      9  C   UNL     1       2.676   2.835  19.535  0.00  0.00    +0.000 C 
ATOM     10  C   UNL     1       4.043   2.156  19.433  0.00  0.00    +0.000 C 
ATOM     11  C   UNL     1       5.212   3.116  19.183  0.00  0.00    +0.000 C 
ATOM     12  N   UNL     1       6.800   5.328  18.960  0.00  0.00    +0.000 NA
ATOM     13  C   UNL     1       7.560   6.448  18.909  0.00  0.00    +0.000 A 
ENDROOT
BRANCH   1  15
ATOM     14  C   UNL     1       8.769   9.702  18.022  0.00  0.00    +0.000 C 
ATOM     15  C   UNL     1       8.108   8.696  18.050  0.00  0.00    +0.000 C 
BRANCH  14  19
ATOM     16  C   UNL     1       9.354  14.573  17.974  0.00  0.00    +0.000 C 
ATOM     17  C   UNL     1       9.699  13.124  17.961  0.00  0.00    +0.000 A 
ATOM     18  N   UNL     1       8.828  12.132  18.012  0.00  0.00    +0.000 NA
ATOM     19  C   UNL     1       9.501  10.929  17.977  0.00  0.00    +0.000 A 
ATOM     20  C   UNL     1      10.874  11.008  17.904  0.00  0.00    +0.000 A 
ATOM     21  S   UNL     1      11.354  12.651  17.870  0.00  0.00    +0.000 S 
ENDBRANCH  14  19
ENDBRANCH   1  15
TORSDOF 2
ENDMDL
MODEL 8
REMARK VINA RESULT:      -6.7      8.160      9.084
REMARK  Name = 
REMARK  3 active torsions:
REMARK  status: ('A' for Active; 'I' for Inactive)
REMARK    1  A    between atoms: C_1  and  C_2
REMARK    2  A    between atoms: C_4  and  C_5
REMARK    3  A    between atoms: C_6  and  C_7
REMARK                            x       y       z     vdW  Elec       q    Type
REMARK                         _______ _______ _______ _____ _____    ______ ____
ROOT
ATOM      1  C   UNL     1       2.293   8.200  18.655  0.00  0.00    +0.000 A 
ATOM      2  C   UNL     1       1.662   9.242  18.023  0.00  0.00    +0.000 A 
ATOM      3  N   UNL     1       0.758  10.052  18.621  0.00  0.00    +0.000 NA
ATOM      4  C   UNL     1       0.466   9.835  19.916  0.00  0.00    +0.000 A 
ATOM      5  N   UNL     1      -0.410  10.696  20.556  0.00  0.00    +0.000 N 
ATOM      6  C   UNL     1      -1.391  11.403  19.745  0.00  0.00    +0.000 C 
ATOM      7  C   UNL     1      -1.068  12.896  19.709  0.00  0.00    +0.000 C 
ATOM      8  C   UNL     1      -1.351  13.643  21.014  0.00  0.00    +0.000 C 
ATOM      9  C   UNL     1      -0.701  13.049  22.265  0.00  0.00    +0.000 C 
ATOM     10  C   UNL     1      -1.299  11.698  22.663  0.00  0.00    +0.000 C 
ATOM     11  C   UNL     1      -0.652  10.490  21.976  0.00  0.00    +0.000 C 
ATOM     12  N   UNL     1       1.034   8.829  20.611  0.00  0.00    +0.000 NA
ATOM     13  C   UNL     1       1.923   8.035  19.968  0.00  0.00    +0.000 A 
ENDROOT
BRANCH   1  15
ATOM     14  C   UNL     1       4.083   6.689  17.451  0.00  0.00    +0.000 C 
ATOM     15  C   UNL     1       3.258   7.375  18.000  0.00  0.00    +0.000 C 
BRANCH  14  19
ATOM     16  C   UNL     1       6.194   4.061  13.887  0.00  0.00    +0.000 C 
ATOM     17  C   UNL     1       5.992   4.710  15.213  0.00  0.00    +0.000 A 
ATOM     18  N   UNL     1       4.945   5.440  15.554  0.00  0.00    +0.000 NA
ATOM     19  C   UNL     1       5.094   5.876  16.853  0.00  0.00    +0.000 A 
ATOM     20  C   UNL     1       6.248   5.480  17.493  0.00  0.00    +0.000 A 
ATOM     21  S   UNL     1       7.191   4.519  16.437  0.00  0.00    +0.000 S 
ENDBRANCH  14  19
ENDBRANCH   1  15
TORSDOF 2
ENDMDL
MODEL 9
REMARK VINA RESULT:      -6.7      8.786     11.903
REMARK  Name = 
REMARK  3 active torsions:
REMARK  status: ('A' for Active; 'I' for Inactive)
REMARK    1  A    between atoms: C_1  and  C_2
REMARK    2  A    between atoms: C_4  and  C_5
REMARK    3  A    between atoms: C_6  and  C_7
REMARK                            x       y       z     vdW  Elec       q    Type
REMARK                         _______ _______ _______ _____ _____    ______ ____
ROOT
ATOM      1  C   UNL     1       0.639   9.449  20.741  0.00  0.00    +0.000 A 
ATOM      2  C   UNL     1       1.034   8.224  21.216  0.00  0.00    +0.000 A 
ATOM      3  N   UNL     1       1.791   7.350  20.515  0.00  0.00    +0.000 NA
ATOM      4  C   UNL     1       2.196   7.703  19.281  0.00  0.00    +0.000 A 
ATOM      5  N   UNL     1       3.024   6.844  18.578  0.00  0.00    +0.000 N 
ATOM      6  C   UNL     1       2.965   5.425  18.895  0.00  0.00    +0.000 C 
ATOM      7  C   UNL     1       4.263   4.982  19.570  0.00  0.00    +0.000 C 
ATOM      8  C   UNL     1       5.474   4.902  18.638  0.00  0.00    +0.000 C 
ATOM      9  C   UNL     1       5.768   6.170  17.834  0.00  0.00    +0.000 C 
ATOM     10  C   UNL     1       4.706   6.462  16.773  0.00  0.00    +0.000 C 
ATOM     11  C   UNL     1       3.511   7.280  17.278  0.00  0.00    +0.000 C 
ATOM     12  N   UNL     1       1.847   8.885  18.734  0.00  0.00    +0.000 NA
ATOM     13  C   UNL     1       1.077   9.723  19.468  0.00  0.00    +0.000 A 
ENDROOT
BRANCH   1  15
ATOM     14  C   UNL     1      -0.807  11.133  22.159  0.00  0.00    +0.000 C 
ATOM     15  C   UNL     1      -0.145  10.358  21.516  0.00  0.00    +0.000 C 
BRANCH  14  19
ATOM     16  C   UNL     1      -4.756  12.573  24.688  0.00  0.00    +0.000 C 
ATOM     17  C   UNL     1      -3.433  12.637  24.007  0.00  0.00    +0.000 A 
ATOM     18  N   UNL     1      -2.842  11.629  23.389  0.00  0.00    +0.000 NA
ATOM     19  C   UNL     1      -1.634  12.051  22.875  0.00  0.00    +0.000 A 
ATOM     20  C   UNL     1      -1.310  13.370  23.103  0.00  0.00    +0.000 A 
ATOM     21  S   UNL     1      -2.562  14.125  23.993  0.00  0.00    +0.000 S 
ENDBRANCH  14  19
ENDBRANCH   1  15
TORSDOF 2
ENDMDL
