MODEL 1
REMARK VINA RESULT:      -6.2      0.000      0.000
REMARK  Name = 
REMARK  9 active torsions:
REMARK  status: ('A' for Active; 'I' for Inactive)
REMARK    1  A    between atoms: C_1  and  C_2
REMARK    2  A    between atoms: CA_3  and  N_4
REMARK    3  A    between atoms: CA_3  and  C_12
REMARK    4  A    between atoms: C_5  and  C_7
REMARK    5  A    between atoms: C_7  and  C_8
REMARK    6  A    between atoms: C_8  and  C_9
REMARK    7  A    between atoms: C_9  and  C_10
REMARK    8  A    between atoms: C_9  and  C_11
REMARK    9  A    between atoms: C_12  and  OXT_14
REMARK                            x       y       z     vdW  Elec       q    Type
REMARK                         _______ _______ _______ _____ _____    ______ ____
ROOT
ATOM      1  N   UNL     1       5.221   3.754  16.679  0.00  0.00    +0.000 N 
ATOM      2  C   UNL     1       4.182   4.480  17.231  0.00  0.00    +0.000 C 
ATOM      3  O   UNL     1       4.029   5.695  17.143  0.00  0.00    +0.000 OA
ATOM      4  H   UNL     1       5.103   2.747  16.658  0.00  0.00    +0.000 HD
ENDROOT
BRANCH   1   7
ATOM      5  C   UNL     1       5.896   3.857  13.579  0.00  0.00    +0.000 C 
ATOM      6  C   UNL     1       6.702   4.243  14.777  0.00  0.00    +0.000 C 
ATOM      7  CA  UNL     1       6.382   4.235  16.085  0.00  0.00    +0.000 C 
BRANCH   7   8
ATOM      8  C   UNL     1       7.404   4.910  16.975  0.00  0.00    +0.000 C 
ATOM      9  O   UNL     1       7.537   6.116  17.104  0.00  0.00    +0.000 OA
BRANCH   8  10
ATOM     10  OXT UNL     1       8.165   4.018  17.650  0.00  0.00    +0.000 OA
ATOM     11  HXT UNL     1       8.445   4.346  18.522  0.00  0.00    +0.000 HD
ENDBRANCH   8  10
ENDBRANCH   7   8
ENDBRANCH   1   7
BRANCH   2  12
ATOM     12  C   UNL     1       3.109   3.635  17.900  0.00  0.00    +0.000 C 
BRANCH  12  13
ATOM     13  C   UNL     1       2.427   4.316  19.084  0.00  0.00    +0.000 C 
BRANCH  13  14
ATOM     14  C   UNL     1       1.171   3.594  19.609  0.00  0.00    +0.000 C 
ATOM     15  C   UNL     1       0.825   2.345  18.797  0.00  0.00    +0.000 C 
ATOM     16  C   UNL     1       1.379   3.218  21.078  0.00  0.00    +0.000 C 
ENDBRANCH  13  14
ENDBRANCH  12  13
ENDBRANCH   2  12
TORSDOF 6
ENDMDL
MODEL 2
REMARK VINA RESULT:      -6.2      0.696      1.208
REMARK  Name = 
REMARK  9 active torsions:
REMARK  status: ('A' for Active; 'I' for Inactive)
REMARK    1  A    between atoms: C_1  and  C_2
REMARK    2  A    between atoms: CA_3  and  N_4
REMARK    3  A    between atoms: CA_3  and  C_12
REMARK    4  A    between atoms: C_5  and  C_7
REMARK    5  A    between atoms: C_7  and  C_8
REMARK    6  A    between atoms: C_8  and  C_9
REMARK    7  A    between atoms: C_9  and  C_10
REMARK    8  A    between atoms: C_9  and  C_11
REMARK    9  A    between atoms: C_12  and  OXT_14
REMARK                            x       y       z     vdW  Elec       q    Type
REMARK                         _______ _______ _______ _____ _____    ______ ____
ROOT
ATOM      1  N   UNL     1       5.162   3.646  16.871  0.00  0.00    +0.000 N 
ATOM      2  C   UNL     1       4.046   4.270  17.398  0.00  0.00    +0.000 C 
ATOM      3  O   UNL     1       3.750   5.453  17.255  0.00  0.00    +0.000 OA
ATOM      4  H   UNL     1       5.163   2.633  16.897  0.00  0.00    +0.000 HD
ENDROOT
BRANCH   1   7
ATOM      5  C   UNL     1       5.662   3.944  13.751  0.00  0.00    +0.000 C 
ATOM      6  C   UNL     1       6.504   4.325  14.925  0.00  0.00    +0.000 C 
ATOM      7  CA  UNL     1       6.255   4.232  16.245  0.00  0.00    +0.000 C 
BRANCH   7   8
ATOM      8  C   UNL     1       7.278   4.931  17.116  0.00  0.00    +0.000 C 
ATOM      9  O   UNL     1       7.854   4.427  18.066  0.00  0.00    +0.000 OA
BRANCH   8  10
ATOM     10  OXT UNL     1       7.515   6.200  16.711  0.00  0.00    +0.000 OA
ATOM     11  HXT UNL     1       8.400   6.311  16.321  0.00  0.00    +0.000 HD
ENDBRANCH   8  10
ENDBRANCH   7   8
ENDBRANCH   1   7
BRANCH   2  12
ATOM     12  C   UNL     1       3.082   3.337  18.115  0.00  0.00    +0.000 C 
BRANCH  12  13
ATOM     13  C   UNL     1       1.671   3.898  18.269  0.00  0.00    +0.000 C 
BRANCH  13  14
ATOM     14  C   UNL     1       1.186   4.034  19.726  0.00  0.00    +0.000 C 
ATOM     15  C   UNL     1       1.395   2.755  20.540  0.00  0.00    +0.000 C 
ATOM     16  C   UNL     1       1.915   5.201  20.396  0.00  0.00    +0.000 C 
ENDBRANCH  13  14
ENDBRANCH  12  13
ENDBRANCH   2  12
TORSDOF 6
ENDMDL
MODEL 3
REMARK VINA RESULT:      -6.2      0.730      1.445
REMARK  Name = 
REMARK  9 active torsions:
REMARK  status: ('A' for Active; 'I' for Inactive)
REMARK    1  A    between atoms: C_1  and  C_2
REMARK    2  A    between atoms: CA_3  and  N_4
REMARK    3  A    between atoms: CA_3  and  C_12
REMARK    4  A    between atoms: C_5  and  C_7
REMARK    5  A    between atoms: C_7  and  C_8
REMARK    6  A    between atoms: C_8  and  C_9
REMARK    7  A    between atoms: C_9  and  C_10
REMARK    8  A    between atoms: C_9  and  C_11
REMARK    9  A    between atoms: C_12  and  OXT_14
REMARK                            x       y       z     vdW  Elec       q    Type
REMARK                         _______ _______ _______ _____ _____    ______ ____
ROOT
ATOM      1  N   UNL     1       5.371   3.319  16.475  0.00  0.00    +0.000 N 
ATOM      2  C   UNL     1       4.302   3.830  17.187  0.00  0.00    +0.000 C 
ATOM      3  O   UNL     1       3.945   5.005  17.203  0.00  0.00    +0.000 OA
ATOM      4  H   UNL     1       5.415   2.309  16.395  0.00  0.00    +0.000 HD
ENDROOT
BRANCH   1   7
ATOM      5  C   UNL     1       5.570   3.813  13.346  0.00  0.00    +0.000 C 
ATOM      6  C   UNL     1       6.483   4.197  14.465  0.00  0.00    +0.000 C 
ATOM      7  CA  UNL     1       6.359   4.019  15.794  0.00  0.00    +0.000 C 
BRANCH   7   8
ATOM      8  C   UNL     1       7.402   4.750  16.614  0.00  0.00    +0.000 C 
ATOM      9  O   UNL     1       8.158   4.228  17.416  0.00  0.00    +0.000 OA
BRANCH   8  10
ATOM     10  OXT UNL     1       7.428   6.076  16.345  0.00  0.00    +0.000 OA
ATOM     11  HXT UNL     1       7.509   6.265  15.393  0.00  0.00    +0.000 HD
ENDBRANCH   8  10
ENDBRANCH   7   8
ENDBRANCH   1   7
BRANCH   2  12
ATOM     12  C   UNL     1       3.467   2.783  17.908  0.00  0.00    +0.000 C 
BRANCH  12  13
ATOM     13  C   UNL     1       3.225   3.086  19.384  0.00  0.00    +0.000 C 
BRANCH  13  14
ATOM     14  C   UNL     1       1.798   2.781  19.881  0.00  0.00    +0.000 C 
ATOM     15  C   UNL     1       1.181   3.947  20.656  0.00  0.00    +0.000 C 
ATOM     16  C   UNL     1       0.911   2.424  18.686  0.00  0.00    +0.000 C 
ENDBRANCH  13  14
ENDBRANCH  12  13
ENDBRANCH   2  12
TORSDOF 6
ENDMDL
MODEL 4
REMARK VINA RESULT:      -6.1      1.622      2.168
REMARK  Name = 
REMARK  9 active torsions:
REMARK  status: ('A' for Active; 'I' for Inactive)
REMARK    1  A    between atoms: C_1  and  C_2
REMARK    2  A    between atoms: CA_3  and  N_4
REMARK    3  A    between atoms: CA_3  and  C_12
REMARK    4  A    between atoms: C_5  and  C_7
REMARK    5  A    between atoms: C_7  and  C_8
REMARK    6  A    between atoms: C_8  and  C_9
REMARK    7  A    between atoms: C_9  and  C_10
REMARK    8  A    between atoms: C_9  and  C_11
REMARK    9  A    between atoms: C_12  and  OXT_14
REMARK                            x       y       z     vdW  Elec       q    Type
REMARK                         _______ _______ _______ _____ _____    ______ ____
ROOT
ATOM      1  N   UNL     1       5.841   4.011  18.691  0.00  0.00    +0.000 N 
ATOM      2  C   UNL     1       4.489   4.268  18.561  0.00  0.00    +0.000 C 
ATOM      3  O   UNL     1       3.990   5.173  17.898  0.00  0.00    +0.000 OA
ATOM      4  H   UNL     1       6.090   3.115  19.095  0.00  0.00    +0.000 HD
ENDROOT
BRANCH   1   7
ATOM      5  C   UNL     1       6.809   4.510  15.709  0.00  0.00    +0.000 C 
ATOM      6  C   UNL     1       7.358   4.982  17.016  0.00  0.00    +0.000 C 
ATOM      7  CA  UNL     1       6.907   4.798  18.271  0.00  0.00    +0.000 C 
BRANCH   7   8
ATOM      8  C   UNL     1       7.628   5.625  19.314  0.00  0.00    +0.000 C 
ATOM      9  O   UNL     1       7.750   5.325  20.490  0.00  0.00    +0.000 OA
BRANCH   8  10
ATOM     10  OXT UNL     1       8.160   6.756  18.794  0.00  0.00    +0.000 OA
ATOM     11  HXT UNL     1       7.889   7.556  19.278  0.00  0.00    +0.000 HD
ENDBRANCH   8  10
ENDBRANCH   7   8
ENDBRANCH   1   7
BRANCH   2  12
ATOM     12  C   UNL     1       3.586   3.244  19.232  0.00  0.00    +0.000 C 
BRANCH  12  13
ATOM     13  C   UNL     1       2.099   3.445  18.951  0.00  0.00    +0.000 C 
BRANCH  13  14
ATOM     14  C   UNL     1       1.248   3.791  20.189  0.00  0.00    +0.000 C 
ATOM     15  C   UNL     1       1.413   2.775  21.320  0.00  0.00    +0.000 C 
ATOM     16  C   UNL     1       1.624   5.189  20.687  0.00  0.00    +0.000 C 
ENDBRANCH  13  14
ENDBRANCH  12  13
ENDBRANCH   2  12
TORSDOF 6
ENDMDL
MODEL 5
REMARK VINA RESULT:      -6.1      1.869      2.487
REMARK  Name = 
REMARK  9 active torsions:
REMARK  status: ('A' for Active; 'I' for Inactive)
REMARK    1  A    between atoms: C_1  and  C_2
REMARK    2  A    between atoms: CA_3  and  N_4
REMARK    3  A    between atoms: CA_3  and  C_12
REMARK    4  A    between atoms: C_5  and  C_7
REMARK    5  A    between atoms: C_7  and  C_8
REMARK    6  A    between atoms: C_8  and  C_9
REMARK    7  A    between atoms: C_9  and  C_10
REMARK    8  A    between atoms: C_9  and  C_11
REMARK    9  A    between atoms: C_12  and  OXT_14
REMARK                            x       y       z     vdW  Elec       q    Type
REMARK                         _______ _______ _______ _____ _____    ______ ____
ROOT
ATOM      1  N   UNL     1       4.886   3.842  17.495  0.00  0.00    +0.000 N 
ATOM      2  C   UNL     1       4.722   3.240  18.729  0.00  0.00    +0.000 C 
ATOM      3  O   UNL     1       5.200   3.633  19.789  0.00  0.00    +0.000 OA
ATOM      4  H   UNL     1       4.267   3.527  16.757  0.00  0.00    +0.000 HD
ENDROOT
BRANCH   1   7
ATOM      5  C   UNL     1       4.205   6.938  17.335  0.00  0.00    +0.000 C 
ATOM      6  C   UNL     1       5.463   6.188  17.038  0.00  0.00    +0.000 C 
ATOM      7  CA  UNL     1       5.747   4.878  17.155  0.00  0.00    +0.000 C 
BRANCH   7   8
ATOM      8  C   UNL     1       7.211   4.544  16.959  0.00  0.00    +0.000 C 
ATOM      9  O   UNL     1       7.800   4.564  15.892  0.00  0.00    +0.000 OA
BRANCH   8  10
ATOM     10  OXT UNL     1       7.826   4.233  18.124  0.00  0.00    +0.000 OA
ATOM     11  HXT UNL     1       7.455   3.438  18.545  0.00  0.00    +0.000 HD
ENDBRANCH   8  10
ENDBRANCH   7   8
ENDBRANCH   1   7
BRANCH   2  12
ATOM     12  C   UNL     1       3.768   2.055  18.729  0.00  0.00    +0.000 C 
BRANCH  12  13
ATOM     13  C   UNL     1       2.606   2.189  17.748  0.00  0.00    +0.000 C 
BRANCH  13  14
ATOM     14  C   UNL     1       1.381   2.949  18.296  0.00  0.00    +0.000 C 
ATOM     15  C   UNL     1       1.294   2.903  19.822  0.00  0.00    +0.000 C 
ATOM     16  C   UNL     1       1.433   4.403  17.822  0.00  0.00    +0.000 C 
ENDBRANCH  13  14
ENDBRANCH  12  13
ENDBRANCH   2  12
TORSDOF 6
ENDMDL
MODEL 6
REMARK VINA RESULT:      -6.1      1.157      1.325
REMARK  Name = 
REMARK  9 active torsions:
REMARK  status: ('A' for Active; 'I' for Inactive)
REMARK    1  A    between atoms: C_1  and  C_2
REMARK    2  A    between atoms: CA_3  and  N_4
REMARK    3  A    between atoms: CA_3  and  C_12
REMARK    4  A    between atoms: C_5  and  C_7
REMARK    5  A    between atoms: C_7  and  C_8
REMARK    6  A    between atoms: C_8  and  C_9
REMARK    7  A    between atoms: C_9  and  C_10
REMARK    8  A    between atoms: C_9  and  C_11
REMARK    9  A    between atoms: C_12  and  OXT_14
REMARK                            x       y       z     vdW  Elec       q    Type
REMARK                         _______ _______ _______ _____ _____    ______ ____
ROOT
ATOM      1  N   UNL     1       4.649   5.037  16.831  0.00  0.00    +0.000 N 
ATOM      2  C   UNL     1       3.911   4.304  17.740  0.00  0.00    +0.000 C 
ATOM      3  O   UNL     1       4.337   3.388  18.440  0.00  0.00    +0.000 OA
ATOM      4  H   UNL     1       4.218   5.887  16.485  0.00  0.00    +0.000 HD
ENDROOT
BRANCH   1   7
ATOM      5  C   UNL     1       5.526   4.024  13.953  0.00  0.00    +0.000 C 
ATOM      6  C   UNL     1       6.325   4.320  15.180  0.00  0.00    +0.000 C 
ATOM      7  CA  UNL     1       5.941   4.793  16.380  0.00  0.00    +0.000 C 
BRANCH   7   8
ATOM      8  C   UNL     1       7.090   5.163  17.294  0.00  0.00    +0.000 C 
ATOM      9  O   UNL     1       7.703   6.218  17.262  0.00  0.00    +0.000 OA
BRANCH   8  10
ATOM     10  OXT UNL     1       7.366   4.189  18.192  0.00  0.00    +0.000 OA
ATOM     11  HXT UNL     1       6.686   3.493  18.212  0.00  0.00    +0.000 HD
ENDBRANCH   8  10
ENDBRANCH   7   8
ENDBRANCH   1   7
BRANCH   2  12
ATOM     12  C   UNL     1       2.482   4.788  17.928  0.00  0.00    +0.000 C 
BRANCH  12  13
ATOM     13  C   UNL     1       1.526   3.721  18.455  0.00  0.00    +0.000 C 
BRANCH  13  14
ATOM     14  C   UNL     1       1.077   3.919  19.917  0.00  0.00    +0.000 C 
ATOM     15  C   UNL     1       1.465   2.745  20.817  0.00  0.00    +0.000 C 
ATOM     16  C   UNL     1       1.684   5.214  20.461  0.00  0.00    +0.000 C 
ENDBRANCH  13  14
ENDBRANCH  12  13
ENDBRANCH   2  12
TORSDOF 6
ENDMDL
MODEL 7
REMARK VINA RESULT:      -6.1      1.213      1.601
REMARK  Name = 
REMARK  9 active torsions:
REMARK  status: ('A' for Active; 'I' for Inactive)
REMARK    1  A    between atoms: C_1  and  C_2
REMARK    2  A    between atoms: CA_3  and  N_4
REMARK    3  A    between atoms: CA_3  and  C_12
REMARK    4  A    between atoms: C_5  and  C_7
REMARK    5  A    between atoms: C_7  and  C_8
REMARK    6  A    between atoms: C_8  and  C_9
REMARK    7  A    between atoms: C_9  and  C_10
REMARK    8  A    between atoms: C_9  and  C_11
REMARK    9  A    between atoms: C_12  and  OXT_14
REMARK                            x       y       z     vdW  Elec       q    Type
REMARK                         _______ _______ _______ _____ _____    ______ ____
ROOT
ATOM      1  N   UNL     1       4.732   4.735  17.554  0.00  0.00    +0.000 N 
ATOM      2  C   UNL     1       3.991   5.901  17.550  0.00  0.00    +0.000 C 
ATOM      3  O   UNL     1       4.295   6.943  16.975  0.00  0.00    +0.000 OA
ATOM      4  H   UNL     1       4.259   3.904  17.892  0.00  0.00    +0.000 HD
ENDROOT
BRANCH   1   7
ATOM      5  C   UNL     1       5.651   4.330  14.543  0.00  0.00    +0.000 C 
ATOM      6  C   UNL     1       6.426   4.321  15.820  0.00  0.00    +0.000 C 
ATOM      7  CA  UNL     1       6.026   4.540  17.087  0.00  0.00    +0.000 C 
BRANCH   7   8
ATOM      8  C   UNL     1       7.163   4.657  18.081  0.00  0.00    +0.000 C 
ATOM      9  O   UNL     1       7.094   5.212  19.165  0.00  0.00    +0.000 OA
BRANCH   8  10
ATOM     10  OXT UNL     1       8.290   4.048  17.645  0.00  0.00    +0.000 OA
ATOM     11  HXT UNL     1       8.196   3.081  17.588  0.00  0.00    +0.000 HD
ENDBRANCH   8  10
ENDBRANCH   7   8
ENDBRANCH   1   7
BRANCH   2  12
ATOM     12  C   UNL     1       2.641   5.792  18.242  0.00  0.00    +0.000 C 
BRANCH  12  13
ATOM     13  C   UNL     1       1.886   4.501  17.936  0.00  0.00    +0.000 C 
BRANCH  13  14
ATOM     14  C   UNL     1       1.696   3.562  19.143  0.00  0.00    +0.000 C 
ATOM     15  C   UNL     1       1.108   4.277  20.361  0.00  0.00    +0.000 C 
ATOM     16  C   UNL     1       0.791   2.395  18.740  0.00  0.00    +0.000 C 
ENDBRANCH  13  14
ENDBRANCH  12  13
ENDBRANCH   2  12
TORSDOF 6
ENDMDL
MODEL 8
REMARK VINA RESULT:      -6.0      2.612      5.638
REMARK  Name = 
REMARK  9 active torsions:
REMARK  status: ('A' for Active; 'I' for Inactive)
REMARK    1  A    between atoms: C_1  and  C_2
REMARK    2  A    between atoms: CA_3  and  N_4
REMARK    3  A    between atoms: CA_3  and  C_12
REMARK    4  A    between atoms: C_5  and  C_7
REMARK    5  A    between atoms: C_7  and  C_8
REMARK    6  A    between atoms: C_8  and  C_9
REMARK    7  A    between atoms: C_9  and  C_10
REMARK    8  A    between atoms: C_9  and  C_11
REMARK    9  A    between atoms: C_12  and  OXT_14
REMARK                            x       y       z     vdW  Elec       q    Type
REMARK                         _______ _______ _______ _____ _____    ______ ____
ROOT
ATOM      1  N   UNL     1       6.532   4.412  16.884  0.00  0.00    +0.000 N 
ATOM      2  C   UNL     1       6.374   5.259  15.804  0.00  0.00    +0.000 C 
ATOM      3  O   UNL     1       6.075   6.449  15.862  0.00  0.00    +0.000 OA
ATOM      4  H   UNL     1       6.980   3.522  16.694  0.00  0.00    +0.000 HD
ENDROOT
BRANCH   1   7
ATOM      5  C   UNL     1       7.978   6.422  18.870  0.00  0.00    +0.000 C 
ATOM      6  C   UNL     1       6.849   5.467  19.083  0.00  0.00    +0.000 C 
ATOM      7  CA  UNL     1       6.218   4.653  18.216  0.00  0.00    +0.000 C 
BRANCH   7   8
ATOM      8  C   UNL     1       4.973   3.999  18.778  0.00  0.00    +0.000 C 
ATOM      9  O   UNL     1       3.829   4.369  18.572  0.00  0.00    +0.000 OA
BRANCH   8  10
ATOM     10  OXT UNL     1       5.261   2.917  19.538  0.00  0.00    +0.000 OA
ATOM     11  HXT UNL     1       5.036   3.045  20.476  0.00  0.00    +0.000 HD
ENDBRANCH   8  10
ENDBRANCH   7   8
ENDBRANCH   1   7
BRANCH   2  12
ATOM     12  C   UNL     1       6.720   4.638  14.460  0.00  0.00    +0.000 C 
BRANCH  12  13
ATOM     13  C   UNL     1       5.619   3.753  13.880  0.00  0.00    +0.000 C 
BRANCH  13  14
ATOM     14  C   UNL     1       5.880   3.251  12.446  0.00  0.00    +0.000 C 
ATOM     15  C   UNL     1       4.637   3.331  11.558  0.00  0.00    +0.000 C 
ATOM     16  C   UNL     1       7.016   4.067  11.824  0.00  0.00    +0.000 C 
ENDBRANCH  13  14
ENDBRANCH  12  13
ENDBRANCH   2  12
TORSDOF 6
ENDMDL
MODEL 9
REMARK VINA RESULT:      -6.0      1.225      1.268
REMARK  Name = 
REMARK  9 active torsions:
REMARK  status: ('A' for Active; 'I' for Inactive)
REMARK    1  A    between atoms: C_1  and  C_2
REMARK    2  A    between atoms: CA_3  and  N_4
REMARK    3  A    between atoms: CA_3  and  C_12
REMARK    4  A    between atoms: C_5  and  C_7
REMARK    5  A    between atoms: C_7  and  C_8
REMARK    6  A    between atoms: C_8  and  C_9
REMARK    7  A    between atoms: C_9  and  C_10
REMARK    8  A    between atoms: C_9  and  C_11
REMARK    9  A    between atoms: C_12  and  OXT_14
REMARK                            x       y       z     vdW  Elec       q    Type
REMARK                         _______ _______ _______ _____ _____    ______ ____
ROOT
ATOM      1  N   UNL     1       4.824   4.979  17.510  0.00  0.00    +0.000 N 
ATOM      2  C   UNL     1       3.796   4.076  17.699  0.00  0.00    +0.000 C 
ATOM      3  O   UNL     1       3.886   2.854  17.604  0.00  0.00    +0.000 OA
ATOM      4  H   UNL     1       4.651   5.928  17.824  0.00  0.00    +0.000 HD
ENDROOT
BRANCH   1   7
ATOM      5  C   UNL     1       5.617   4.349  14.502  0.00  0.00    +0.000 C 
ATOM      6  C   UNL     1       6.443   4.423  15.744  0.00  0.00    +0.000 C 
ATOM      7  CA  UNL     1       6.097   4.737  17.007  0.00  0.00    +0.000 C 
BRANCH   7   8
ATOM      8  C   UNL     1       7.273   4.912  17.944  0.00  0.00    +0.000 C 
ATOM      9  O   UNL     1       7.338   5.730  18.846  0.00  0.00    +0.000 OA
BRANCH   8  10
ATOM     10  OXT UNL     1       8.268   4.030  17.689  0.00  0.00    +0.000 OA
ATOM     11  HXT UNL     1       9.153   4.420  17.800  0.00  0.00    +0.000 HD
ENDBRANCH   8  10
ENDBRANCH   7   8
ENDBRANCH   1   7
BRANCH   2  12
ATOM     12  C   UNL     1       2.489   4.697  18.168  0.00  0.00    +0.000 C 
BRANCH  12  13
ATOM     13  C   UNL     1       2.352   4.786  19.686  0.00  0.00    +0.000 C 
BRANCH  13  14
ATOM     14  C   UNL     1       1.331   3.808  20.301  0.00  0.00    +0.000 C 
ATOM     15  C   UNL     1       0.768   2.822  19.276  0.00  0.00    +0.000 C 
ATOM     16  C   UNL     1       1.992   3.042  21.450  0.00  0.00    +0.000 C 
ENDBRANCH  13  14
ENDBRANCH  12  13
ENDBRANCH   2  12
TORSDOF 6
ENDMDL
