MODEL 1
REMARK VINA RESULT:      -9.3      0.000      0.000
REMARK  Name = 
REMARK  5 active torsions:
REMARK  status: ('A' for Active; 'I' for Inactive)
REMARK    1  A    between atoms: C_2  and  C_20
REMARK    2  A    between atoms: N_3  and  C_4
REMARK    3  A    between atoms: C_4  and  C_5
REMARK    4  A    between atoms: C_11  and  C_12
REMARK    5  A    between atoms: C_24  and  C_25
REMARK                            x       y       z     vdW  Elec       q    Type
REMARK                         _______ _______ _______ _____ _____    ______ ____
ROOT
ATOM      1  O   UNL     1       1.598   8.480  19.256  0.00  0.00    +0.000 OA
ATOM      2  C   UNL     1       1.847   7.698  20.165  0.00  0.00    +0.000 C 
ATOM      3  N   UNL     1       1.710   7.996  21.502  0.00  0.00    +0.000 N 
ATOM      4  H   UNL     1       2.171   7.400  22.180  0.00  0.00    +0.000 HD
ENDROOT
BRANCH   2   5
ATOM      5  C   UNL     1       2.340   6.329  19.869  0.00  0.00    +0.000 A 
ATOM      6  C   UNL     1       1.782   5.237  20.528  0.00  0.00    +0.000 A 
ATOM      7  C   UNL     1       2.234   3.954  20.231  0.00  0.00    +0.000 A 
ATOM      8  C   UNL     1       3.248   3.768  19.281  0.00  0.00    +0.000 A 
ATOM      9  C   UNL     1       3.862   4.854  18.630  0.00  0.00    +0.000 A 
ATOM     10  C   UNL     1       3.389   6.137  18.956  0.00  0.00    +0.000 A 
BRANCH   9  11
ATOM     11  C   UNL     1       4.984   4.676  17.675  0.00  0.00    +0.000 A 
ATOM     12  C   UNL     1       4.749   4.294  16.340  0.00  0.00    +0.000 A 
ATOM     13  C   UNL     1       5.802   4.072  15.444  0.00  0.00    +0.000 A 
ATOM     14  C   UNL     1       7.121   4.213  15.862  0.00  0.00    +0.000 A 
ATOM     15  C   UNL     1       7.387   4.596  17.170  0.00  0.00    +0.000 A 
ATOM     16  C   UNL     1       6.332   4.832  18.054  0.00  0.00    +0.000 A 
ATOM     17  F   UNL     1       6.654   5.220  19.300  0.00  0.00    +0.000 F 
ENDBRANCH   9  11
ENDBRANCH   2   5
BRANCH   3  18
ATOM     18  C   UNL     1       1.235   9.284  21.968  0.00  0.00    +0.000 C 
BRANCH  18  19
ATOM     19  C   UNL     1      -0.265   9.329  22.334  0.00  0.00    +0.000 C 
ATOM     20  C   UNL     1      -0.615  10.410  23.364  0.00  0.00    +0.000 C 
ATOM     21  C   UNL     1      -0.904  11.526  22.430  0.00  0.00    +0.000 A 
ATOM     22  C   UNL     1      -0.947  12.884  22.668  0.00  0.00    +0.000 A 
ATOM     23  C   UNL     1      -1.268  13.721  21.602  0.00  0.00    +0.000 A 
ATOM     24  C   UNL     1      -1.577  13.182  20.336  0.00  0.00    +0.000 A 
ATOM     25  C   UNL     1      -1.569  11.793  20.090  0.00  0.00    +0.000 A 
ATOM     26  C   UNL     1      -1.195  11.001  21.171  0.00  0.00    +0.000 A 
ATOM     27  O   UNL     1      -1.017   9.632  21.129  0.00  0.00    +0.000 OA
BRANCH  25  28
ATOM     28  C   UNL     1      -1.927  11.239  18.778  0.00  0.00    +0.000 A 
ATOM     29  N   UNL     1      -1.094  10.329  18.232  0.00  0.00    +0.000 NA
ATOM     30  C   UNL     1      -1.450   9.843  17.027  0.00  0.00    +0.000 A 
ATOM     31  C   UNL     1      -2.582  10.232  16.350  0.00  0.00    +0.000 A 
ATOM     32  C   UNL     1      -3.351  11.177  16.980  0.00  0.00    +0.000 A 
ATOM     33  N   UNL     1      -3.044  11.697  18.179  0.00  0.00    +0.000 NA
ENDBRANCH  25  28
ENDBRANCH  18  19
ENDBRANCH   3  18
TORSDOF 5
ENDMDL
MODEL 2
REMARK VINA RESULT:      -9.1      0.838      1.452
REMARK  Name = 
REMARK  5 active torsions:
REMARK  status: ('A' for Active; 'I' for Inactive)
REMARK    1  A    between atoms: C_2  and  C_20
REMARK    2  A    between atoms: N_3  and  C_4
REMARK    3  A    between atoms: C_4  and  C_5
REMARK    4  A    between atoms: C_11  and  C_12
REMARK    5  A    between atoms: C_24  and  C_25
REMARK                            x       y       z     vdW  Elec       q    Type
REMARK                         _______ _______ _______ _____ _____    ______ ____
ROOT
ATOM      1  O   UNL     1       1.665   8.458  19.235  0.00  0.00    +0.000 OA
ATOM      2  C   UNL     1       1.865   7.703  20.177  0.00  0.00    +0.000 C 
ATOM      3  N   UNL     1       1.674   8.045  21.497  0.00  0.00    +0.000 N 
ATOM      4  H   UNL     1       2.098   7.467  22.213  0.00  0.00    +0.000 HD
ENDROOT
BRANCH   2   5
ATOM      5  C   UNL     1       2.351   6.319  19.946  0.00  0.00    +0.000 A 
ATOM      6  C   UNL     1       1.781   5.261  20.650  0.00  0.00    +0.000 A 
ATOM      7  C   UNL     1       2.228   3.963  20.414  0.00  0.00    +0.000 A 
ATOM      8  C   UNL     1       3.248   3.729  19.481  0.00  0.00    +0.000 A 
ATOM      9  C   UNL     1       3.873   4.781  18.787  0.00  0.00    +0.000 A 
ATOM     10  C   UNL     1       3.405   6.080  19.051  0.00  0.00    +0.000 A 
BRANCH   9  11
ATOM     11  C   UNL     1       5.002   4.554  17.850  0.00  0.00    +0.000 A 
ATOM     12  C   UNL     1       6.324   4.873  18.214  0.00  0.00    +0.000 A 
ATOM     13  C   UNL     1       7.391   4.712  17.321  0.00  0.00    +0.000 A 
ATOM     14  C   UNL     1       7.162   4.237  16.034  0.00  0.00    +0.000 A 
ATOM     15  C   UNL     1       5.871   3.906  15.646  0.00  0.00    +0.000 A 
ATOM     16  C   UNL     1       4.814   4.053  16.546  0.00  0.00    +0.000 A 
ATOM     17  F   UNL     1       3.592   3.696  16.119  0.00  0.00    +0.000 F 
ENDBRANCH   9  11
ENDBRANCH   2   5
BRANCH   3  18
ATOM     18  C   UNL     1       1.197   9.353  21.901  0.00  0.00    +0.000 C 
BRANCH  18  19
ATOM     19  C   UNL     1      -0.299   9.410  22.282  0.00  0.00    +0.000 C 
ATOM     20  C   UNL     1      -0.634  10.505  23.302  0.00  0.00    +0.000 C 
ATOM     21  C   UNL     1      -0.927  11.610  22.358  0.00  0.00    +0.000 A 
ATOM     22  C   UNL     1      -0.962  12.971  22.581  0.00  0.00    +0.000 A 
ATOM     23  C   UNL     1      -1.290  13.797  21.507  0.00  0.00    +0.000 A 
ATOM     24  C   UNL     1      -1.614  13.245  20.252  0.00  0.00    +0.000 A 
ATOM     25  C   UNL     1      -1.615  11.853  20.022  0.00  0.00    +0.000 A 
ATOM     26  C   UNL     1      -1.233  11.072  21.108  0.00  0.00    +0.000 A 
ATOM     27  O   UNL     1      -1.062   9.702  21.081  0.00  0.00    +0.000 OA
BRANCH  25  28
ATOM     28  C   UNL     1      -1.989  11.285  18.720  0.00  0.00    +0.000 A 
ATOM     29  N   UNL     1      -3.145  11.701  18.162  0.00  0.00    +0.000 NA
ATOM     30  C   UNL     1      -3.460  11.160  16.969  0.00  0.00    +0.000 A 
ATOM     31  C   UNL     1      -2.682  10.225  16.326  0.00  0.00    +0.000 A 
ATOM     32  C   UNL     1      -1.539   9.853  16.984  0.00  0.00    +0.000 A 
ATOM     33  N   UNL     1      -1.177  10.358  18.175  0.00  0.00    +0.000 NA
ENDBRANCH  25  28
ENDBRANCH  18  19
ENDBRANCH   3  18
TORSDOF 5
ENDMDL
MODEL 3
REMARK VINA RESULT:      -9.0      3.149      9.710
REMARK  Name = 
REMARK  5 active torsions:
REMARK  status: ('A' for Active; 'I' for Inactive)
REMARK    1  A    between atoms: C_2  and  C_20
REMARK    2  A    between atoms: N_3  and  C_4
REMARK    3  A    between atoms: C_4  and  C_5
REMARK    4  A    between atoms: C_11  and  C_12
REMARK    5  A    between atoms: C_24  and  C_25
REMARK                            x       y       z     vdW  Elec       q    Type
REMARK                         _______ _______ _______ _____ _____    ______ ____
ROOT
ATOM      1  O   UNL     1       2.115   9.915  17.338  0.00  0.00    +0.000 OA
ATOM      2  C   UNL     1       1.595   9.955  18.446  0.00  0.00    +0.000 C 
ATOM      3  N   UNL     1       1.403   8.853  19.250  0.00  0.00    +0.000 N 
ATOM      4  H   UNL     1       0.749   8.926  20.020  0.00  0.00    +0.000 HD
ENDROOT
BRANCH   2   5
ATOM      5  C   UNL     1       1.115  11.242  19.010  0.00  0.00    +0.000 A 
ATOM      6  C   UNL     1       1.836  12.409  18.774  0.00  0.00    +0.000 A 
ATOM      7  C   UNL     1       1.369  13.617  19.288  0.00  0.00    +0.000 A 
ATOM      8  C   UNL     1       0.189  13.651  20.043  0.00  0.00    +0.000 A 
ATOM      9  C   UNL     1      -0.537  12.481  20.335  0.00  0.00    +0.000 A 
ATOM     10  C   UNL     1      -0.039  11.277  19.808  0.00  0.00    +0.000 A 
BRANCH   9  11
ATOM     11  C   UNL     1      -1.750  12.493  21.192  0.00  0.00    +0.000 A 
ATOM     12  C   UNL     1      -2.974  12.997  20.711  0.00  0.00    +0.000 A 
ATOM     13  C   UNL     1      -4.111  13.062  21.526  0.00  0.00    +0.000 A 
ATOM     14  C   UNL     1      -4.052  12.636  22.849  0.00  0.00    +0.000 A 
ATOM     15  C   UNL     1      -2.861  12.127  23.351  0.00  0.00    +0.000 A 
ATOM     16  C   UNL     1      -1.736  12.049  22.529  0.00  0.00    +0.000 A 
ATOM     17  F   UNL     1      -0.620  11.529  23.067  0.00  0.00    +0.000 F 
ENDBRANCH   9  11
ENDBRANCH   2   5
BRANCH   3  18
ATOM     18  C   UNL     1       1.817   7.521  18.857  0.00  0.00    +0.000 C 
BRANCH  18  19
ATOM     19  C   UNL     1       2.525   6.708  19.964  0.00  0.00    +0.000 C 
ATOM     20  C   UNL     1       1.628   5.651  20.620  0.00  0.00    +0.000 C 
ATOM     21  C   UNL     1       1.928   4.511  19.719  0.00  0.00    +0.000 A 
ATOM     22  C   UNL     1       1.220   3.346  19.509  0.00  0.00    +0.000 A 
ATOM     23  C   UNL     1       1.744   2.420  18.609  0.00  0.00    +0.000 A 
ATOM     24  C   UNL     1       2.979   2.659  17.973  0.00  0.00    +0.000 A 
ATOM     25  C   UNL     1       3.728   3.832  18.207  0.00  0.00    +0.000 A 
ATOM     26  C   UNL     1       3.142   4.749  19.073  0.00  0.00    +0.000 A 
ATOM     27  O   UNL     1       3.644   6.002  19.363  0.00  0.00    +0.000 OA
BRANCH  25  28
ATOM     28  C   UNL     1       5.031   4.056  17.567  0.00  0.00    +0.000 A 
ATOM     29  N   UNL     1       6.081   4.347  18.363  0.00  0.00    +0.000 NA
ATOM     30  C   UNL     1       7.260   4.549  17.744  0.00  0.00    +0.000 A 
ATOM     31  C   UNL     1       7.429   4.484  16.381  0.00  0.00    +0.000 A 
ATOM     32  C   UNL     1       6.297   4.203  15.658  0.00  0.00    +0.000 A 
ATOM     33  N   UNL     1       5.096   3.995  16.222  0.00  0.00    +0.000 NA
ENDBRANCH  25  28
ENDBRANCH  18  19
ENDBRANCH   3  18
TORSDOF 5
ENDMDL
MODEL 4
REMARK VINA RESULT:      -9.0      2.159      3.253
REMARK  Name = 
REMARK  5 active torsions:
REMARK  status: ('A' for Active; 'I' for Inactive)
REMARK    1  A    between atoms: C_2  and  C_20
REMARK    2  A    between atoms: N_3  and  C_4
REMARK    3  A    between atoms: C_4  and  C_5
REMARK    4  A    between atoms: C_11  and  C_12
REMARK    5  A    between atoms: C_24  and  C_25
REMARK                            x       y       z     vdW  Elec       q    Type
REMARK                         _______ _______ _______ _____ _____    ______ ____
ROOT
ATOM      1  O   UNL     1       1.590   9.473  22.995  0.00  0.00    +0.000 OA
ATOM      2  C   UNL     1       0.867   9.429  22.009  0.00  0.00    +0.000 C 
ATOM      3  N   UNL     1      -0.407   9.950  21.959  0.00  0.00    +0.000 N 
ATOM      4  H   UNL     1      -1.022   9.651  21.212  0.00  0.00    +0.000 HD
ENDROOT
BRANCH   2   5
ATOM      5  C   UNL     1       1.333   8.777  20.759  0.00  0.00    +0.000 A 
ATOM      6  C   UNL     1       1.245   9.462  19.550  0.00  0.00    +0.000 A 
ATOM      7  C   UNL     1       1.704   8.853  18.384  0.00  0.00    +0.000 A 
ATOM      8  C   UNL     1       2.240   7.559  18.430  0.00  0.00    +0.000 A 
ATOM      9  C   UNL     1       2.302   6.825  19.630  0.00  0.00    +0.000 A 
ATOM     10  C   UNL     1       1.826   7.463  20.788  0.00  0.00    +0.000 A 
BRANCH   9  11
ATOM     11  C   UNL     1       2.802   5.428  19.680  0.00  0.00    +0.000 A 
ATOM     12  C   UNL     1       4.125   5.116  19.312  0.00  0.00    +0.000 A 
ATOM     13  C   UNL     1       4.594   3.797  19.305  0.00  0.00    +0.000 A 
ATOM     14  C   UNL     1       3.748   2.750  19.656  0.00  0.00    +0.000 A 
ATOM     15  C   UNL     1       2.439   3.024  20.031  0.00  0.00    +0.000 A 
ATOM     16  C   UNL     1       1.983   4.343  20.052  0.00  0.00    +0.000 A 
ATOM     17  F   UNL     1       0.714   4.546  20.444  0.00  0.00    +0.000 F 
ENDBRANCH   9  11
ENDBRANCH   2   5
BRANCH   3  18
ATOM     18  C   UNL     1      -1.016  10.625  23.088  0.00  0.00    +0.000 C 
BRANCH  18  19
ATOM     19  C   UNL     1      -1.810  11.902  22.730  0.00  0.00    +0.000 C 
ATOM     20  C   UNL     1      -0.987  13.191  22.844  0.00  0.00    +0.000 C 
ATOM     21  C   UNL     1      -0.457  13.243  21.460  0.00  0.00    +0.000 A 
ATOM     22  C   UNL     1       0.622  13.940  20.958  0.00  0.00    +0.000 A 
ATOM     23  C   UNL     1       0.892  13.826  19.595  0.00  0.00    +0.000 A 
ATOM     24  C   UNL     1       0.058  13.054  18.762  0.00  0.00    +0.000 A 
ATOM     25  C   UNL     1      -1.068  12.365  19.260  0.00  0.00    +0.000 A 
ATOM     26  C   UNL     1      -1.268  12.468  20.633  0.00  0.00    +0.000 A 
ATOM     27  O   UNL     1      -2.240  11.794  21.347  0.00  0.00    +0.000 OA
BRANCH  25  28
ATOM     28  C   UNL     1      -1.952  11.591  18.378  0.00  0.00    +0.000 A 
ATOM     29  N   UNL     1      -1.395  10.620  17.625  0.00  0.00    +0.000 NA
ATOM     30  C   UNL     1      -2.233   9.931  16.826  0.00  0.00    +0.000 A 
ATOM     31  C   UNL     1      -3.583  10.178  16.741  0.00  0.00    +0.000 A 
ATOM     32  C   UNL     1      -4.048  11.198  17.530  0.00  0.00    +0.000 A 
ATOM     33  N   UNL     1      -3.259  11.918  18.344  0.00  0.00    +0.000 NA
ENDBRANCH  25  28
ENDBRANCH  18  19
ENDBRANCH   3  18
TORSDOF 5
ENDMDL
MODEL 5
REMARK VINA RESULT:      -8.8      3.199      9.881
REMARK  Name = 
REMARK  5 active torsions:
REMARK  status: ('A' for Active; 'I' for Inactive)
REMARK    1  A    between atoms: C_2  and  C_20
REMARK    2  A    between atoms: N_3  and  C_4
REMARK    3  A    between atoms: C_4  and  C_5
REMARK    4  A    between atoms: C_11  and  C_12
REMARK    5  A    between atoms: C_24  and  C_25
REMARK                            x       y       z     vdW  Elec       q    Type
REMARK                         _______ _______ _______ _____ _____    ______ ____
ROOT
ATOM      1  O   UNL     1       0.579   9.566  17.661  0.00  0.00    +0.000 OA
ATOM      2  C   UNL     1       0.901   9.735  18.830  0.00  0.00    +0.000 C 
ATOM      3  N   UNL     1       1.532   8.787  19.605  0.00  0.00    +0.000 N 
ATOM      4  H   UNL     1       1.531   8.907  20.611  0.00  0.00    +0.000 HD
ENDROOT
BRANCH   2   5
ATOM      5  C   UNL     1       0.614  11.022  19.514  0.00  0.00    +0.000 A 
ATOM      6  C   UNL     1       1.537  12.062  19.442  0.00  0.00    +0.000 A 
ATOM      7  C   UNL     1       1.252  13.273  20.068  0.00  0.00    +0.000 A 
ATOM      8  C   UNL     1       0.049  13.437  20.769  0.00  0.00    +0.000 A 
ATOM      9  C   UNL     1      -0.883  12.390  20.896  0.00  0.00    +0.000 A 
ATOM     10  C   UNL     1      -0.565  11.178  20.259  0.00  0.00    +0.000 A 
BRANCH   9  11
ATOM     11  C   UNL     1      -2.127  12.528  21.695  0.00  0.00    +0.000 A 
ATOM     12  C   UNL     1      -3.238  13.234  21.194  0.00  0.00    +0.000 A 
ATOM     13  C   UNL     1      -4.397  13.415  21.958  0.00  0.00    +0.000 A 
ATOM     14  C   UNL     1      -4.473  12.905  23.250  0.00  0.00    +0.000 A 
ATOM     15  C   UNL     1      -3.398  12.197  23.771  0.00  0.00    +0.000 A 
ATOM     16  C   UNL     1      -2.251  12.006  22.998  0.00  0.00    +0.000 A 
ATOM     17  F   UNL     1      -1.253  11.295  23.549  0.00  0.00    +0.000 F 
ENDBRANCH   9  11
ENDBRANCH   2   5
BRANCH   3  18
ATOM     18  C   UNL     1       1.891   7.479  19.094  0.00  0.00    +0.000 C 
BRANCH  18  19
ATOM     19  C   UNL     1       2.547   6.536  20.127  0.00  0.00    +0.000 C 
ATOM     20  C   UNL     1       1.608   5.439  20.642  0.00  0.00    +0.000 C 
ATOM     21  C   UNL     1       1.910   4.393  19.635  0.00  0.00    +0.000 A 
ATOM     22  C   UNL     1       1.182   3.275  19.283  0.00  0.00    +0.000 A 
ATOM     23  C   UNL     1       1.713   2.436  18.304  0.00  0.00    +0.000 A 
ATOM     24  C   UNL     1       2.972   2.710  17.732  0.00  0.00    +0.000 A 
ATOM     25  C   UNL     1       3.739   3.832  18.109  0.00  0.00    +0.000 A 
ATOM     26  C   UNL     1       3.147   4.667  19.051  0.00  0.00    +0.000 A 
ATOM     27  O   UNL     1       3.668   5.870  19.486  0.00  0.00    +0.000 OA
BRANCH  25  28
ATOM     28  C   UNL     1       5.065   4.090  17.532  0.00  0.00    +0.000 A 
ATOM     29  N   UNL     1       5.189   4.029  16.190  0.00  0.00    +0.000 NA
ATOM     30  C   UNL     1       6.418   4.268  15.693  0.00  0.00    +0.000 A 
ATOM     31  C   UNL     1       7.515   4.551  16.473  0.00  0.00    +0.000 A 
ATOM     32  C   UNL     1       7.290   4.569  17.826  0.00  0.00    +0.000 A 
ATOM     33  N   UNL     1       6.087   4.336  18.375  0.00  0.00    +0.000 NA
ENDBRANCH  25  28
ENDBRANCH  18  19
ENDBRANCH   3  18
TORSDOF 5
ENDMDL
MODEL 6
REMARK VINA RESULT:      -8.7      2.023      3.198
REMARK  Name = 
REMARK  5 active torsions:
REMARK  status: ('A' for Active; 'I' for Inactive)
REMARK    1  A    between atoms: C_2  and  C_20
REMARK    2  A    between atoms: N_3  and  C_4
REMARK    3  A    between atoms: C_4  and  C_5
REMARK    4  A    between atoms: C_11  and  C_12
REMARK    5  A    between atoms: C_24  and  C_25
REMARK                            x       y       z     vdW  Elec       q    Type
REMARK                         _______ _______ _______ _____ _____    ______ ____
ROOT
ATOM      1  O   UNL     1      -0.626   8.128  21.725  0.00  0.00    +0.000 OA
ATOM      2  C   UNL     1       0.096   9.009  21.276  0.00  0.00    +0.000 C 
ATOM      3  N   UNL     1       0.159  10.289  21.779  0.00  0.00    +0.000 N 
ATOM      4  H   UNL     1       0.575  11.014  21.206  0.00  0.00    +0.000 HD
ENDROOT
BRANCH   2   5
ATOM      5  C   UNL     1       0.977   8.743  20.110  0.00  0.00    +0.000 A 
ATOM      6  C   UNL     1       1.168   9.733  19.150  0.00  0.00    +0.000 A 
ATOM      7  C   UNL     1       2.011   9.485  18.070  0.00  0.00    +0.000 A 
ATOM      8  C   UNL     1       2.655   8.246  17.950  0.00  0.00    +0.000 A 
ATOM      9  C   UNL     1       2.448   7.210  18.881  0.00  0.00    +0.000 A 
ATOM     10  C   UNL     1       1.586   7.488  19.956  0.00  0.00    +0.000 A 
BRANCH   9  11
ATOM     11  C   UNL     1       3.067   5.870  18.728  0.00  0.00    +0.000 A 
ATOM     12  C   UNL     1       4.327   5.583  19.289  0.00  0.00    +0.000 A 
ATOM     13  C   UNL     1       4.945   4.340  19.107  0.00  0.00    +0.000 A 
ATOM     14  C   UNL     1       4.325   3.352  18.349  0.00  0.00    +0.000 A 
ATOM     15  C   UNL     1       3.079   3.600  17.788  0.00  0.00    +0.000 A 
ATOM     16  C   UNL     1       2.461   4.836  17.987  0.00  0.00    +0.000 A 
ATOM     17  F   UNL     1       1.247   5.008  17.437  0.00  0.00    +0.000 F 
ENDBRANCH   9  11
ENDBRANCH   2   5
BRANCH   3  18
ATOM     18  C   UNL     1      -0.629  10.717  22.918  0.00  0.00    +0.000 C 
BRANCH  18  19
ATOM     19  C   UNL     1      -1.533  11.943  22.658  0.00  0.00    +0.000 C 
ATOM     20  C   UNL     1      -0.785  13.280  22.701  0.00  0.00    +0.000 C 
ATOM     21  C   UNL     1      -0.405  13.373  21.271  0.00  0.00    +0.000 A 
ATOM     22  C   UNL     1       0.571  14.139  20.667  0.00  0.00    +0.000 A 
ATOM     23  C   UNL     1       0.705  14.048  19.283  0.00  0.00    +0.000 A 
ATOM     24  C   UNL     1      -0.162  13.229  18.532  0.00  0.00    +0.000 A 
ATOM     25  C   UNL     1      -1.185  12.468  19.135  0.00  0.00    +0.000 A 
ATOM     26  C   UNL     1      -1.248  12.551  20.522  0.00  0.00    +0.000 A 
ATOM     27  O   UNL     1      -2.097  11.815  21.325  0.00  0.00    +0.000 OA
BRANCH  25  28
ATOM     28  C   UNL     1      -2.106  11.645  18.340  0.00  0.00    +0.000 A 
ATOM     29  N   UNL     1      -3.427  11.896  18.449  0.00  0.00    +0.000 NA
ATOM     30  C   UNL     1      -4.244  11.123  17.708  0.00  0.00    +0.000 A 
ATOM     31  C   UNL     1      -3.802  10.115  16.884  0.00  0.00    +0.000 A 
ATOM     32  C   UNL     1      -2.444   9.924  16.859  0.00  0.00    +0.000 A 
ATOM     33  N   UNL     1      -1.584  10.664  17.577  0.00  0.00    +0.000 NA
ENDBRANCH  25  28
ENDBRANCH  18  19
ENDBRANCH   3  18
TORSDOF 5
ENDMDL
MODEL 7
REMARK VINA RESULT:      -8.6      1.009      1.118
REMARK  Name = 
REMARK  5 active torsions:
REMARK  status: ('A' for Active; 'I' for Inactive)
REMARK    1  A    between atoms: C_2  and  C_20
REMARK    2  A    between atoms: N_3  and  C_4
REMARK    3  A    between atoms: C_4  and  C_5
REMARK    4  A    between atoms: C_11  and  C_12
REMARK    5  A    between atoms: C_24  and  C_25
REMARK                            x       y       z     vdW  Elec       q    Type
REMARK                         _______ _______ _______ _____ _____    ______ ____
ROOT
ATOM      1  O   UNL     1       1.663   8.819  19.272  0.00  0.00    +0.000 OA
ATOM      2  C   UNL     1       1.820   7.944  20.114  0.00  0.00    +0.000 C 
ATOM      3  N   UNL     1       1.617   8.125  21.464  0.00  0.00    +0.000 N 
ATOM      4  H   UNL     1       2.008   7.446  22.107  0.00  0.00    +0.000 HD
ENDROOT
BRANCH   2   5
ATOM      5  C   UNL     1       2.264   6.584  19.717  0.00  0.00    +0.000 A 
ATOM      6  C   UNL     1       1.847   5.480  20.456  0.00  0.00    +0.000 A 
ATOM      7  C   UNL     1       2.250   4.205  20.065  0.00  0.00    +0.000 A 
ATOM      8  C   UNL     1       3.074   4.039  18.944  0.00  0.00    +0.000 A 
ATOM      9  C   UNL     1       3.547   5.139  18.204  0.00  0.00    +0.000 A 
ATOM     10  C   UNL     1       3.129   6.413  18.626  0.00  0.00    +0.000 A 
BRANCH   9  11
ATOM     11  C   UNL     1       4.478   4.983  17.058  0.00  0.00    +0.000 A 
ATOM     12  C   UNL     1       4.974   6.106  16.367  0.00  0.00    +0.000 A 
ATOM     13  C   UNL     1       5.811   5.970  15.252  0.00  0.00    +0.000 A 
ATOM     14  C   UNL     1       6.165   4.707  14.790  0.00  0.00    +0.000 A 
ATOM     15  C   UNL     1       5.698   3.580  15.454  0.00  0.00    +0.000 A 
ATOM     16  C   UNL     1       4.878   3.722  16.574  0.00  0.00    +0.000 A 
ATOM     17  F   UNL     1       4.476   2.595  17.185  0.00  0.00    +0.000 F 
ENDBRANCH   9  11
ENDBRANCH   2   5
BRANCH   3  18
ATOM     18  C   UNL     1       1.177   9.388  22.023  0.00  0.00    +0.000 C 
BRANCH  18  19
ATOM     19  C   UNL     1      -0.324   9.451  22.382  0.00  0.00    +0.000 C 
ATOM     20  C   UNL     1      -0.673  10.566  23.376  0.00  0.00    +0.000 C 
ATOM     21  C   UNL     1      -0.953  11.653  22.406  0.00  0.00    +0.000 A 
ATOM     22  C   UNL     1      -0.991  13.018  22.602  0.00  0.00    +0.000 A 
ATOM     23  C   UNL     1      -1.303  13.822  21.508  0.00  0.00    +0.000 A 
ATOM     24  C   UNL     1      -1.610  13.246  20.258  0.00  0.00    +0.000 A 
ATOM     25  C   UNL     1      -1.608  11.849  20.056  0.00  0.00    +0.000 A 
ATOM     26  C   UNL     1      -1.241  11.090  21.163  0.00  0.00    +0.000 A 
ATOM     27  O   UNL     1      -1.070   9.720  21.164  0.00  0.00    +0.000 OA
BRANCH  25  28
ATOM     28  C   UNL     1      -1.963  11.256  18.760  0.00  0.00    +0.000 A 
ATOM     29  N   UNL     1      -1.095  10.382  18.211  0.00  0.00    +0.000 NA
ATOM     30  C   UNL     1      -1.450   9.858  17.021  0.00  0.00    +0.000 A 
ATOM     31  C   UNL     1      -2.615  10.177  16.363  0.00  0.00    +0.000 A 
ATOM     32  C   UNL     1      -3.419  11.090  16.994  0.00  0.00    +0.000 A 
ATOM     33  N   UNL     1      -3.114  11.646  18.179  0.00  0.00    +0.000 NA
ENDBRANCH  25  28
ENDBRANCH  18  19
ENDBRANCH   3  18
TORSDOF 5
ENDMDL
MODEL 8
REMARK VINA RESULT:      -8.6      3.489      9.977
REMARK  Name = 
REMARK  5 active torsions:
REMARK  status: ('A' for Active; 'I' for Inactive)
REMARK    1  A    between atoms: C_2  and  C_20
REMARK    2  A    between atoms: N_3  and  C_4
REMARK    3  A    between atoms: C_4  and  C_5
REMARK    4  A    between atoms: C_11  and  C_12
REMARK    5  A    between atoms: C_24  and  C_25
REMARK                            x       y       z     vdW  Elec       q    Type
REMARK                         _______ _______ _______ _____ _____    ______ ____
ROOT
ATOM      1  O   UNL     1      -0.109   9.498  17.732  0.00  0.00    +0.000 OA
ATOM      2  C   UNL     1       0.528   9.840  18.721  0.00  0.00    +0.000 C 
ATOM      3  N   UNL     1       1.529   9.088  19.294  0.00  0.00    +0.000 N 
ATOM      4  H   UNL     1       1.822   9.313  20.237  0.00  0.00    +0.000 HD
ENDROOT
BRANCH   2   5
ATOM      5  C   UNL     1       0.243  11.133  19.393  0.00  0.00    +0.000 A 
ATOM      6  C   UNL     1       1.139  12.191  19.260  0.00  0.00    +0.000 A 
ATOM      7  C   UNL     1       0.856  13.407  19.876  0.00  0.00    +0.000 A 
ATOM      8  C   UNL     1      -0.317  13.560  20.628  0.00  0.00    +0.000 A 
ATOM      9  C   UNL     1      -1.219  12.496  20.816  0.00  0.00    +0.000 A 
ATOM     10  C   UNL     1      -0.904  11.279  20.188  0.00  0.00    +0.000 A 
BRANCH   9  11
ATOM     11  C   UNL     1      -2.428  12.623  21.668  0.00  0.00    +0.000 A 
ATOM     12  C   UNL     1      -2.347  12.495  23.068  0.00  0.00    +0.000 A 
ATOM     13  C   UNL     1      -3.488  12.561  23.879  0.00  0.00    +0.000 A 
ATOM     14  C   UNL     1      -4.744  12.745  23.309  0.00  0.00    +0.000 A 
ATOM     15  C   UNL     1      -4.857  12.883  21.932  0.00  0.00    +0.000 A 
ATOM     16  C   UNL     1      -3.714  12.833  21.131  0.00  0.00    +0.000 A 
ATOM     17  F   UNL     1      -3.887  12.993  19.808  0.00  0.00    +0.000 F 
ENDBRANCH   9  11
ENDBRANCH   2   5
BRANCH   3  18
ATOM     18  C   UNL     1       1.939   7.803  18.763  0.00  0.00    +0.000 C 
BRANCH  18  19
ATOM     19  C   UNL     1       2.687   6.895  19.764  0.00  0.00    +0.000 C 
ATOM     20  C   UNL     1       1.791   5.843  20.429  0.00  0.00    +0.000 C 
ATOM     21  C   UNL     1       1.965   4.746  19.446  0.00  0.00    +0.000 A 
ATOM     22  C   UNL     1       1.186   3.628  19.228  0.00  0.00    +0.000 A 
ATOM     23  C   UNL     1       1.594   2.735  18.240  0.00  0.00    +0.000 A 
ATOM     24  C   UNL     1       2.788   2.955  17.523  0.00  0.00    +0.000 A 
ATOM     25  C   UNL     1       3.610   4.076  17.762  0.00  0.00    +0.000 A 
ATOM     26  C   UNL     1       3.137   4.966  18.721  0.00  0.00    +0.000 A 
ATOM     27  O   UNL     1       3.721   6.176  19.039  0.00  0.00    +0.000 OA
BRANCH  25  28
ATOM     28  C   UNL     1       4.870   4.279  17.035  0.00  0.00    +0.000 A 
ATOM     29  N   UNL     1       6.004   4.374  17.759  0.00  0.00    +0.000 NA
ATOM     30  C   UNL     1       7.142   4.562  17.062  0.00  0.00    +0.000 A 
ATOM     31  C   UNL     1       7.190   4.667  15.691  0.00  0.00    +0.000 A 
ATOM     32  C   UNL     1       5.981   4.578  15.049  0.00  0.00    +0.000 A 
ATOM     33  N   UNL     1       4.817   4.393  15.694  0.00  0.00    +0.000 NA
ENDBRANCH  25  28
ENDBRANCH  18  19
ENDBRANCH   3  18
TORSDOF 5
ENDMDL
MODEL 9
REMARK VINA RESULT:      -8.6      1.882      3.130
REMARK  Name = 
REMARK  5 active torsions:
REMARK  status: ('A' for Active; 'I' for Inactive)
REMARK    1  A    between atoms: C_2  and  C_20
REMARK    2  A    between atoms: N_3  and  C_4
REMARK    3  A    between atoms: C_4  and  C_5
REMARK    4  A    between atoms: C_11  and  C_12
REMARK    5  A    between atoms: C_24  and  C_25
REMARK                            x       y       z     vdW  Elec       q    Type
REMARK                         _______ _______ _______ _____ _____    ______ ____
ROOT
ATOM      1  O   UNL     1       1.465   9.460  22.877  0.00  0.00    +0.000 OA
ATOM      2  C   UNL     1       0.825   9.582  21.841  0.00  0.00    +0.000 C 
ATOM      3  N   UNL     1      -0.344  10.302  21.735  0.00  0.00    +0.000 N 
ATOM      4  H   UNL     1      -0.937  10.144  20.928  0.00  0.00    +0.000 HD
ENDROOT
BRANCH   2   5
ATOM      5  C   UNL     1       1.283   8.930  20.588  0.00  0.00    +0.000 A 
ATOM      6  C   UNL     1       1.157   9.602  19.375  0.00  0.00    +0.000 A 
ATOM      7  C   UNL     1       1.608   8.993  18.207  0.00  0.00    +0.000 A 
ATOM      8  C   UNL     1       2.176   7.713  18.254  0.00  0.00    +0.000 A 
ATOM      9  C   UNL     1       2.277   6.991  19.458  0.00  0.00    +0.000 A 
ATOM     10  C   UNL     1       1.807   7.629  20.620  0.00  0.00    +0.000 A 
BRANCH   9  11
ATOM     11  C   UNL     1       2.810   5.607  19.511  0.00  0.00    +0.000 A 
ATOM     12  C   UNL     1       2.035   4.549  20.024  0.00  0.00    +0.000 A 
ATOM     13  C   UNL     1       2.545   3.249  20.128  0.00  0.00    +0.000 A 
ATOM     14  C   UNL     1       3.850   2.973  19.733  0.00  0.00    +0.000 A 
ATOM     15  C   UNL     1       4.638   3.993  19.215  0.00  0.00    +0.000 A 
ATOM     16  C   UNL     1       4.118   5.283  19.099  0.00  0.00    +0.000 A 
ATOM     17  F   UNL     1       4.922   6.222  18.572  0.00  0.00    +0.000 F 
ENDBRANCH   9  11
ENDBRANCH   2   5
BRANCH   3  18
ATOM     18  C   UNL     1      -0.930  11.006  22.858  0.00  0.00    +0.000 C 
BRANCH  18  19
ATOM     19  C   UNL     1      -1.847  12.190  22.476  0.00  0.00    +0.000 C 
ATOM     20  C   UNL     1      -1.140  13.550  22.503  0.00  0.00    +0.000 C 
ATOM     21  C   UNL     1      -0.665  13.585  21.098  0.00  0.00    +0.000 A 
ATOM     22  C   UNL     1       0.329  14.350  20.525  0.00  0.00    +0.000 A 
ATOM     23  C   UNL     1       0.561  14.197  19.159  0.00  0.00    +0.000 A 
ATOM     24  C   UNL     1      -0.229  13.316  18.393  0.00  0.00    +0.000 A 
ATOM     25  C   UNL     1      -1.271  12.554  18.963  0.00  0.00    +0.000 A 
ATOM     26  C   UNL     1      -1.432  12.703  20.337  0.00  0.00    +0.000 A 
ATOM     27  O   UNL     1      -2.314  11.980  21.116  0.00  0.00    +0.000 OA
BRANCH  25  28
ATOM     28  C   UNL     1      -2.112  11.666  18.150  0.00  0.00    +0.000 A 
ATOM     29  N   UNL     1      -1.497  10.703  17.432  0.00  0.00    +0.000 NA
ATOM     30  C   UNL     1      -2.297   9.907  16.696  0.00  0.00    +0.000 A 
ATOM     31  C   UNL     1      -3.665  10.039  16.640  0.00  0.00    +0.000 A 
ATOM     32  C   UNL     1      -4.190  11.061  17.389  0.00  0.00    +0.000 A 
ATOM     33  N   UNL     1      -3.441  11.885  18.139  0.00  0.00    +0.000 NA
ENDBRANCH  25  28
ENDBRANCH  18  19
ENDBRANCH   3  18
TORSDOF 5
ENDMDL
