MODEL 1
REMARK VINA RESULT:      -7.7      0.000      0.000
REMARK  Name = 
REMARK  10 active torsions:
REMARK  status: ('A' for Active; 'I' for Inactive)
REMARK    1  A    between atoms: C_1  and  C_2
REMARK    2  A    between atoms: C_2  and  C_3
REMARK    3  A    between atoms: C_3  and  O_4
REMARK    4  A    between atoms: O_4  and  C_5
REMARK    5  A    between atoms: C_7  and  O_8
REMARK    6  A    between atoms: O_8  and  C_9
REMARK    7  A    between atoms: C_9  and  C_10
REMARK    8  A    between atoms: C_10  and  C_11
REMARK    9  A    between atoms: C_16  and  C_17
REMARK   10  A    between atoms: C_20  and  C_21
REMARK                            x       y       z     vdW  Elec       q    Type
REMARK                         _______ _______ _______ _____ _____    ______ ____
ROOT
ATOM      1  C   UNL     1       4.737   6.161  17.465  0.00  0.00    +0.000 A 
ATOM      2  C   UNL     1       4.682   4.851  17.925  0.00  0.00    +0.000 A 
ATOM      3  C   UNL     1       3.846   4.470  19.003  0.00  0.00    +0.000 A 
ATOM      4  C   UNL     1       2.958   5.437  19.541  0.00  0.00    +0.000 A 
ATOM      5  C   UNL     1       1.956   5.204  20.605  0.00  0.00    +0.000 A 
ATOM      6  O   UNL     1       1.708   4.109  21.095  0.00  0.00    +0.000 OA
ATOM      7  C   UNL     1       1.204   6.412  21.093  0.00  0.00    +0.000 A 
ATOM      8  C   UNL     1       1.422   7.601  20.543  0.00  0.00    +0.000 A 
ATOM      9  O   UNL     1       2.289   7.804  19.499  0.00  0.00    +0.000 OA
ATOM     10  C   UNL     1       3.023   6.745  19.047  0.00  0.00    +0.000 A 
ATOM     11  C   UNL     1       3.902   7.099  18.037  0.00  0.00    +0.000 A 
ENDROOT
BRANCH   8  12
ATOM     12  C   UNL     1       0.780   8.832  21.000  0.00  0.00    +0.000 A 
ATOM     13  C   UNL     1       0.518   9.865  20.091  0.00  0.00    +0.000 A 
ATOM     14  C   UNL     1      -0.115  11.039  20.510  0.00  0.00    +0.000 A 
ATOM     15  C   UNL     1      -0.507  11.196  21.847  0.00  0.00    +0.000 A 
ATOM     16  C   UNL     1      -0.257  10.156  22.754  0.00  0.00    +0.000 A 
ATOM     17  C   UNL     1       0.381   8.979  22.334  0.00  0.00    +0.000 A 
BRANCH  15  18
ATOM     18  C   UNL     1      -1.197  12.457  22.311  0.00  0.00    +0.000 C 
ATOM     19  F   UNL     1      -2.117  12.247  23.294  0.00  0.00    +0.000 F 
ATOM     20  F   UNL     1      -0.323  13.376  22.812  0.00  0.00    +0.000 F 
ATOM     21  F   UNL     1      -1.865  13.088  21.304  0.00  0.00    +0.000 F 
ENDBRANCH  15  18
ENDBRANCH   8  12
BRANCH   1  22
ATOM     22  O   UNL     1       5.658   6.428  16.484  0.00  0.00    +0.000 OA
BRANCH  22  23
ATOM     23  C   UNL     1       6.966   5.963  16.791  0.00  0.00    +0.000 C 
BRANCH  23  25
ATOM     24  C   UNL     1       7.675   8.224  17.514  0.00  0.00    +0.000 C 
ATOM     25  C   UNL     1       7.578   6.761  17.921  0.00  0.00    +0.000 C 
ENDBRANCH  23  25
ENDBRANCH  22  23
ENDBRANCH   1  22
BRANCH   3  26
ATOM     26  O   UNL     1       3.942   3.205  19.534  0.00  0.00    +0.000 OA
BRANCH  26  27
ATOM     27  C   UNL     1       3.721   2.146  18.573  0.00  0.00    +0.000 C 
BRANCH  27  28
ATOM     28  C   UNL     1       2.413   2.280  17.807  0.00  0.00    +0.000 C 
ATOM     29  C   UNL     1       1.221   2.015  18.706  0.00  0.00    +0.000 C 
ENDBRANCH  27  28
ENDBRANCH  26  27
ENDBRANCH   3  26
TORSDOF 8
ENDMDL
MODEL 2
REMARK VINA RESULT:      -7.7      0.930      1.556
REMARK  Name = 
REMARK  10 active torsions:
REMARK  status: ('A' for Active; 'I' for Inactive)
REMARK    1  A    between atoms: C_1  and  C_2
REMARK    2  A    between atoms: C_2  and  C_3
REMARK    3  A    between atoms: C_3  and  O_4
REMARK    4  A    between atoms: O_4  and  C_5
REMARK    5  A    between atoms: C_7  and  O_8
REMARK    6  A    between atoms: O_8  and  C_9
REMARK    7  A    between atoms: C_9  and  C_10
REMARK    8  A    between atoms: C_10  and  C_11
REMARK    9  A    between atoms: C_16  and  C_17
REMARK   10  A    between atoms: C_20  and  C_21
REMARK                            x       y       z     vdW  Elec       q    Type
REMARK                         _______ _______ _______ _____ _____    ______ ____
ROOT
ATOM      1  C   UNL     1       4.441   6.031  17.130  0.00  0.00    +0.000 A 
ATOM      2  C   UNL     1       4.484   4.778  17.729  0.00  0.00    +0.000 A 
ATOM      3  C   UNL     1       3.797   4.500  18.936  0.00  0.00    +0.000 A 
ATOM      4  C   UNL     1       2.951   5.502  19.475  0.00  0.00    +0.000 A 
ATOM      5  C   UNL     1       2.092   5.367  20.673  0.00  0.00    +0.000 A 
ATOM      6  O   UNL     1       1.941   4.326  21.303  0.00  0.00    +0.000 OA
ATOM      7  C   UNL     1       1.366   6.605  21.120  0.00  0.00    +0.000 A 
ATOM      8  C   UNL     1       1.477   7.732  20.426  0.00  0.00    +0.000 A 
ATOM      9  O   UNL     1       2.204   7.837  19.268  0.00  0.00    +0.000 OA
ATOM     10  C   UNL     1       2.912   6.750  18.842  0.00  0.00    +0.000 A 
ATOM     11  C   UNL     1       3.651   7.009  17.699  0.00  0.00    +0.000 A 
ENDROOT
BRANCH   8  12
ATOM     12  C   UNL     1       0.855   8.993  20.827  0.00  0.00    +0.000 A 
ATOM     13  C   UNL     1       0.751  10.046  19.910  0.00  0.00    +0.000 A 
ATOM     14  C   UNL     1       0.140  11.249  20.273  0.00  0.00    +0.000 A 
ATOM     15  C   UNL     1      -0.390  11.417  21.560  0.00  0.00    +0.000 A 
ATOM     16  C   UNL     1      -0.298  10.357  22.474  0.00  0.00    +0.000 A 
ATOM     17  C   UNL     1       0.318   9.150  22.110  0.00  0.00    +0.000 A 
BRANCH  15  18
ATOM     18  C   UNL     1      -1.059  12.710  21.963  0.00  0.00    +0.000 C 
ATOM     19  F   UNL     1      -0.816  13.741  21.106  0.00  0.00    +0.000 F 
ATOM     20  F   UNL     1      -2.416  12.595  22.031  0.00  0.00    +0.000 F 
ATOM     21  F   UNL     1      -0.659  13.144  23.191  0.00  0.00    +0.000 F 
ENDBRANCH  15  18
ENDBRANCH   8  12
BRANCH   1  22
ATOM     22  O   UNL     1       5.228   6.209  16.021  0.00  0.00    +0.000 OA
BRANCH  22  23
ATOM     23  C   UNL     1       6.497   5.577  16.117  0.00  0.00    +0.000 C 
BRANCH  23  25
ATOM     24  C   UNL     1       5.913   4.055  14.250  0.00  0.00    +0.000 C 
ATOM     25  C   UNL     1       6.945   5.044  14.774  0.00  0.00    +0.000 C 
ENDBRANCH  23  25
ENDBRANCH  22  23
ENDBRANCH   1  22
BRANCH   3  26
ATOM     26  O   UNL     1       3.998   3.302  19.582  0.00  0.00    +0.000 OA
BRANCH  26  27
ATOM     27  C   UNL     1       3.427   2.163  18.896  0.00  0.00    +0.000 C 
BRANCH  27  28
ATOM     28  C   UNL     1       2.058   1.758  19.420  0.00  0.00    +0.000 C 
ATOM     29  C   UNL     1       0.948   2.371  18.588  0.00  0.00    +0.000 C 
ENDBRANCH  27  28
ENDBRANCH  26  27
ENDBRANCH   3  26
TORSDOF 8
ENDMDL
MODEL 3
REMARK VINA RESULT:      -7.6      0.963      1.427
REMARK  Name = 
REMARK  10 active torsions:
REMARK  status: ('A' for Active; 'I' for Inactive)
REMARK    1  A    between atoms: C_1  and  C_2
REMARK    2  A    between atoms: C_2  and  C_3
REMARK    3  A    between atoms: C_3  and  O_4
REMARK    4  A    between atoms: O_4  and  C_5
REMARK    5  A    between atoms: C_7  and  O_8
REMARK    6  A    between atoms: O_8  and  C_9
REMARK    7  A    between atoms: C_9  and  C_10
REMARK    8  A    between atoms: C_10  and  C_11
REMARK    9  A    between atoms: C_16  and  C_17
REMARK   10  A    between atoms: C_20  and  C_21
REMARK                            x       y       z     vdW  Elec       q    Type
REMARK                         _______ _______ _______ _____ _____    ______ ____
ROOT
ATOM      1  C   UNL     1       4.545   6.344  17.175  0.00  0.00    +0.000 A 
ATOM      2  C   UNL     1       4.630   5.043  17.657  0.00  0.00    +0.000 A 
ATOM      3  C   UNL     1       3.924   4.624  18.811  0.00  0.00    +0.000 A 
ATOM      4  C   UNL     1       3.017   5.533  19.412  0.00  0.00    +0.000 A 
ATOM      5  C   UNL     1       2.133   5.249  20.566  0.00  0.00    +0.000 A 
ATOM      6  O   UNL     1       2.014   4.148  21.091  0.00  0.00    +0.000 OA
ATOM      7  C   UNL     1       1.340   6.408  21.102  0.00  0.00    +0.000 A 
ATOM      8  C   UNL     1       1.418   7.598  20.520  0.00  0.00    +0.000 A 
ATOM      9  O   UNL     1       2.171   7.843  19.399  0.00  0.00    +0.000 OA
ATOM     10  C   UNL     1       2.939   6.833  18.897  0.00  0.00    +0.000 A 
ATOM     11  C   UNL     1       3.697   7.229  17.807  0.00  0.00    +0.000 A 
ENDROOT
BRANCH   8  12
ATOM     12  C   UNL     1       0.728   8.788  21.015  0.00  0.00    +0.000 A 
ATOM     13  C   UNL     1       0.338   9.795  20.124  0.00  0.00    +0.000 A 
ATOM     14  C   UNL     1      -0.341  10.928  20.581  0.00  0.00    +0.000 A 
ATOM     15  C   UNL     1      -0.653  11.068  21.941  0.00  0.00    +0.000 A 
ATOM     16  C   UNL     1      -0.275  10.052  22.831  0.00  0.00    +0.000 A 
ATOM     17  C   UNL     1       0.409   8.917  22.373  0.00  0.00    +0.000 A 
BRANCH  15  18
ATOM     18  C   UNL     1      -1.392  12.284  22.447  0.00  0.00    +0.000 C 
ATOM     19  F   UNL     1      -2.312  12.002  23.412  0.00  0.00    +0.000 F 
ATOM     20  F   UNL     1      -0.556  13.213  22.992  0.00  0.00    +0.000 F 
ATOM     21  F   UNL     1      -2.074  12.930  21.459  0.00  0.00    +0.000 F 
ENDBRANCH  15  18
ENDBRANCH   8  12
BRANCH   1  22
ATOM     22  O   UNL     1       5.353   6.659  16.112  0.00  0.00    +0.000 OA
BRANCH  22  23
ATOM     23  C   UNL     1       6.097   5.553  15.616  0.00  0.00    +0.000 C 
BRANCH  23  25
ATOM     24  C   UNL     1       6.301   3.852  13.827  0.00  0.00    +0.000 C 
ATOM     25  C   UNL     1       5.392   4.903  14.447  0.00  0.00    +0.000 C 
ENDBRANCH  23  25
ENDBRANCH  22  23
ENDBRANCH   1  22
BRANCH   3  26
ATOM     26  O   UNL     1       4.161   3.380  19.348  0.00  0.00    +0.000 OA
BRANCH  26  27
ATOM     27  C   UNL     1       3.650   2.288  18.549  0.00  0.00    +0.000 C 
BRANCH  27  28
ATOM     28  C   UNL     1       2.333   2.602  17.856  0.00  0.00    +0.000 C 
ATOM     29  C   UNL     1       1.152   2.124  18.679  0.00  0.00    +0.000 C 
ENDBRANCH  27  28
ENDBRANCH  26  27
ENDBRANCH   3  26
TORSDOF 8
ENDMDL
MODEL 4
REMARK VINA RESULT:      -7.6      1.840      2.515
REMARK  Name = 
REMARK  10 active torsions:
REMARK  status: ('A' for Active; 'I' for Inactive)
REMARK    1  A    between atoms: C_1  and  C_2
REMARK    2  A    between atoms: C_2  and  C_3
REMARK    3  A    between atoms: C_3  and  O_4
REMARK    4  A    between atoms: O_4  and  C_5
REMARK    5  A    between atoms: C_7  and  O_8
REMARK    6  A    between atoms: O_8  and  C_9
REMARK    7  A    between atoms: C_9  and  C_10
REMARK    8  A    between atoms: C_10  and  C_11
REMARK    9  A    between atoms: C_16  and  C_17
REMARK   10  A    between atoms: C_20  and  C_21
REMARK                            x       y       z     vdW  Elec       q    Type
REMARK                         _______ _______ _______ _____ _____    ______ ____
ROOT
ATOM      1  C   UNL     1       5.513   5.632  16.425  0.00  0.00    +0.000 A 
ATOM      2  C   UNL     1       5.641   4.540  17.275  0.00  0.00    +0.000 A 
ATOM      3  C   UNL     1       4.908   4.440  18.483  0.00  0.00    +0.000 A 
ATOM      4  C   UNL     1       3.933   5.432  18.762  0.00  0.00    +0.000 A 
ATOM      5  C   UNL     1       3.016   5.450  19.925  0.00  0.00    +0.000 A 
ATOM      6  O   UNL     1       2.929   4.549  20.751  0.00  0.00    +0.000 OA
ATOM      7  C   UNL     1       2.145   6.666  20.071  0.00  0.00    +0.000 A 
ATOM      8  C   UNL     1       2.188   7.632  19.162  0.00  0.00    +0.000 A 
ATOM      9  O   UNL     1       2.975   7.579  18.039  0.00  0.00    +0.000 OA
ATOM     10  C   UNL     1       3.813   6.512  17.881  0.00  0.00    +0.000 A 
ATOM     11  C   UNL     1       4.595   6.613  16.742  0.00  0.00    +0.000 A 
ENDROOT
BRANCH   8  12
ATOM     12  C   UNL     1       1.420   8.873  19.262  0.00  0.00    +0.000 A 
ATOM     13  C   UNL     1       1.240   9.679  18.131  0.00  0.00    +0.000 A 
ATOM     14  C   UNL     1       0.490  10.856  18.208  0.00  0.00    +0.000 A 
ATOM     15  C   UNL     1      -0.103  11.242  19.418  0.00  0.00    +0.000 A 
ATOM     16  C   UNL     1       0.067  10.427  20.547  0.00  0.00    +0.000 A 
ATOM     17  C   UNL     1       0.822   9.248  20.471  0.00  0.00    +0.000 A 
BRANCH  15  18
ATOM     18  C   UNL     1      -0.921  12.509  19.513  0.00  0.00    +0.000 C 
ATOM     19  F   UNL     1      -0.633  13.265  20.610  0.00  0.00    +0.000 F 
ATOM     20  F   UNL     1      -0.740  13.328  18.439  0.00  0.00    +0.000 F 
ATOM     21  F   UNL     1      -2.260  12.262  19.572  0.00  0.00    +0.000 F 
ENDBRANCH  15  18
ENDBRANCH   8  12
BRANCH   1  22
ATOM     22  O   UNL     1       6.348   5.665  15.338  0.00  0.00    +0.000 OA
BRANCH  22  23
ATOM     23  C   UNL     1       6.630   4.380  14.798  0.00  0.00    +0.000 C 
BRANCH  23  25
ATOM     24  C   UNL     1       6.391   3.565  12.471  0.00  0.00    +0.000 C 
ATOM     25  C   UNL     1       5.639   4.014  13.715  0.00  0.00    +0.000 C 
ENDBRANCH  23  25
ENDBRANCH  22  23
ENDBRANCH   1  22
BRANCH   3  26
ATOM     26  O   UNL     1       5.183   3.428  19.373  0.00  0.00    +0.000 OA
BRANCH  26  27
ATOM     27  C   UNL     1       4.213   2.356  19.361  0.00  0.00    +0.000 C 
BRANCH  27  28
ATOM     28  C   UNL     1       3.626   2.077  17.985  0.00  0.00    +0.000 C 
ATOM     29  C   UNL     1       2.116   2.226  17.993  0.00  0.00    +0.000 C 
ENDBRANCH  27  28
ENDBRANCH  26  27
ENDBRANCH   3  26
TORSDOF 8
ENDMDL
MODEL 5
REMARK VINA RESULT:      -7.6      1.552      4.106
REMARK  Name = 
REMARK  10 active torsions:
REMARK  status: ('A' for Active; 'I' for Inactive)
REMARK    1  A    between atoms: C_1  and  C_2
REMARK    2  A    between atoms: C_2  and  C_3
REMARK    3  A    between atoms: C_3  and  O_4
REMARK    4  A    between atoms: O_4  and  C_5
REMARK    5  A    between atoms: C_7  and  O_8
REMARK    6  A    between atoms: O_8  and  C_9
REMARK    7  A    between atoms: C_9  and  C_10
REMARK    8  A    between atoms: C_10  and  C_11
REMARK    9  A    between atoms: C_16  and  C_17
REMARK   10  A    between atoms: C_20  and  C_21
REMARK                            x       y       z     vdW  Elec       q    Type
REMARK                         _______ _______ _______ _____ _____    ______ ____
ROOT
ATOM      1  C   UNL     1       2.817   4.920  20.348  0.00  0.00    +0.000 A 
ATOM      2  C   UNL     1       3.380   5.064  19.086  0.00  0.00    +0.000 A 
ATOM      3  C   UNL     1       3.165   6.221  18.298  0.00  0.00    +0.000 A 
ATOM      4  C   UNL     1       2.452   7.303  18.872  0.00  0.00    +0.000 A 
ATOM      5  C   UNL     1       2.203   8.618  18.237  0.00  0.00    +0.000 A 
ATOM      6  O   UNL     1       2.668   8.964  17.157  0.00  0.00    +0.000 OA
ATOM      7  C   UNL     1       1.322   9.571  18.996  0.00  0.00    +0.000 A 
ATOM      8  C   UNL     1       0.846   9.236  20.189  0.00  0.00    +0.000 A 
ATOM      9  O   UNL     1       1.144   8.053  20.816  0.00  0.00    +0.000 OA
ATOM     10  C   UNL     1       1.910   7.138  20.152  0.00  0.00    +0.000 A 
ATOM     11  C   UNL     1       2.082   5.965  20.868  0.00  0.00    +0.000 A 
ENDROOT
BRANCH   8  12
ATOM     12  C   UNL     1      -0.065  10.078  20.962  0.00  0.00    +0.000 A 
ATOM     13  C   UNL     1      -0.232   9.855  22.334  0.00  0.00    +0.000 A 
ATOM     14  C   UNL     1      -1.084  10.666  23.089  0.00  0.00    +0.000 A 
ATOM     15  C   UNL     1      -1.777  11.725  22.485  0.00  0.00    +0.000 A 
ATOM     16  C   UNL     1      -1.598  11.957  21.114  0.00  0.00    +0.000 A 
ATOM     17  C   UNL     1      -0.746  11.141  20.355  0.00  0.00    +0.000 A 
BRANCH  15  18
ATOM     18  C   UNL     1      -2.695  12.613  23.292  0.00  0.00    +0.000 C 
ATOM     19  F   UNL     1      -3.467  11.933  24.185  0.00  0.00    +0.000 F 
ATOM     20  F   UNL     1      -2.014  13.542  24.021  0.00  0.00    +0.000 F 
ATOM     21  F   UNL     1      -3.561  13.316  22.509  0.00  0.00    +0.000 F 
ENDBRANCH  15  18
ENDBRANCH   8  12
BRANCH   1  22
ATOM     22  O   UNL     1       3.012   3.714  20.973  0.00  0.00    +0.000 OA
BRANCH  22  23
ATOM     23  C   UNL     1       2.651   2.595  20.175  0.00  0.00    +0.000 C 
BRANCH  23  25
ATOM     24  C   UNL     1       0.641   2.488  18.730  0.00  0.00    +0.000 C 
ATOM     25  C   UNL     1       1.151   2.396  20.160  0.00  0.00    +0.000 C 
ENDBRANCH  23  25
ENDBRANCH  22  23
ENDBRANCH   1  22
BRANCH   3  26
ATOM     26  O   UNL     1       3.601   6.255  16.994  0.00  0.00    +0.000 OA
BRANCH  26  27
ATOM     27  C   UNL     1       5.042   6.287  16.857  0.00  0.00    +0.000 C 
BRANCH  27  28
ATOM     28  C   UNL     1       5.551   5.610  15.594  0.00  0.00    +0.000 C 
ATOM     29  C   UNL     1       5.578   4.101  15.754  0.00  0.00    +0.000 C 
ENDBRANCH  27  28
ENDBRANCH  26  27
ENDBRANCH   3  26
TORSDOF 8
ENDMDL
MODEL 6
REMARK VINA RESULT:      -7.5      4.766      8.780
REMARK  Name = 
REMARK  10 active torsions:
REMARK  status: ('A' for Active; 'I' for Inactive)
REMARK    1  A    between atoms: C_1  and  C_2
REMARK    2  A    between atoms: C_2  and  C_3
REMARK    3  A    between atoms: C_3  and  O_4
REMARK    4  A    between atoms: O_4  and  C_5
REMARK    5  A    between atoms: C_7  and  O_8
REMARK    6  A    between atoms: O_8  and  C_9
REMARK    7  A    between atoms: C_9  and  C_10
REMARK    8  A    between atoms: C_10  and  C_11
REMARK    9  A    between atoms: C_16  and  C_17
REMARK   10  A    between atoms: C_20  and  C_21
REMARK                            x       y       z     vdW  Elec       q    Type
REMARK                         _______ _______ _______ _____ _____    ______ ____
ROOT
ATOM      1  C   UNL     1      -0.226  12.779  19.548  0.00  0.00    +0.000 A 
ATOM      2  C   UNL     1      -0.601  12.994  20.869  0.00  0.00    +0.000 A 
ATOM      3  C   UNL     1      -0.449  11.995  21.862  0.00  0.00    +0.000 A 
ATOM      4  C   UNL     1       0.213  10.792  21.511  0.00  0.00    +0.000 A 
ATOM      5  C   UNL     1       0.539   9.676  22.429  0.00  0.00    +0.000 A 
ATOM      6  O   UNL     1       0.349   9.698  23.639  0.00  0.00    +0.000 OA
ATOM      7  C   UNL     1       1.145   8.450  21.804  0.00  0.00    +0.000 A 
ATOM      8  C   UNL     1       1.403   8.423  20.502  0.00  0.00    +0.000 A 
ATOM      9  O   UNL     1       1.181   9.487  19.664  0.00  0.00    +0.000 OA
ATOM     10  C   UNL     1       0.596  10.608  20.177  0.00  0.00    +0.000 A 
ATOM     11  C   UNL     1       0.370  11.580  19.216  0.00  0.00    +0.000 A 
ENDROOT
BRANCH   8  12
ATOM     12  C   UNL     1       1.933   7.250  19.807  0.00  0.00    +0.000 A 
ATOM     13  C   UNL     1       2.536   7.392  18.551  0.00  0.00    +0.000 A 
ATOM     14  C   UNL     1       3.066   6.283  17.886  0.00  0.00    +0.000 A 
ATOM     15  C   UNL     1       3.011   5.011  18.472  0.00  0.00    +0.000 A 
ATOM     16  C   UNL     1       2.419   4.871  19.736  0.00  0.00    +0.000 A 
ATOM     17  C   UNL     1       1.885   5.984  20.402  0.00  0.00    +0.000 A 
BRANCH  15  18
ATOM     18  C   UNL     1       3.586   3.805  17.766  0.00  0.00    +0.000 C 
ATOM     19  F   UNL     1       4.266   2.961  18.592  0.00  0.00    +0.000 F 
ATOM     20  F   UNL     1       2.626   3.045  17.167  0.00  0.00    +0.000 F 
ATOM     21  F   UNL     1       4.461   4.146  16.779  0.00  0.00    +0.000 F 
ENDBRANCH  15  18
ENDBRANCH   8  12
BRANCH   1  22
ATOM     22  O   UNL     1      -0.515  13.781  18.657  0.00  0.00    +0.000 OA
BRANCH  22  23
ATOM     23  C   UNL     1      -0.034  15.057  19.061  0.00  0.00    +0.000 C 
BRANCH  23  25
ATOM     24  C   UNL     1       2.057  16.165  19.795  0.00  0.00    +0.000 C 
ATOM     25  C   UNL     1       1.449  15.189  18.798  0.00  0.00    +0.000 C 
ENDBRANCH  23  25
ENDBRANCH  22  23
ENDBRANCH   1  22
BRANCH   3  26
ATOM     26  O   UNL     1      -0.982  12.187  23.116  0.00  0.00    +0.000 OA
BRANCH  26  27
ATOM     27  C   UNL     1      -2.391  11.874  23.209  0.00  0.00    +0.000 C 
BRANCH  27  28
ATOM     28  C   UNL     1      -3.229  12.998  23.799  0.00  0.00    +0.000 C 
ATOM     29  C   UNL     1      -4.356  12.451  24.654  0.00  0.00    +0.000 C 
ENDBRANCH  27  28
ENDBRANCH  26  27
ENDBRANCH   3  26
TORSDOF 8
ENDMDL
MODEL 7
REMARK VINA RESULT:      -7.5      0.454      1.248
REMARK  Name = 
REMARK  10 active torsions:
REMARK  status: ('A' for Active; 'I' for Inactive)
REMARK    1  A    between atoms: C_1  and  C_2
REMARK    2  A    between atoms: C_2  and  C_3
REMARK    3  A    between atoms: C_3  and  O_4
REMARK    4  A    between atoms: O_4  and  C_5
REMARK    5  A    between atoms: C_7  and  O_8
REMARK    6  A    between atoms: O_8  and  C_9
REMARK    7  A    between atoms: C_9  and  C_10
REMARK    8  A    between atoms: C_10  and  C_11
REMARK    9  A    between atoms: C_16  and  C_17
REMARK   10  A    between atoms: C_20  and  C_21
REMARK                            x       y       z     vdW  Elec       q    Type
REMARK                         _______ _______ _______ _____ _____    ______ ____
ROOT
ATOM      1  C   UNL     1       4.678   5.807  17.270  0.00  0.00    +0.000 A 
ATOM      2  C   UNL     1       4.633   4.531  17.818  0.00  0.00    +0.000 A 
ATOM      3  C   UNL     1       3.848   4.232  18.958  0.00  0.00    +0.000 A 
ATOM      4  C   UNL     1       2.999   5.243  19.474  0.00  0.00    +0.000 A 
ATOM      5  C   UNL     1       2.048   5.093  20.599  0.00  0.00    +0.000 A 
ATOM      6  O   UNL     1       1.815   4.035  21.172  0.00  0.00    +0.000 OA
ATOM      7  C   UNL     1       1.334   6.339  21.043  0.00  0.00    +0.000 A 
ATOM      8  C   UNL     1       1.535   7.487  20.407  0.00  0.00    +0.000 A 
ATOM      9  O   UNL     1       2.351   7.611  19.311  0.00  0.00    +0.000 OA
ATOM     10  C   UNL     1       3.051   6.515  18.893  0.00  0.00    +0.000 A 
ATOM     11  C   UNL     1       3.883   6.791  17.820  0.00  0.00    +0.000 A 
ENDROOT
BRANCH   8  12
ATOM     12  C   UNL     1       0.929   8.754  20.813  0.00  0.00    +0.000 A 
ATOM     13  C   UNL     1       0.414   8.902  22.107  0.00  0.00    +0.000 A 
ATOM     14  C   UNL     1      -0.150  10.115  22.514  0.00  0.00    +0.000 A 
ATOM     15  C   UNL     1      -0.197  11.206  21.636  0.00  0.00    +0.000 A 
ATOM     16  C   UNL     1       0.332  11.062  20.345  0.00  0.00    +0.000 A 
ATOM     17  C   UNL     1       0.894   9.844  19.935  0.00  0.00    +0.000 A 
BRANCH  15  18
ATOM     18  C   UNL     1      -0.797  12.524  22.067  0.00  0.00    +0.000 C 
ATOM     19  F   UNL     1      -0.101  13.611  21.630  0.00  0.00    +0.000 F 
ATOM     20  F   UNL     1      -2.071  12.691  21.610  0.00  0.00    +0.000 F 
ATOM     21  F   UNL     1      -0.868  12.648  23.422  0.00  0.00    +0.000 F 
ENDBRANCH  15  18
ENDBRANCH   8  12
BRANCH   1  22
ATOM     22  O   UNL     1       5.552   5.998  16.230  0.00  0.00    +0.000 OA
BRANCH  22  23
ATOM     23  C   UNL     1       6.916   6.015  16.629  0.00  0.00    +0.000 C 
BRANCH  23  25
ATOM     24  C   UNL     1       7.770   8.145  17.564  0.00  0.00    +0.000 C 
ATOM     25  C   UNL     1       7.104   6.818  17.897  0.00  0.00    +0.000 C 
ENDBRANCH  23  25
ENDBRANCH  22  23
ENDBRANCH   1  22
BRANCH   3  26
ATOM     26  O   UNL     1       3.959   3.003  19.565  0.00  0.00    +0.000 OA
BRANCH  26  27
ATOM     27  C   UNL     1       3.390   1.916  18.799  0.00  0.00    +0.000 C 
BRANCH  27  28
ATOM     28  C   UNL     1       2.179   2.320  17.971  0.00  0.00    +0.000 C 
ATOM     29  C   UNL     1       0.886   2.011  18.702  0.00  0.00    +0.000 C 
ENDBRANCH  27  28
ENDBRANCH  26  27
ENDBRANCH   3  26
TORSDOF 8
ENDMDL
MODEL 8
REMARK VINA RESULT:      -7.4      4.786      8.808
REMARK  Name = 
REMARK  10 active torsions:
REMARK  status: ('A' for Active; 'I' for Inactive)
REMARK    1  A    between atoms: C_1  and  C_2
REMARK    2  A    between atoms: C_2  and  C_3
REMARK    3  A    between atoms: C_3  and  O_4
REMARK    4  A    between atoms: O_4  and  C_5
REMARK    5  A    between atoms: C_7  and  O_8
REMARK    6  A    between atoms: O_8  and  C_9
REMARK    7  A    between atoms: C_9  and  C_10
REMARK    8  A    between atoms: C_10  and  C_11
REMARK    9  A    between atoms: C_16  and  C_17
REMARK   10  A    between atoms: C_20  and  C_21
REMARK                            x       y       z     vdW  Elec       q    Type
REMARK                         _______ _______ _______ _____ _____    ______ ____
ROOT
ATOM      1  C   UNL     1      -0.184  12.828  19.581  0.00  0.00    +0.000 A 
ATOM      2  C   UNL     1      -0.582  13.049  20.893  0.00  0.00    +0.000 A 
ATOM      3  C   UNL     1      -0.456  12.054  21.893  0.00  0.00    +0.000 A 
ATOM      4  C   UNL     1       0.206  10.845  21.559  0.00  0.00    +0.000 A 
ATOM      5  C   UNL     1       0.507   9.731  22.487  0.00  0.00    +0.000 A 
ATOM      6  O   UNL     1       0.295   9.758  23.693  0.00  0.00    +0.000 OA
ATOM      7  C   UNL     1       1.116   8.499  21.877  0.00  0.00    +0.000 A 
ATOM      8  C   UNL     1       1.398   8.464  20.580  0.00  0.00    +0.000 A 
ATOM      9  O   UNL     1       1.199   9.527  19.735  0.00  0.00    +0.000 OA
ATOM     10  C   UNL     1       0.612  10.654  20.233  0.00  0.00    +0.000 A 
ATOM     11  C   UNL     1       0.411  11.623  19.264  0.00  0.00    +0.000 A 
ENDROOT
BRANCH   8  12
ATOM     12  C   UNL     1       1.934   7.286  19.900  0.00  0.00    +0.000 A 
ATOM     13  C   UNL     1       1.776   6.016  20.468  0.00  0.00    +0.000 A 
ATOM     14  C   UNL     1       2.264   4.879  19.818  0.00  0.00    +0.000 A 
ATOM     15  C   UNL     1       2.911   4.992  18.579  0.00  0.00    +0.000 A 
ATOM     16  C   UNL     1       3.057   6.263  18.004  0.00  0.00    +0.000 A 
ATOM     17  C   UNL     1       2.570   7.404  18.658  0.00  0.00    +0.000 A 
BRANCH  15  18
ATOM     18  C   UNL     1       3.437   3.771  17.863  0.00  0.00    +0.000 C 
ATOM     19  F   UNL     1       3.989   4.045  16.648  0.00  0.00    +0.000 F 
ATOM     20  F   UNL     1       4.407   3.127  18.574  0.00  0.00    +0.000 F 
ATOM     21  F   UNL     1       2.467   2.843  17.631  0.00  0.00    +0.000 F 
ENDBRANCH  15  18
ENDBRANCH   8  12
BRANCH   1  22
ATOM     22  O   UNL     1      -0.450  13.828  18.681  0.00  0.00    +0.000 OA
BRANCH  22  23
ATOM     23  C   UNL     1       0.035  15.101  19.087  0.00  0.00    +0.000 C 
BRANCH  23  25
ATOM     24  C   UNL     1       1.867  16.660  18.492  0.00  0.00    +0.000 C 
ATOM     25  C   UNL     1       1.523  15.220  18.844  0.00  0.00    +0.000 C 
ENDBRANCH  23  25
ENDBRANCH  22  23
ENDBRANCH   1  22
BRANCH   3  26
ATOM     26  O   UNL     1      -1.010  12.254  23.136  0.00  0.00    +0.000 OA
BRANCH  26  27
ATOM     27  C   UNL     1      -2.344  11.711  23.277  0.00  0.00    +0.000 C 
BRANCH  27  28
ATOM     28  C   UNL     1      -3.424  12.773  23.415  0.00  0.00    +0.000 C 
ATOM     29  C   UNL     1      -4.260  12.548  24.660  0.00  0.00    +0.000 C 
ENDBRANCH  27  28
ENDBRANCH  26  27
ENDBRANCH   3  26
TORSDOF 8
ENDMDL
MODEL 9
REMARK VINA RESULT:      -7.4      1.229      1.840
REMARK  Name = 
REMARK  10 active torsions:
REMARK  status: ('A' for Active; 'I' for Inactive)
REMARK    1  A    between atoms: C_1  and  C_2
REMARK    2  A    between atoms: C_2  and  C_3
REMARK    3  A    between atoms: C_3  and  O_4
REMARK    4  A    between atoms: O_4  and  C_5
REMARK    5  A    between atoms: C_7  and  O_8
REMARK    6  A    between atoms: O_8  and  C_9
REMARK    7  A    between atoms: C_9  and  C_10
REMARK    8  A    between atoms: C_10  and  C_11
REMARK    9  A    between atoms: C_16  and  C_17
REMARK   10  A    between atoms: C_20  and  C_21
REMARK                            x       y       z     vdW  Elec       q    Type
REMARK                         _______ _______ _______ _____ _____    ______ ____
ROOT
ATOM      1  C   UNL     1       4.458   5.797  17.093  0.00  0.00    +0.000 A 
ATOM      2  C   UNL     1       4.467   4.570  17.744  0.00  0.00    +0.000 A 
ATOM      3  C   UNL     1       3.777   4.363  18.964  0.00  0.00    +0.000 A 
ATOM      4  C   UNL     1       2.963   5.412  19.463  0.00  0.00    +0.000 A 
ATOM      5  C   UNL     1       2.106   5.352  20.669  0.00  0.00    +0.000 A 
ATOM      6  O   UNL     1       1.927   4.344  21.342  0.00  0.00    +0.000 OA
ATOM      7  C   UNL     1       1.419   6.630  21.066  0.00  0.00    +0.000 A 
ATOM      8  C   UNL     1       1.561   7.722  20.325  0.00  0.00    +0.000 A 
ATOM      9  O   UNL     1       2.286   7.757  19.160  0.00  0.00    +0.000 OA
ATOM     10  C   UNL     1       2.959   6.633  18.778  0.00  0.00    +0.000 A 
ATOM     11  C   UNL     1       3.700   6.822  17.623  0.00  0.00    +0.000 A 
ENDROOT
BRANCH   8  12
ATOM     12  C   UNL     1       0.978   9.017  20.674  0.00  0.00    +0.000 A 
ATOM     13  C   UNL     1       0.462   9.231  21.958  0.00  0.00    +0.000 A 
ATOM     14  C   UNL     1      -0.078  10.470  22.311  0.00  0.00    +0.000 A 
ATOM     15  C   UNL     1      -0.101  11.524  21.387  0.00  0.00    +0.000 A 
ATOM     16  C   UNL     1       0.429  11.314  20.106  0.00  0.00    +0.000 A 
ATOM     17  C   UNL     1       0.968  10.070  19.750  0.00  0.00    +0.000 A 
BRANCH  15  18
ATOM     18  C   UNL     1      -0.676  12.871  21.759  0.00  0.00    +0.000 C 
ATOM     19  F   UNL     1      -1.686  12.801  22.671  0.00  0.00    +0.000 F 
ATOM     20  F   UNL     1       0.257  13.704  22.301  0.00  0.00    +0.000 F 
ATOM     21  F   UNL     1      -1.189  13.534  20.685  0.00  0.00    +0.000 F 
ENDBRANCH  15  18
ENDBRANCH   8  12
BRANCH   1  22
ATOM     22  O   UNL     1       5.245   5.905  15.975  0.00  0.00    +0.000 OA
BRANCH  22  23
ATOM     23  C   UNL     1       5.603   4.651  15.409  0.00  0.00    +0.000 C 
BRANCH  23  25
ATOM     24  C   UNL     1       6.295   3.811  13.184  0.00  0.00    +0.000 C 
ATOM     25  C   UNL     1       6.592   4.825  14.279  0.00  0.00    +0.000 C 
ENDBRANCH  23  25
ENDBRANCH  22  23
ENDBRANCH   1  22
BRANCH   3  26
ATOM     26  O   UNL     1       3.945   3.188  19.659  0.00  0.00    +0.000 OA
BRANCH  26  27
ATOM     27  C   UNL     1       3.362   2.034  19.008  0.00  0.00    +0.000 C 
BRANCH  27  28
ATOM     28  C   UNL     1       1.960   1.701  19.495  0.00  0.00    +0.000 C 
ATOM     29  C   UNL     1       0.907   2.337  18.609  0.00  0.00    +0.000 C 
ENDBRANCH  27  28
ENDBRANCH  26  27
ENDBRANCH   3  26
TORSDOF 8
ENDMDL
