MODEL 1
REMARK VINA RESULT:      -7.5      0.000      0.000
REMARK  Name = 
REMARK  8 active torsions:
REMARK  status: ('A' for Active; 'I' for Inactive)
REMARK    1  A    between atoms: C_1  and  C_2
REMARK    2  A    between atoms: C_4  and  C_5
REMARK    3  A    between atoms: C_7  and  O_8
REMARK    4  A    between atoms: O_8  and  C_9
REMARK    5  A    between atoms: C_10  and  C_11
REMARK    6  A    between atoms: C_11  and  N_12
REMARK    7  A    between atoms: C_15  and  C_16
REMARK    8  A    between atoms: C_18  and  C_19
REMARK                            x       y       z     vdW  Elec       q    Type
REMARK                         _______ _______ _______ _____ _____    ______ ____
ROOT
ATOM      1  C   UNL     1       3.506   4.987  18.334  0.00  0.00    +0.000 A 
ATOM      2  C   UNL     1       4.899   5.205  17.854  0.00  0.00    +0.000 A 
ATOM      3  C   UNL     1       5.894   4.422  18.347  0.00  0.00    +0.000 A 
ATOM      4  C   UNL     1       7.343   4.419  17.946  0.00  0.00    +0.000 C 
ATOM      5  N   UNL     1       5.596   3.486  19.303  0.00  0.00    +0.000 N 
ATOM      6  C   UNL     1       4.347   3.168  19.749  0.00  0.00    +0.000 A 
ATOM      7  O   UNL     1       4.209   2.329  20.632  0.00  0.00    +0.000 OA
ATOM      8  C   UNL     1       3.212   3.910  19.113  0.00  0.00    +0.000 A 
ATOM      9  I   UNL     1       1.325   3.124  19.533  0.00  0.00    +0.000 I 
ATOM     10  H   UNL     1       6.343   2.932  19.724  0.00  0.00    +0.000 HD
ENDROOT
BRANCH   1  11
ATOM     11  O   UNL     1       2.567   5.894  17.817  0.00  0.00    +0.000 OA
BRANCH  11  18
ATOM     12  C   UNL     1       1.916  10.769  17.680  0.00  0.00    +0.000 C 
ATOM     13  C   UNL     1       1.889   9.463  18.424  0.00  0.00    +0.000 A 
ATOM     14  C   UNL     1       1.404   9.418  19.739  0.00  0.00    +0.000 A 
ATOM     15  C   UNL     1       1.416   8.222  20.463  0.00  0.00    +0.000 A 
ATOM     16  C   UNL     1       0.768   8.124  21.813  0.00  0.00    +0.000 C 
ATOM     17  C   UNL     1       1.931   7.063  19.869  0.00  0.00    +0.000 A 
ATOM     18  C   UNL     1       2.292   7.061  18.517  0.00  0.00    +0.000 A 
ATOM     19  C   UNL     1       2.311   8.271  17.808  0.00  0.00    +0.000 A 
ENDBRANCH  11  18
ENDBRANCH   1  11
BRANCH   2  20
ATOM     20  C   UNL     1       5.156   6.179  16.715  0.00  0.00    +0.000 C 
BRANCH  20  21
ATOM     21  N   UNL     1       5.599   5.547  15.480  0.00  0.00    +0.000 N 
ATOM     22  C   UNL     1       5.109   4.417  14.908  0.00  0.00    +0.000 A 
ATOM     23  N   UNL     1       5.855   4.080  13.881  0.00  0.00    +0.000 NA
ATOM     24  C   UNL     1       6.833   5.044  13.873  0.00  0.00    +0.000 A 
ATOM     25  C   UNL     1       7.929   5.031  12.880  0.00  0.00    +0.000 C 
ATOM     26  N   UNL     1       6.713   5.970  14.835  0.00  0.00    +0.000 NA
ENDBRANCH  20  21
ENDBRANCH   2  20
TORSDOF 4
ENDMDL
MODEL 2
REMARK VINA RESULT:      -7.1      3.145      6.377
REMARK  Name = 
REMARK  8 active torsions:
REMARK  status: ('A' for Active; 'I' for Inactive)
REMARK    1  A    between atoms: C_1  and  C_2
REMARK    2  A    between atoms: C_4  and  C_5
REMARK    3  A    between atoms: C_7  and  O_8
REMARK    4  A    between atoms: O_8  and  C_9
REMARK    5  A    between atoms: C_10  and  C_11
REMARK    6  A    between atoms: C_11  and  N_12
REMARK    7  A    between atoms: C_15  and  C_16
REMARK    8  A    between atoms: C_18  and  C_19
REMARK                            x       y       z     vdW  Elec       q    Type
REMARK                         _______ _______ _______ _____ _____    ______ ____
ROOT
ATOM      1  C   UNL     1       2.742   5.878  18.591  0.00  0.00    +0.000 A 
ATOM      2  C   UNL     1       2.337   7.214  19.112  0.00  0.00    +0.000 A 
ATOM      3  C   UNL     1       1.854   7.306  20.379  0.00  0.00    +0.000 A 
ATOM      4  C   UNL     1       1.466   8.553  21.124  0.00  0.00    +0.000 C 
ATOM      5  N   UNL     1       1.711   6.165  21.124  0.00  0.00    +0.000 N 
ATOM      6  C   UNL     1       2.119   4.915  20.759  0.00  0.00    +0.000 A 
ATOM      7  O   UNL     1       1.910   3.963  21.504  0.00  0.00    +0.000 OA
ATOM      8  C   UNL     1       2.795   4.805  19.427  0.00  0.00    +0.000 A 
ATOM      9  I   UNL     1       3.741   2.977  19.088  0.00  0.00    +0.000 I 
ATOM     10  H   UNL     1       1.295   6.213  22.055  0.00  0.00    +0.000 HD
ENDROOT
BRANCH   1  11
ATOM     11  O   UNL     1       3.158   5.882  17.250  0.00  0.00    +0.000 OA
BRANCH  11  18
ATOM     12  C   UNL     1       6.594   4.139  14.189  0.00  0.00    +0.000 C 
ATOM     13  C   UNL     1       6.199   4.950  15.391  0.00  0.00    +0.000 A 
ATOM     14  C   UNL     1       7.164   5.704  16.073  0.00  0.00    +0.000 A 
ATOM     15  C   UNL     1       6.825   6.427  17.222  0.00  0.00    +0.000 A 
ATOM     16  C   UNL     1       7.808   7.353  17.876  0.00  0.00    +0.000 C 
ATOM     17  C   UNL     1       5.510   6.381  17.700  0.00  0.00    +0.000 A 
ATOM     18  C   UNL     1       4.508   5.745  16.957  0.00  0.00    +0.000 A 
ATOM     19  C   UNL     1       4.862   4.994  15.827  0.00  0.00    +0.000 A 
ENDBRANCH  11  18
ENDBRANCH   1  11
BRANCH   2  20
ATOM     20  C   UNL     1       2.618   8.458  18.285  0.00  0.00    +0.000 C 
BRANCH  20  21
ATOM     21  N   UNL     1       1.484   9.363  18.167  0.00  0.00    +0.000 N 
ATOM     22  C   UNL     1       1.382  10.628  18.652  0.00  0.00    +0.000 A 
ATOM     23  N   UNL     1       0.159  11.074  18.474  0.00  0.00    +0.000 NA
ATOM     24  C   UNL     1      -0.480  10.013  17.882  0.00  0.00    +0.000 A 
ATOM     25  C   UNL     1      -1.916  10.067  17.530  0.00  0.00    +0.000 C 
ATOM     26  N   UNL     1       0.297   8.940  17.669  0.00  0.00    +0.000 NA
ENDBRANCH  20  21
ENDBRANCH   2  20
TORSDOF 4
ENDMDL
MODEL 3
REMARK VINA RESULT:      -7.0      3.221      6.548
REMARK  Name = 
REMARK  8 active torsions:
REMARK  status: ('A' for Active; 'I' for Inactive)
REMARK    1  A    between atoms: C_1  and  C_2
REMARK    2  A    between atoms: C_4  and  C_5
REMARK    3  A    between atoms: C_7  and  O_8
REMARK    4  A    between atoms: O_8  and  C_9
REMARK    5  A    between atoms: C_10  and  C_11
REMARK    6  A    between atoms: C_11  and  N_12
REMARK    7  A    between atoms: C_15  and  C_16
REMARK    8  A    between atoms: C_18  and  C_19
REMARK                            x       y       z     vdW  Elec       q    Type
REMARK                         _______ _______ _______ _____ _____    ______ ____
ROOT
ATOM      1  C   UNL     1       2.783   6.227  18.524  0.00  0.00    +0.000 A 
ATOM      2  C   UNL     1       2.330   7.503  19.145  0.00  0.00    +0.000 A 
ATOM      3  C   UNL     1       1.838   7.480  20.412  0.00  0.00    +0.000 A 
ATOM      4  C   UNL     1       1.403   8.650  21.248  0.00  0.00    +0.000 C 
ATOM      5  N   UNL     1       1.731   6.279  21.064  0.00  0.00    +0.000 N 
ATOM      6  C   UNL     1       2.183   5.077  20.606  0.00  0.00    +0.000 A 
ATOM      7  O   UNL     1       2.003   4.063  21.272  0.00  0.00    +0.000 OA
ATOM      8  C   UNL     1       2.869   5.094  19.274  0.00  0.00    +0.000 A 
ATOM      9  I   UNL     1       3.879   3.331  18.801  0.00  0.00    +0.000 I 
ATOM     10  H   UNL     1       1.309   6.240  21.993  0.00  0.00    +0.000 HD
ENDROOT
BRANCH   1  11
ATOM     11  O   UNL     1       3.206   6.350  17.191  0.00  0.00    +0.000 OA
BRANCH  11  18
ATOM     12  C   UNL     1       7.903   6.666  18.622  0.00  0.00    +0.000 C 
ATOM     13  C   UNL     1       6.861   6.228  17.631  0.00  0.00    +0.000 A 
ATOM     14  C   UNL     1       7.233   5.457  16.521  0.00  0.00    +0.000 A 
ATOM     15  C   UNL     1       6.286   5.081  15.563  0.00  0.00    +0.000 A 
ATOM     16  C   UNL     1       6.637   4.137  14.451  0.00  0.00    +0.000 C 
ATOM     17  C   UNL     1       4.956   5.493  15.713  0.00  0.00    +0.000 A 
ATOM     18  C   UNL     1       4.543   6.145  16.880  0.00  0.00    +0.000 A 
ATOM     19  C   UNL     1       5.504   6.550  17.819  0.00  0.00    +0.000 A 
ENDBRANCH  11  18
ENDBRANCH   1  11
BRANCH   2  20
ATOM     20  C   UNL     1       2.573   8.817  18.420  0.00  0.00    +0.000 C 
BRANCH  20  21
ATOM     21  N   UNL     1       1.386   9.650  18.285  0.00  0.00    +0.000 N 
ATOM     22  C   UNL     1       1.202  10.909  18.759  0.00  0.00    +0.000 A 
ATOM     23  N   UNL     1      -0.044  11.278  18.566  0.00  0.00    +0.000 NA
ATOM     24  C   UNL     1      -0.611  10.176  17.977  0.00  0.00    +0.000 A 
ATOM     25  C   UNL     1      -2.044  10.139  17.612  0.00  0.00    +0.000 C 
ATOM     26  N   UNL     1       0.232   9.152  17.779  0.00  0.00    +0.000 NA
ENDBRANCH  20  21
ENDBRANCH   2  20
TORSDOF 4
ENDMDL
MODEL 4
REMARK VINA RESULT:      -6.9      2.073      3.260
REMARK  Name = 
REMARK  8 active torsions:
REMARK  status: ('A' for Active; 'I' for Inactive)
REMARK    1  A    between atoms: C_1  and  C_2
REMARK    2  A    between atoms: C_4  and  C_5
REMARK    3  A    between atoms: C_7  and  O_8
REMARK    4  A    between atoms: O_8  and  C_9
REMARK    5  A    between atoms: C_10  and  C_11
REMARK    6  A    between atoms: C_11  and  N_12
REMARK    7  A    between atoms: C_15  and  C_16
REMARK    8  A    between atoms: C_18  and  C_19
REMARK                            x       y       z     vdW  Elec       q    Type
REMARK                         _______ _______ _______ _____ _____    ______ ____
ROOT
ATOM      1  C   UNL     1       3.826   5.009  18.839  0.00  0.00    +0.000 A 
ATOM      2  C   UNL     1       4.523   5.148  17.529  0.00  0.00    +0.000 A 
ATOM      3  C   UNL     1       4.623   4.061  16.719  0.00  0.00    +0.000 A 
ATOM      4  C   UNL     1       5.210   4.000  15.336  0.00  0.00    +0.000 C 
ATOM      5  N   UNL     1       4.121   2.860  17.147  0.00  0.00    +0.000 N 
ATOM      6  C   UNL     1       3.408   2.654  18.292  0.00  0.00    +0.000 A 
ATOM      7  O   UNL     1       3.034   1.523  18.582  0.00  0.00    +0.000 OA
ATOM      8  C   UNL     1       3.149   3.865  19.134  0.00  0.00    +0.000 A 
ATOM      9  I   UNL     1       1.740   3.579  20.646  0.00  0.00    +0.000 I 
ATOM     10  H   UNL     1       4.242   2.024  16.574  0.00  0.00    +0.000 HD
ENDROOT
BRANCH   1  11
ATOM     11  O   UNL     1       3.840   6.169  19.628  0.00  0.00    +0.000 OA
BRANCH  11  18
ATOM     12  C   UNL     1      -0.069   8.155  21.862  0.00  0.00    +0.000 C 
ATOM     13  C   UNL     1       0.887   8.091  20.704  0.00  0.00    +0.000 A 
ATOM     14  C   UNL     1       0.805   9.042  19.677  0.00  0.00    +0.000 A 
ATOM     15  C   UNL     1       1.655   8.970  18.568  0.00  0.00    +0.000 A 
ATOM     16  C   UNL     1       1.679  10.059  17.537  0.00  0.00    +0.000 C 
ATOM     17  C   UNL     1       2.585   7.927  18.482  0.00  0.00    +0.000 A 
ATOM     18  C   UNL     1       2.771   7.053  19.558  0.00  0.00    +0.000 A 
ATOM     19  C   UNL     1       1.893   7.109  20.650  0.00  0.00    +0.000 A 
ENDBRANCH  11  18
ENDBRANCH   1  11
BRANCH   2  20
ATOM     20  C   UNL     1       4.962   6.524  17.057  0.00  0.00    +0.000 C 
BRANCH  20  21
ATOM     21  N   UNL     1       6.287   6.916  17.518  0.00  0.00    +0.000 N 
ATOM     22  C   UNL     1       7.147   6.189  18.277  0.00  0.00    +0.000 A 
ATOM     23  N   UNL     1       8.180   6.929  18.609  0.00  0.00    +0.000 NA
ATOM     24  C   UNL     1       7.895   8.144  18.036  0.00  0.00    +0.000 A 
ATOM     25  C   UNL     1       8.795   9.307  18.190  0.00  0.00    +0.000 C 
ATOM     26  N   UNL     1       6.743   8.182  17.351  0.00  0.00    +0.000 NA
ENDBRANCH  20  21
ENDBRANCH   2  20
TORSDOF 4
ENDMDL
MODEL 5
REMARK VINA RESULT:      -6.9      0.222      1.737
REMARK  Name = 
REMARK  8 active torsions:
REMARK  status: ('A' for Active; 'I' for Inactive)
REMARK    1  A    between atoms: C_1  and  C_2
REMARK    2  A    between atoms: C_4  and  C_5
REMARK    3  A    between atoms: C_7  and  O_8
REMARK    4  A    between atoms: O_8  and  C_9
REMARK    5  A    between atoms: C_10  and  C_11
REMARK    6  A    between atoms: C_11  and  N_12
REMARK    7  A    between atoms: C_15  and  C_16
REMARK    8  A    between atoms: C_18  and  C_19
REMARK                            x       y       z     vdW  Elec       q    Type
REMARK                         _______ _______ _______ _____ _____    ______ ____
ROOT
ATOM      1  C   UNL     1       3.511   4.940  18.203  0.00  0.00    +0.000 A 
ATOM      2  C   UNL     1       4.929   5.229  17.848  0.00  0.00    +0.000 A 
ATOM      3  C   UNL     1       5.916   4.514  18.451  0.00  0.00    +0.000 A 
ATOM      4  C   UNL     1       7.394   4.587  18.185  0.00  0.00    +0.000 C 
ATOM      5  N   UNL     1       5.582   3.582  19.399  0.00  0.00    +0.000 N 
ATOM      6  C   UNL     1       4.316   3.202  19.736  0.00  0.00    +0.000 A 
ATOM      7  O   UNL     1       4.144   2.374  20.624  0.00  0.00    +0.000 OA
ATOM      8  C   UNL     1       3.206   3.864  18.979  0.00  0.00    +0.000 A 
ATOM      9  I   UNL     1       1.335   2.979  19.243  0.00  0.00    +0.000 I 
ATOM     10  H   UNL     1       6.316   3.081  19.901  0.00  0.00    +0.000 HD
ENDROOT
BRANCH   1  11
ATOM     11  O   UNL     1       2.575   5.780  17.579  0.00  0.00    +0.000 OA
BRANCH  11  18
ATOM     12  C   UNL     1       1.219   7.898  21.809  0.00  0.00    +0.000 C 
ATOM     13  C   UNL     1       1.561   7.988  20.347  0.00  0.00    +0.000 A 
ATOM     14  C   UNL     1       1.635   9.241  19.724  0.00  0.00    +0.000 A 
ATOM     15  C   UNL     1       1.904   9.343  18.355  0.00  0.00    +0.000 A 
ATOM     16  C   UNL     1       2.131  10.676  17.704  0.00  0.00    +0.000 C 
ATOM     17  C   UNL     1       2.086   8.176  17.602  0.00  0.00    +0.000 A 
ATOM     18  C   UNL     1       2.150   6.929  18.233  0.00  0.00    +0.000 A 
ATOM     19  C   UNL     1       1.845   6.832  19.598  0.00  0.00    +0.000 A 
ENDBRANCH  11  18
ENDBRANCH   1  11
BRANCH   2  20
ATOM     20  C   UNL     1       5.236   6.192  16.713  0.00  0.00    +0.000 C 
BRANCH  20  21
ATOM     21  N   UNL     1       5.660   5.543  15.480  0.00  0.00    +0.000 N 
ATOM     22  C   UNL     1       5.146   4.418  14.920  0.00  0.00    +0.000 A 
ATOM     23  N   UNL     1       5.879   4.060  13.891  0.00  0.00    +0.000 NA
ATOM     24  C   UNL     1       6.873   5.007  13.868  0.00  0.00    +0.000 A 
ATOM     25  C   UNL     1       7.963   4.968  12.868  0.00  0.00    +0.000 C 
ATOM     26  N   UNL     1       6.776   5.942  14.824  0.00  0.00    +0.000 NA
ENDBRANCH  20  21
ENDBRANCH   2  20
TORSDOF 4
ENDMDL
MODEL 6
REMARK VINA RESULT:      -6.9      3.213      6.462
REMARK  Name = 
REMARK  8 active torsions:
REMARK  status: ('A' for Active; 'I' for Inactive)
REMARK    1  A    between atoms: C_1  and  C_2
REMARK    2  A    between atoms: C_4  and  C_5
REMARK    3  A    between atoms: C_7  and  O_8
REMARK    4  A    between atoms: O_8  and  C_9
REMARK    5  A    between atoms: C_10  and  C_11
REMARK    6  A    between atoms: C_11  and  N_12
REMARK    7  A    between atoms: C_15  and  C_16
REMARK    8  A    between atoms: C_18  and  C_19
REMARK                            x       y       z     vdW  Elec       q    Type
REMARK                         _______ _______ _______ _____ _____    ______ ____
ROOT
ATOM      1  C   UNL     1       2.734   5.975  18.680  0.00  0.00    +0.000 A 
ATOM      2  C   UNL     1       2.253   7.280  19.214  0.00  0.00    +0.000 A 
ATOM      3  C   UNL     1       1.785   7.336  20.489  0.00  0.00    +0.000 A 
ATOM      4  C   UNL     1       1.328   8.553  21.245  0.00  0.00    +0.000 C 
ATOM      5  N   UNL     1       1.726   6.185  21.231  0.00  0.00    +0.000 N 
ATOM      6  C   UNL     1       2.208   4.966  20.853  0.00  0.00    +0.000 A 
ATOM      7  O   UNL     1       2.072   3.999  21.596  0.00  0.00    +0.000 OA
ATOM      8  C   UNL     1       2.868   4.904  19.511  0.00  0.00    +0.000 A 
ATOM      9  I   UNL     1       3.925   3.142  19.148  0.00  0.00    +0.000 I 
ATOM     10  H   UNL     1       1.323   6.202  22.168  0.00  0.00    +0.000 HD
ENDROOT
BRANCH   1  11
ATOM     11  O   UNL     1       3.129   6.011  17.333  0.00  0.00    +0.000 OA
BRANCH  11  18
ATOM     12  C   UNL     1       6.495   4.034  14.337  0.00  0.00    +0.000 C 
ATOM     13  C   UNL     1       6.125   4.944  15.475  0.00  0.00    +0.000 A 
ATOM     14  C   UNL     1       7.101   5.763  16.059  0.00  0.00    +0.000 A 
ATOM     15  C   UNL     1       6.788   6.581  17.151  0.00  0.00    +0.000 A 
ATOM     16  C   UNL     1       7.779   7.568  17.692  0.00  0.00    +0.000 C 
ATOM     17  C   UNL     1       5.487   6.566  17.669  0.00  0.00    +0.000 A 
ATOM     18  C   UNL     1       4.472   5.859  17.014  0.00  0.00    +0.000 A 
ATOM     19  C   UNL     1       4.800   5.015  15.944  0.00  0.00    +0.000 A 
ENDBRANCH  11  18
ENDBRANCH   1  11
BRANCH   2  20
ATOM     20  C   UNL     1       2.441   8.543  18.389  0.00  0.00    +0.000 C 
BRANCH  20  21
ATOM     21  N   UNL     1       1.296   9.442  18.408  0.00  0.00    +0.000 N 
ATOM     22  C   UNL     1       0.074   9.236  17.853  0.00  0.00    +0.000 A 
ATOM     23  N   UNL     1      -0.649  10.329  17.953  0.00  0.00    +0.000 NA
ATOM     24  C   UNL     1       0.200  11.212  18.572  0.00  0.00    +0.000 A 
ATOM     25  C   UNL     1      -0.201  12.607  18.856  0.00  0.00    +0.000 C 
ATOM     26  N   UNL     1       1.406  10.710  18.875  0.00  0.00    +0.000 NA
ENDBRANCH  20  21
ENDBRANCH   2  20
TORSDOF 4
ENDMDL
MODEL 7
REMARK VINA RESULT:      -6.8      2.895      5.870
REMARK  Name = 
REMARK  8 active torsions:
REMARK  status: ('A' for Active; 'I' for Inactive)
REMARK    1  A    between atoms: C_1  and  C_2
REMARK    2  A    between atoms: C_4  and  C_5
REMARK    3  A    between atoms: C_7  and  O_8
REMARK    4  A    between atoms: O_8  and  C_9
REMARK    5  A    between atoms: C_10  and  C_11
REMARK    6  A    between atoms: C_11  and  N_12
REMARK    7  A    between atoms: C_15  and  C_16
REMARK    8  A    between atoms: C_18  and  C_19
REMARK                            x       y       z     vdW  Elec       q    Type
REMARK                         _______ _______ _______ _____ _____    ______ ____
ROOT
ATOM      1  C   UNL     1       2.642   6.806  18.286  0.00  0.00    +0.000 A 
ATOM      2  C   UNL     1       2.296   5.431  18.743  0.00  0.00    +0.000 A 
ATOM      3  C   UNL     1       1.722   5.269  19.965  0.00  0.00    +0.000 A 
ATOM      4  C   UNL     1       1.227   3.992  20.583  0.00  0.00    +0.000 C 
ATOM      5  N   UNL     1       1.520   6.368  20.759  0.00  0.00    +0.000 N 
ATOM      6  C   UNL     1       1.737   7.666  20.398  0.00  0.00    +0.000 A 
ATOM      7  O   UNL     1       1.544   8.565  21.210  0.00  0.00    +0.000 OA
ATOM      8  C   UNL     1       2.227   7.889  19.001  0.00  0.00    +0.000 A 
ATOM      9  I   UNL     1       2.169   9.877  18.373  0.00  0.00    +0.000 I 
ATOM     10  H   UNL     1       1.144   6.254  21.701  0.00  0.00    +0.000 HD
ENDROOT
BRANCH   1  11
ATOM     11  O   UNL     1       3.294   6.857  17.044  0.00  0.00    +0.000 OA
BRANCH  11  18
ATOM     12  C   UNL     1       7.502   5.761  19.348  0.00  0.00    +0.000 C 
ATOM     13  C   UNL     1       6.655   5.788  18.106  0.00  0.00    +0.000 A 
ATOM     14  C   UNL     1       7.123   5.185  16.929  0.00  0.00    +0.000 A 
ATOM     15  C   UNL     1       6.370   5.242  15.751  0.00  0.00    +0.000 A 
ATOM     16  C   UNL     1       6.786   4.480  14.527  0.00  0.00    +0.000 C 
ATOM     17  C   UNL     1       5.145   5.920  15.750  0.00  0.00    +0.000 A 
ATOM     18  C   UNL     1       4.603   6.406  16.944  0.00  0.00    +0.000 A 
ATOM     19  C   UNL     1       5.378   6.378  18.113  0.00  0.00    +0.000 A 
ENDBRANCH  11  18
ENDBRANCH   1  11
BRANCH   2  20
ATOM     20  C   UNL     1       2.441   4.263  17.782  0.00  0.00    +0.000 C 
BRANCH  20  21
ATOM     21  N   UNL     1       3.179   3.131  18.327  0.00  0.00    +0.000 N 
ATOM     22  C   UNL     1       3.042   1.821  17.999  0.00  0.00    +0.000 A 
ATOM     23  N   UNL     1       3.775   1.084  18.802  0.00  0.00    +0.000 NA
ATOM     24  C   UNL     1       4.342   2.007  19.645  0.00  0.00    +0.000 A 
ATOM     25  C   UNL     1       5.236   1.603  20.753  0.00  0.00    +0.000 C 
ATOM     26  N   UNL     1       4.008   3.280  19.388  0.00  0.00    +0.000 NA
ENDBRANCH  20  21
ENDBRANCH   2  20
TORSDOF 4
ENDMDL
MODEL 8
REMARK VINA RESULT:      -6.8      2.903      5.756
REMARK  Name = 
REMARK  8 active torsions:
REMARK  status: ('A' for Active; 'I' for Inactive)
REMARK    1  A    between atoms: C_1  and  C_2
REMARK    2  A    between atoms: C_4  and  C_5
REMARK    3  A    between atoms: C_7  and  O_8
REMARK    4  A    between atoms: O_8  and  C_9
REMARK    5  A    between atoms: C_10  and  C_11
REMARK    6  A    between atoms: C_11  and  N_12
REMARK    7  A    between atoms: C_15  and  C_16
REMARK    8  A    between atoms: C_18  and  C_19
REMARK                            x       y       z     vdW  Elec       q    Type
REMARK                         _______ _______ _______ _____ _____    ______ ____
ROOT
ATOM      1  C   UNL     1       2.645   6.742  18.320  0.00  0.00    +0.000 A 
ATOM      2  C   UNL     1       2.288   5.369  18.775  0.00  0.00    +0.000 A 
ATOM      3  C   UNL     1       1.692   5.213  19.988  0.00  0.00    +0.000 A 
ATOM      4  C   UNL     1       1.182   3.940  20.602  0.00  0.00    +0.000 C 
ATOM      5  N   UNL     1       1.480   6.316  20.774  0.00  0.00    +0.000 N 
ATOM      6  C   UNL     1       1.707   7.612  20.412  0.00  0.00    +0.000 A 
ATOM      7  O   UNL     1       1.503   8.514  21.217  0.00  0.00    +0.000 OA
ATOM      8  C   UNL     1       2.222   7.828  19.023  0.00  0.00    +0.000 A 
ATOM      9  I   UNL     1       2.180   9.814  18.386  0.00  0.00    +0.000 I 
ATOM     10  H   UNL     1       1.088   6.206  21.710  0.00  0.00    +0.000 HD
ENDROOT
BRANCH   1  11
ATOM     11  O   UNL     1       3.318   6.785  17.088  0.00  0.00    +0.000 OA
BRANCH  11  18
ATOM     12  C   UNL     1       6.711   4.598  14.274  0.00  0.00    +0.000 C 
ATOM     13  C   UNL     1       6.298   5.243  15.568  0.00  0.00    +0.000 A 
ATOM     14  C   UNL     1       7.251   5.470  16.570  0.00  0.00    +0.000 A 
ATOM     15  C   UNL     1       6.877   6.026  17.799  0.00  0.00    +0.000 A 
ATOM     16  C   UNL     1       7.904   6.409  18.823  0.00  0.00    +0.000 C 
ATOM     17  C   UNL     1       5.532   6.344  18.028  0.00  0.00    +0.000 A 
ATOM     18  C   UNL     1       4.596   6.251  16.992  0.00  0.00    +0.000 A 
ATOM     19  C   UNL     1       4.970   5.660  15.777  0.00  0.00    +0.000 A 
ENDBRANCH  11  18
ENDBRANCH   1  11
BRANCH   2  20
ATOM     20  C   UNL     1       2.445   4.197  17.821  0.00  0.00    +0.000 C 
BRANCH  20  21
ATOM     21  N   UNL     1       3.191   3.075  18.374  0.00  0.00    +0.000 N 
ATOM     22  C   UNL     1       3.065   1.761  18.055  0.00  0.00    +0.000 A 
ATOM     23  N   UNL     1       3.803   1.036  18.864  0.00  0.00    +0.000 NA
ATOM     24  C   UNL     1       4.362   1.968  19.701  0.00  0.00    +0.000 A 
ATOM     25  C   UNL     1       5.258   1.579  20.812  0.00  0.00    +0.000 C 
ATOM     26  N   UNL     1       4.018   3.237  19.435  0.00  0.00    +0.000 NA
ENDBRANCH  20  21
ENDBRANCH   2  20
TORSDOF 4
ENDMDL
MODEL 9
REMARK VINA RESULT:      -6.7      2.863      5.023
REMARK  Name = 
REMARK  8 active torsions:
REMARK  status: ('A' for Active; 'I' for Inactive)
REMARK    1  A    between atoms: C_1  and  C_2
REMARK    2  A    between atoms: C_4  and  C_5
REMARK    3  A    between atoms: C_7  and  O_8
REMARK    4  A    between atoms: O_8  and  C_9
REMARK    5  A    between atoms: C_10  and  C_11
REMARK    6  A    between atoms: C_11  and  N_12
REMARK    7  A    between atoms: C_15  and  C_16
REMARK    8  A    between atoms: C_18  and  C_19
REMARK                            x       y       z     vdW  Elec       q    Type
REMARK                         _______ _______ _______ _____ _____    ______ ____
ROOT
ATOM      1  C   UNL     1       5.935   4.506  18.002  0.00  0.00    +0.000 A 
ATOM      2  C   UNL     1       5.390   4.051  16.692  0.00  0.00    +0.000 A 
ATOM      3  C   UNL     1       5.745   4.722  15.564  0.00  0.00    +0.000 A 
ATOM      4  C   UNL     1       5.378   4.388  14.145  0.00  0.00    +0.000 C 
ATOM      5  N   UNL     1       6.555   5.822  15.668  0.00  0.00    +0.000 N 
ATOM      6  C   UNL     1       7.156   6.268  16.809  0.00  0.00    +0.000 A 
ATOM      7  O   UNL     1       7.840   7.285  16.781  0.00  0.00    +0.000 OA
ATOM      8  C   UNL     1       6.906   5.459  18.044  0.00  0.00    +0.000 A 
ATOM      9  I   UNL     1       8.143   5.940  19.655  0.00  0.00    +0.000 I 
ATOM     10  H   UNL     1       6.781   6.369  14.836  0.00  0.00    +0.000 HD
ENDROOT
BRANCH   1  11
ATOM     11  O   UNL     1       5.451   3.792  19.109  0.00  0.00    +0.000 OA
BRANCH  11  18
ATOM     12  C   UNL     1       2.165   7.406  19.704  0.00  0.00    +0.000 C 
ATOM     13  C   UNL     1       2.666   6.024  20.019  0.00  0.00    +0.000 A 
ATOM     14  C   UNL     1       1.904   5.175  20.833  0.00  0.00    +0.000 A 
ATOM     15  C   UNL     1       2.375   3.903  21.177  0.00  0.00    +0.000 A 
ATOM     16  C   UNL     1       1.511   2.929  21.922  0.00  0.00    +0.000 C 
ATOM     17  C   UNL     1       3.629   3.486  20.711  0.00  0.00    +0.000 A 
ATOM     18  C   UNL     1       4.338   4.265  19.790  0.00  0.00    +0.000 A 
ATOM     19  C   UNL     1       3.876   5.552  19.478  0.00  0.00    +0.000 A 
ENDBRANCH  11  18
ENDBRANCH   1  11
BRANCH   2  20
ATOM     20  C   UNL     1       4.586   2.763  16.621  0.00  0.00    +0.000 C 
BRANCH  20  21
ATOM     21  N   UNL     1       3.197   2.905  17.035  0.00  0.00    +0.000 N 
ATOM     22  C   UNL     1       2.394   3.988  16.876  0.00  0.00    +0.000 A 
ATOM     23  N   UNL     1       1.257   3.793  17.504  0.00  0.00    +0.000 NA
ATOM     24  C   UNL     1       1.418   2.553  18.069  0.00  0.00    +0.000 A 
ATOM     25  C   UNL     1       0.369   1.940  18.914  0.00  0.00    +0.000 C 
ATOM     26  N   UNL     1       2.594   1.966  17.804  0.00  0.00    +0.000 NA
ENDBRANCH  20  21
ENDBRANCH   2  20
TORSDOF 4
ENDMDL
