MODEL 1
REMARK VINA RESULT:      -8.4      0.000      0.000
REMARK  Name = 
REMARK  3 active torsions:
REMARK  status: ('A' for Active; 'I' for Inactive)
REMARK    1  A    between atoms: C_8  and  C_9
REMARK    2  A    between atoms: C_13  and  C_14
REMARK    3  A    between atoms: C_17  and  C_18
REMARK                            x       y       z     vdW  Elec       q    Type
REMARK                         _______ _______ _______ _____ _____    ______ ____
ROOT
ATOM      1  C   UNL     1       7.967   7.333  18.228  0.00  0.00    +0.000 A 
ATOM      2  C   UNL     1       8.152   6.442  19.284  0.00  0.00    +0.000 A 
ATOM      3  C   UNL     1       7.774   5.128  19.107  0.00  0.00    +0.000 A 
ATOM      4  N   UNL     1       7.249   4.646  17.966  0.00  0.00    +0.000 NA
ATOM      5  C   UNL     1       7.107   5.506  16.925  0.00  0.00    +0.000 A 
ATOM      6  C   UNL     1       7.435   6.853  17.034  0.00  0.00    +0.000 A 
ENDROOT
BRANCH   1  14
ATOM      7  O   UNL     1       7.824  12.798  16.891  0.00  0.00    +0.000 OA
ATOM      8  C   UNL     1       8.513  12.376  17.815  0.00  0.00    +0.000 C 
ATOM      9  N   UNL     1       9.226  13.228  18.635  0.00  0.00    +0.000 N 
ATOM     10  C   UNL     1      10.376  12.778  19.418  0.00  0.00    +0.000 C 
ATOM     11  C   UNL     1      10.191  11.410  20.109  0.00  0.00    +0.000 C 
ATOM     12  C   UNL     1       9.384  10.529  19.227  0.00  0.00    +0.000 A 
ATOM     13  N   UNL     1       9.223   9.178  19.352  0.00  0.00    +0.000 N 
ATOM     14  C   UNL     1       8.372   8.726  18.363  0.00  0.00    +0.000 A 
ATOM     15  C   UNL     1       8.013   9.827  17.600  0.00  0.00    +0.000 A 
ATOM     16  C   UNL     1       8.621  10.968  18.167  0.00  0.00    +0.000 A 
ATOM     17  H   UNL     1       9.188  14.190  18.328  0.00  0.00    +0.000 HD
ATOM     18  H   UNL     1       9.651   8.593  20.059  0.00  0.00    +0.000 HD
ENDBRANCH   1  14
BRANCH   5  19
ATOM     19  C   UNL     1       6.623   4.919  15.671  0.00  0.00    +0.000 A 
ATOM     20  C   UNL     1       5.370   4.287  15.603  0.00  0.00    +0.000 A 
ATOM     21  C   UNL     1       4.906   3.735  14.411  0.00  0.00    +0.000 A 
ATOM     22  C   UNL     1       5.685   3.789  13.245  0.00  0.00    +0.000 A 
ATOM     23  C   UNL     1       6.946   4.395  13.306  0.00  0.00    +0.000 A 
ATOM     24  C   UNL     1       7.407   4.951  14.501  0.00  0.00    +0.000 A 
BRANCH  22  25
ATOM     25  C   UNL     1       5.161   3.214  11.955  0.00  0.00    +0.000 C 
ATOM     26  F   UNL     1       5.611   1.950  11.709  0.00  0.00    +0.000 F 
ATOM     27  F   UNL     1       3.802   3.131  11.938  0.00  0.00    +0.000 F 
ATOM     28  F   UNL     1       5.506   3.950  10.862  0.00  0.00    +0.000 F 
ENDBRANCH  22  25
ENDBRANCH   5  19
TORSDOF 3
ENDMDL
MODEL 2
REMARK VINA RESULT:      -8.4      0.140      1.221
REMARK  Name = 
REMARK  3 active torsions:
REMARK  status: ('A' for Active; 'I' for Inactive)
REMARK    1  A    between atoms: C_8  and  C_9
REMARK    2  A    between atoms: C_13  and  C_14
REMARK    3  A    between atoms: C_17  and  C_18
REMARK                            x       y       z     vdW  Elec       q    Type
REMARK                         _______ _______ _______ _____ _____    ______ ____
ROOT
ATOM      1  C   UNL     1       8.010   7.433  18.258  0.00  0.00    +0.000 A 
ATOM      2  C   UNL     1       8.186   6.552  19.324  0.00  0.00    +0.000 A 
ATOM      3  C   UNL     1       7.807   5.237  19.157  0.00  0.00    +0.000 A 
ATOM      4  N   UNL     1       7.289   4.744  18.017  0.00  0.00    +0.000 NA
ATOM      5  C   UNL     1       7.155   5.595  16.967  0.00  0.00    +0.000 A 
ATOM      6  C   UNL     1       7.485   6.942  17.065  0.00  0.00    +0.000 A 
ENDROOT
BRANCH   1  14
ATOM      7  O   UNL     1       7.814  12.899  16.933  0.00  0.00    +0.000 OA
ATOM      8  C   UNL     1       8.532  12.478  17.835  0.00  0.00    +0.000 C 
ATOM      9  N   UNL     1       9.269  13.330  18.633  0.00  0.00    +0.000 N 
ATOM     10  C   UNL     1      10.444  12.881  19.380  0.00  0.00    +0.000 C 
ATOM     11  C   UNL     1      10.283  11.512  20.075  0.00  0.00    +0.000 C 
ATOM     12  C   UNL     1       9.450  10.630  19.217  0.00  0.00    +0.000 A 
ATOM     13  N   UNL     1       9.296   9.279  19.345  0.00  0.00    +0.000 N 
ATOM     14  C   UNL     1       8.416   8.827  18.382  0.00  0.00    +0.000 A 
ATOM     15  C   UNL     1       8.031   9.928  17.632  0.00  0.00    +0.000 A 
ATOM     16  C   UNL     1       8.654  11.070  18.182  0.00  0.00    +0.000 A 
ATOM     17  H   UNL     1       9.220  14.292  18.329  0.00  0.00    +0.000 HD
ATOM     18  H   UNL     1       9.747   8.694  20.038  0.00  0.00    +0.000 HD
ENDBRANCH   1  14
BRANCH   5  19
ATOM     19  C   UNL     1       6.680   4.996  15.715  0.00  0.00    +0.000 A 
ATOM     20  C   UNL     1       7.428   5.106  14.530  0.00  0.00    +0.000 A 
ATOM     21  C   UNL     1       6.981   4.532  13.342  0.00  0.00    +0.000 A 
ATOM     22  C   UNL     1       5.764   3.835  13.295  0.00  0.00    +0.000 A 
ATOM     23  C   UNL     1       4.999   3.739  14.464  0.00  0.00    +0.000 A 
ATOM     24  C   UNL     1       5.450   4.311  15.655  0.00  0.00    +0.000 A 
BRANCH  22  25
ATOM     25  C   UNL     1       5.305   3.195  12.011  0.00  0.00    +0.000 C 
ATOM     26  F   UNL     1       3.950   3.198  11.864  0.00  0.00    +0.000 F 
ATOM     27  F   UNL     1       5.797   3.829  10.911  0.00  0.00    +0.000 F 
ATOM     28  F   UNL     1       5.688   1.893  11.896  0.00  0.00    +0.000 F 
ENDBRANCH  22  25
ENDBRANCH   5  19
TORSDOF 3
ENDMDL
MODEL 3
REMARK VINA RESULT:      -8.4      9.468     11.666
REMARK  Name = 
REMARK  3 active torsions:
REMARK  status: ('A' for Active; 'I' for Inactive)
REMARK    1  A    between atoms: C_8  and  C_9
REMARK    2  A    between atoms: C_13  and  C_14
REMARK    3  A    between atoms: C_17  and  C_18
REMARK                            x       y       z     vdW  Elec       q    Type
REMARK                         _______ _______ _______ _____ _____    ______ ____
ROOT
ATOM      1  C   UNL     1       1.883   7.880  19.343  0.00  0.00    +0.000 A 
ATOM      2  C   UNL     1       2.371   8.567  18.233  0.00  0.00    +0.000 A 
ATOM      3  C   UNL     1       1.918   9.849  18.004  0.00  0.00    +0.000 A 
ATOM      4  N   UNL     1       1.040  10.487  18.800  0.00  0.00    +0.000 NA
ATOM      5  C   UNL     1       0.596   9.831  19.902  0.00  0.00    +0.000 A 
ATOM      6  C   UNL     1       0.982   8.525  20.186  0.00  0.00    +0.000 A 
ENDROOT
BRANCH   1  14
ATOM      7  O   UNL     1       1.768   2.966  22.085  0.00  0.00    +0.000 OA
ATOM      8  C   UNL     1       2.551   3.174  21.162  0.00  0.00    +0.000 C 
ATOM      9  N   UNL     1       3.391   2.186  20.688  0.00  0.00    +0.000 N 
ATOM     10  C   UNL     1       4.613   2.489  19.945  0.00  0.00    +0.000 C 
ATOM     11  C   UNL     1       4.467   3.610  18.893  0.00  0.00    +0.000 C 
ATOM     12  C   UNL     1       3.525   4.637  19.408  0.00  0.00    +0.000 A 
ATOM     13  N   UNL     1       3.334   5.892  18.906  0.00  0.00    +0.000 N 
ATOM     14  C   UNL     1       2.351   6.531  19.636  0.00  0.00    +0.000 A 
ATOM     15  C   UNL     1       1.938   5.649  20.624  0.00  0.00    +0.000 A 
ATOM     16  C   UNL     1       2.653   4.442  20.457  0.00  0.00    +0.000 A 
ATOM     17  H   UNL     1       3.349   1.339  21.238  0.00  0.00    +0.000 HD
ATOM     18  H   UNL     1       3.825   6.297  18.119  0.00  0.00    +0.000 HD
ENDBRANCH   1  14
BRANCH   5  19
ATOM     19  C   UNL     1      -0.282  10.597  20.794  0.00  0.00    +0.000 A 
ATOM     20  C   UNL     1      -1.090  11.634  20.298  0.00  0.00    +0.000 A 
ATOM     21  C   UNL     1      -1.929  12.358  21.141  0.00  0.00    +0.000 A 
ATOM     22  C   UNL     1      -1.983  12.075  22.515  0.00  0.00    +0.000 A 
ATOM     23  C   UNL     1      -1.165  11.059  23.025  0.00  0.00    +0.000 A 
ATOM     24  C   UNL     1      -0.328  10.332  22.176  0.00  0.00    +0.000 A 
BRANCH  22  25
ATOM     25  C   UNL     1      -2.915  12.845  23.413  0.00  0.00    +0.000 C 
ATOM     26  F   UNL     1      -2.279  13.788  24.164  0.00  0.00    +0.000 F 
ATOM     27  F   UNL     1      -3.873  13.516  22.713  0.00  0.00    +0.000 F 
ATOM     28  F   UNL     1      -3.583  12.053  24.297  0.00  0.00    +0.000 F 
ENDBRANCH  22  25
ENDBRANCH   5  19
TORSDOF 3
ENDMDL
MODEL 4
REMARK VINA RESULT:      -8.3      9.276     11.454
REMARK  Name = 
REMARK  3 active torsions:
REMARK  status: ('A' for Active; 'I' for Inactive)
REMARK    1  A    between atoms: C_8  and  C_9
REMARK    2  A    between atoms: C_13  and  C_14
REMARK    3  A    between atoms: C_17  and  C_18
REMARK                            x       y       z     vdW  Elec       q    Type
REMARK                         _______ _______ _______ _____ _____    ______ ____
ROOT
ATOM      1  C   UNL     1       2.000   8.087  19.177  0.00  0.00    +0.000 A 
ATOM      2  C   UNL     1       2.433   8.828  18.079  0.00  0.00    +0.000 A 
ATOM      3  C   UNL     1       1.911  10.092  17.894  0.00  0.00    +0.000 A 
ATOM      4  N   UNL     1       1.016  10.662  18.722  0.00  0.00    +0.000 NA
ATOM      5  C   UNL     1       0.627   9.953  19.812  0.00  0.00    +0.000 A 
ATOM      6  C   UNL     1       1.083   8.661  20.053  0.00  0.00    +0.000 A 
ENDROOT
BRANCH   1  14
ATOM      7  O   UNL     1       5.840   4.006  18.647  0.00  0.00    +0.000 OA
ATOM      8  C   UNL     1       4.850   3.874  19.361  0.00  0.00    +0.000 C 
ATOM      9  N   UNL     1       4.664   2.751  20.142  0.00  0.00    +0.000 N 
ATOM     10  C   UNL     1       3.346   2.346  20.628  0.00  0.00    +0.000 C 
ATOM     11  C   UNL     1       2.467   3.504  21.149  0.00  0.00    +0.000 C 
ATOM     12  C   UNL     1       2.719   4.712  20.321  0.00  0.00    +0.000 A 
ATOM     13  N   UNL     1       1.964   5.849  20.288  0.00  0.00    +0.000 N 
ATOM     14  C   UNL     1       2.541   6.756  19.423  0.00  0.00    +0.000 A 
ATOM     15  C   UNL     1       3.674   6.154  18.897  0.00  0.00    +0.000 A 
ATOM     16  C   UNL     1       3.806   4.879  19.491  0.00  0.00    +0.000 A 
ATOM     17  H   UNL     1       5.366   2.041  19.981  0.00  0.00    +0.000 HD
ATOM     18  H   UNL     1       1.115   6.013  20.817  0.00  0.00    +0.000 HD
ENDBRANCH   1  14
BRANCH   5  19
ATOM     19  C   UNL     1      -0.273  10.648  20.740  0.00  0.00    +0.000 A 
ATOM     20  C   UNL     1      -1.094  11.701  20.300  0.00  0.00    +0.000 A 
ATOM     21  C   UNL     1      -1.953  12.357  21.177  0.00  0.00    +0.000 A 
ATOM     22  C   UNL     1      -2.016  11.989  22.530  0.00  0.00    +0.000 A 
ATOM     23  C   UNL     1      -1.185  10.958  22.986  0.00  0.00    +0.000 A 
ATOM     24  C   UNL     1      -0.327  10.298  22.103  0.00  0.00    +0.000 A 
BRANCH  22  25
ATOM     25  C   UNL     1      -2.969  12.688  23.464  0.00  0.00    +0.000 C 
ATOM     26  F   UNL     1      -2.366  13.635  24.238  0.00  0.00    +0.000 F 
ATOM     27  F   UNL     1      -3.966  13.335  22.798  0.00  0.00    +0.000 F 
ATOM     28  F   UNL     1      -3.587  11.839  24.331  0.00  0.00    +0.000 F 
ENDBRANCH  22  25
ENDBRANCH   5  19
TORSDOF 3
ENDMDL
MODEL 5
REMARK VINA RESULT:      -8.3      9.315     11.477
REMARK  Name = 
REMARK  3 active torsions:
REMARK  status: ('A' for Active; 'I' for Inactive)
REMARK    1  A    between atoms: C_8  and  C_9
REMARK    2  A    between atoms: C_13  and  C_14
REMARK    3  A    between atoms: C_17  and  C_18
REMARK                            x       y       z     vdW  Elec       q    Type
REMARK                         _______ _______ _______ _____ _____    ______ ____
ROOT
ATOM      1  C   UNL     1       1.970   8.092  19.213  0.00  0.00    +0.000 A 
ATOM      2  C   UNL     1       2.419   8.824  18.116  0.00  0.00    +0.000 A 
ATOM      3  C   UNL     1       1.908  10.090  17.918  0.00  0.00    +0.000 A 
ATOM      4  N   UNL     1       1.009  10.671  18.734  0.00  0.00    +0.000 NA
ATOM      5  C   UNL     1       0.603   9.971  19.824  0.00  0.00    +0.000 A 
ATOM      6  C   UNL     1       1.048   8.678  20.076  0.00  0.00    +0.000 A 
ENDROOT
BRANCH   1  14
ATOM      7  O   UNL     1       5.698   3.919  18.606  0.00  0.00    +0.000 OA
ATOM      8  C   UNL     1       4.747   3.830  19.378  0.00  0.00    +0.000 C 
ATOM      9  N   UNL     1       4.585   2.736  20.204  0.00  0.00    +0.000 N 
ATOM     10  C   UNL     1       3.289   2.374  20.776  0.00  0.00    +0.000 C 
ATOM     11  C   UNL     1       2.462   3.566  21.307  0.00  0.00    +0.000 C 
ATOM     12  C   UNL     1       2.689   4.741  20.427  0.00  0.00    +0.000 A 
ATOM     13  N   UNL     1       1.954   5.891  20.398  0.00  0.00    +0.000 N 
ATOM     14  C   UNL     1       2.499   6.759  19.473  0.00  0.00    +0.000 A 
ATOM     15  C   UNL     1       3.590   6.117  18.905  0.00  0.00    +0.000 A 
ATOM     16  C   UNL     1       3.731   4.860  19.533  0.00  0.00    +0.000 A 
ATOM     17  H   UNL     1       5.263   2.008  20.028  0.00  0.00    +0.000 HD
ATOM     18  H   UNL     1       1.140   6.090  20.968  0.00  0.00    +0.000 HD
ENDBRANCH   1  14
BRANCH   5  19
ATOM     19  C   UNL     1      -0.301  10.678  20.738  0.00  0.00    +0.000 A 
ATOM     20  C   UNL     1      -0.345  10.357  22.105  0.00  0.00    +0.000 A 
ATOM     21  C   UNL     1      -1.197  11.031  22.976  0.00  0.00    +0.000 A 
ATOM     22  C   UNL     1      -2.044  12.047  22.507  0.00  0.00    +0.000 A 
ATOM     23  C   UNL     1      -2.027  12.360  21.142  0.00  0.00    +0.000 A 
ATOM     24  C   UNL     1      -1.168  11.686  20.272  0.00  0.00    +0.000 A 
BRANCH  22  25
ATOM     25  C   UNL     1      -2.942  12.789  23.463  0.00  0.00    +0.000 C 
ATOM     26  F   UNL     1      -3.929  13.491  22.837  0.00  0.00    +0.000 F 
ATOM     27  F   UNL     1      -3.577  11.954  24.331  0.00  0.00    +0.000 F 
ATOM     28  F   UNL     1      -2.273  13.693  24.232  0.00  0.00    +0.000 F 
ENDBRANCH  22  25
ENDBRANCH   5  19
TORSDOF 3
ENDMDL
MODEL 6
REMARK VINA RESULT:      -8.3      6.561      6.987
REMARK  Name = 
REMARK  3 active torsions:
REMARK  status: ('A' for Active; 'I' for Inactive)
REMARK    1  A    between atoms: C_8  and  C_9
REMARK    2  A    between atoms: C_13  and  C_14
REMARK    3  A    between atoms: C_17  and  C_18
REMARK                            x       y       z     vdW  Elec       q    Type
REMARK                         _______ _______ _______ _____ _____    ______ ____
ROOT
ATOM      1  C   UNL     1       1.357   8.654  19.635  0.00  0.00    +0.000 A 
ATOM      2  C   UNL     1       1.216   7.938  20.823  0.00  0.00    +0.000 A 
ATOM      3  C   UNL     1       1.795   6.690  20.909  0.00  0.00    +0.000 A 
ATOM      4  N   UNL     1       2.506   6.123  19.916  0.00  0.00    +0.000 NA
ATOM      5  C   UNL     1       2.675   6.838  18.776  0.00  0.00    +0.000 A 
ATOM      6  C   UNL     1       2.097   8.091  18.599  0.00  0.00    +0.000 A 
ENDROOT
BRANCH   1  14
ATOM      7  O   UNL     1      -2.850  12.387  19.832  0.00  0.00    +0.000 OA
ATOM      8  C   UNL     1      -1.696  12.725  19.585  0.00  0.00    +0.000 C 
ATOM      9  N   UNL     1      -1.348  14.052  19.424  0.00  0.00    +0.000 N 
ATOM     10  C   UNL     1      -0.146  14.463  18.702  0.00  0.00    +0.000 C 
ATOM     11  C   UNL     1       1.111  13.619  19.008  0.00  0.00    +0.000 C 
ATOM     12  C   UNL     1       0.705  12.206  19.220  0.00  0.00    +0.000 A 
ATOM     13  N   UNL     1       1.528  11.118  19.253  0.00  0.00    +0.000 N 
ATOM     14  C   UNL     1       0.780   9.986  19.507  0.00  0.00    +0.000 A 
ATOM     15  C   UNL     1      -0.543  10.388  19.618  0.00  0.00    +0.000 A 
ATOM     16  C   UNL     1      -0.585  11.792  19.474  0.00  0.00    +0.000 A 
ATOM     17  H   UNL     1      -2.147  14.671  19.438  0.00  0.00    +0.000 HD
ATOM     18  H   UNL     1       2.532  11.130  19.119  0.00  0.00    +0.000 HD
ENDBRANCH   1  14
BRANCH   5  19
ATOM     19  C   UNL     1       3.537   6.226  17.758  0.00  0.00    +0.000 A 
ATOM     20  C   UNL     1       3.572   4.832  17.582  0.00  0.00    +0.000 A 
ATOM     21  C   UNL     1       4.384   4.250  16.613  0.00  0.00    +0.000 A 
ATOM     22  C   UNL     1       5.198   5.042  15.788  0.00  0.00    +0.000 A 
ATOM     23  C   UNL     1       5.190   6.430  15.970  0.00  0.00    +0.000 A 
ATOM     24  C   UNL     1       4.372   7.012  16.940  0.00  0.00    +0.000 A 
BRANCH  22  25
ATOM     25  C   UNL     1       6.052   4.402  14.724  0.00  0.00    +0.000 C 
ATOM     26  F   UNL     1       5.373   4.160  13.566  0.00  0.00    +0.000 F 
ATOM     27  F   UNL     1       7.114   5.180  14.374  0.00  0.00    +0.000 F 
ATOM     28  F   UNL     1       6.574   3.204  15.106  0.00  0.00    +0.000 F 
ENDBRANCH  22  25
ENDBRANCH   5  19
TORSDOF 3
ENDMDL
MODEL 7
REMARK VINA RESULT:      -8.2      6.310      6.813
REMARK  Name = 
REMARK  3 active torsions:
REMARK  status: ('A' for Active; 'I' for Inactive)
REMARK    1  A    between atoms: C_8  and  C_9
REMARK    2  A    between atoms: C_13  and  C_14
REMARK    3  A    between atoms: C_17  and  C_18
REMARK                            x       y       z     vdW  Elec       q    Type
REMARK                         _______ _______ _______ _____ _____    ______ ____
ROOT
ATOM      1  C   UNL     1       1.754   7.063  20.148  0.00  0.00    +0.000 A 
ATOM      2  C   UNL     1       1.567   6.000  21.031  0.00  0.00    +0.000 A 
ATOM      3  C   UNL     1       2.135   4.782  20.721  0.00  0.00    +0.000 A 
ATOM      4  N   UNL     1       2.876   4.559  19.620  0.00  0.00    +0.000 NA
ATOM      5  C   UNL     1       3.090   5.605  18.782  0.00  0.00    +0.000 A 
ATOM      6  C   UNL     1       2.527   6.857  19.008  0.00  0.00    +0.000 A 
ENDROOT
BRANCH   1  14
ATOM      7  O   UNL     1      -0.867  10.820  23.418  0.00  0.00    +0.000 OA
ATOM      8  C   UNL     1      -0.435  11.118  22.307  0.00  0.00    +0.000 C 
ATOM      9  N   UNL     1      -0.493  12.412  21.831  0.00  0.00    +0.000 N 
ATOM     10  C   UNL     1      -0.427  12.724  20.404  0.00  0.00    +0.000 C 
ATOM     11  C   UNL     1       0.627  11.916  19.615  0.00  0.00    +0.000 C 
ATOM     12  C   UNL     1       0.701  10.542  20.176  0.00  0.00    +0.000 A 
ATOM     13  N   UNL     1       1.306   9.460  19.603  0.00  0.00    +0.000 N 
ATOM     14  C   UNL     1       1.191   8.373  20.446  0.00  0.00    +0.000 A 
ATOM     15  C   UNL     1       0.481   8.794  21.561  0.00  0.00    +0.000 A 
ATOM     16  C   UNL     1       0.204  10.171  21.406  0.00  0.00    +0.000 A 
ATOM     17  H   UNL     1      -1.001  13.034  22.445  0.00  0.00    +0.000 HD
ATOM     18  H   UNL     1       1.774   9.449  18.705  0.00  0.00    +0.000 HD
ENDBRANCH   1  14
BRANCH   5  19
ATOM     19  C   UNL     1       3.984   5.345  17.648  0.00  0.00    +0.000 A 
ATOM     20  C   UNL     1       4.563   6.402  16.925  0.00  0.00    +0.000 A 
ATOM     21  C   UNL     1       5.417   6.156  15.853  0.00  0.00    +0.000 A 
ATOM     22  C   UNL     1       5.714   4.843  15.458  0.00  0.00    +0.000 A 
ATOM     23  C   UNL     1       5.124   3.781  16.156  0.00  0.00    +0.000 A 
ATOM     24  C   UNL     1       4.272   4.030  17.234  0.00  0.00    +0.000 A 
BRANCH  22  25
ATOM     25  C   UNL     1       6.661   4.589  14.314  0.00  0.00    +0.000 C 
ATOM     26  F   UNL     1       6.583   5.534  13.334  0.00  0.00    +0.000 F 
ATOM     27  F   UNL     1       7.964   4.577  14.712  0.00  0.00    +0.000 F 
ATOM     28  F   UNL     1       6.446   3.395  13.697  0.00  0.00    +0.000 F 
ENDBRANCH  22  25
ENDBRANCH   5  19
TORSDOF 3
ENDMDL
MODEL 8
REMARK VINA RESULT:      -8.2      6.517      8.754
REMARK  Name = 
REMARK  3 active torsions:
REMARK  status: ('A' for Active; 'I' for Inactive)
REMARK    1  A    between atoms: C_8  and  C_9
REMARK    2  A    between atoms: C_13  and  C_14
REMARK    3  A    between atoms: C_17  and  C_18
REMARK                            x       y       z     vdW  Elec       q    Type
REMARK                         _______ _______ _______ _____ _____    ______ ____
ROOT
ATOM      1  C   UNL     1       4.713   5.078  17.296  0.00  0.00    +0.000 A 
ATOM      2  C   UNL     1       4.809   4.092  18.277  0.00  0.00    +0.000 A 
ATOM      3  C   UNL     1       4.161   4.295  19.477  0.00  0.00    +0.000 A 
ATOM      4  N   UNL     1       3.424   5.386  19.755  0.00  0.00    +0.000 NA
ATOM      5  C   UNL     1       3.299   6.327  18.785  0.00  0.00    +0.000 A 
ATOM      6  C   UNL     1       3.947   6.210  17.559  0.00  0.00    +0.000 A 
ENDROOT
BRANCH   1  14
ATOM      7  O   UNL     1       8.761   5.995  13.495  0.00  0.00    +0.000 OA
ATOM      8  C   UNL     1       7.852   5.195  13.291  0.00  0.00    +0.000 C 
ATOM      9  N   UNL     1       7.816   4.412  12.155  0.00  0.00    +0.000 N 
ATOM     10  C   UNL     1       6.578   3.812  11.658  0.00  0.00    +0.000 C 
ATOM     11  C   UNL     1       5.673   3.202  12.750  0.00  0.00    +0.000 C 
ATOM     12  C   UNL     1       5.764   4.037  13.975  0.00  0.00    +0.000 A 
ATOM     13  N   UNL     1       4.932   3.990  15.057  0.00  0.00    +0.000 N 
ATOM     14  C   UNL     1       5.365   4.895  16.005  0.00  0.00    +0.000 A 
ATOM     15  C   UNL     1       6.484   5.528  15.485  0.00  0.00    +0.000 A 
ATOM     16  C   UNL     1       6.757   4.960  14.221  0.00  0.00    +0.000 A 
ATOM     17  H   UNL     1       8.547   4.643  11.497  0.00  0.00    +0.000 HD
ATOM     18  H   UNL     1       4.127   3.385  15.160  0.00  0.00    +0.000 HD
ENDBRANCH   1  14
BRANCH   5  19
ATOM     19  C   UNL     1       2.409   7.451  19.093  0.00  0.00    +0.000 A 
ATOM     20  C   UNL     1       2.090   8.411  18.117  0.00  0.00    +0.000 A 
ATOM     21  C   UNL     1       1.240   9.475  18.406  0.00  0.00    +0.000 A 
ATOM     22  C   UNL     1       0.684   9.623  19.686  0.00  0.00    +0.000 A 
ATOM     23  C   UNL     1       1.013   8.686  20.674  0.00  0.00    +0.000 A 
ATOM     24  C   UNL     1       1.862   7.617  20.381  0.00  0.00    +0.000 A 
BRANCH  22  25
ATOM     25  C   UNL     1      -0.257  10.762  19.979  0.00  0.00    +0.000 C 
ATOM     26  F   UNL     1      -0.567  10.876  21.302  0.00  0.00    +0.000 F 
ATOM     27  F   UNL     1       0.261  11.969  19.617  0.00  0.00    +0.000 F 
ATOM     28  F   UNL     1      -1.447  10.654  19.326  0.00  0.00    +0.000 F 
ENDBRANCH  22  25
ENDBRANCH   5  19
TORSDOF 3
ENDMDL
MODEL 9
REMARK VINA RESULT:      -8.2      6.159      6.616
REMARK  Name = 
REMARK  3 active torsions:
REMARK  status: ('A' for Active; 'I' for Inactive)
REMARK    1  A    between atoms: C_8  and  C_9
REMARK    2  A    between atoms: C_13  and  C_14
REMARK    3  A    between atoms: C_17  and  C_18
REMARK                            x       y       z     vdW  Elec       q    Type
REMARK                         _______ _______ _______ _____ _____    ______ ____
ROOT
ATOM      1  C   UNL     1       1.906   6.967  20.068  0.00  0.00    +0.000 A 
ATOM      2  C   UNL     1       1.824   5.932  20.999  0.00  0.00    +0.000 A 
ATOM      3  C   UNL     1       2.420   4.727  20.694  0.00  0.00    +0.000 A 
ATOM      4  N   UNL     1       3.093   4.491  19.553  0.00  0.00    +0.000 NA
ATOM      5  C   UNL     1       3.206   5.512  18.666  0.00  0.00    +0.000 A 
ATOM      6  C   UNL     1       2.607   6.748  18.885  0.00  0.00    +0.000 A 
ENDROOT
BRANCH   1  14
ATOM      7  O   UNL     1      -0.502  10.795  23.417  0.00  0.00    +0.000 OA
ATOM      8  C   UNL     1      -0.229  11.041  22.246  0.00  0.00    +0.000 C 
ATOM      9  N   UNL     1      -0.419  12.298  21.705  0.00  0.00    +0.000 N 
ATOM     10  C   UNL     1      -0.547  12.518  20.266  0.00  0.00    +0.000 C 
ATOM     11  C   UNL     1       0.445  11.713  19.398  0.00  0.00    +0.000 C 
ATOM     12  C   UNL     1       0.666  10.384  20.025  0.00  0.00    +0.000 A 
ATOM     13  N   UNL     1       1.257   9.299  19.445  0.00  0.00    +0.000 N 
ATOM     14  C   UNL     1       1.309   8.265  20.358  0.00  0.00    +0.000 A 
ATOM     15  C   UNL     1       0.719   8.722  21.527  0.00  0.00    +0.000 A 
ATOM     16  C   UNL     1       0.347  10.070  21.328  0.00  0.00    +0.000 A 
ATOM     17  H   UNL     1      -0.882  12.932  22.342  0.00  0.00    +0.000 HD
ATOM     18  H   UNL     1       1.611   9.252  18.497  0.00  0.00    +0.000 HD
ENDBRANCH   1  14
BRANCH   5  19
ATOM     19  C   UNL     1       4.030   5.244  17.482  0.00  0.00    +0.000 A 
ATOM     20  C   UNL     1       4.336   3.927  17.096  0.00  0.00    +0.000 A 
ATOM     21  C   UNL     1       5.112   3.670  15.968  0.00  0.00    +0.000 A 
ATOM     22  C   UNL     1       5.618   4.723  15.190  0.00  0.00    +0.000 A 
ATOM     23  C   UNL     1       5.340   6.039  15.579  0.00  0.00    +0.000 A 
ATOM     24  C   UNL     1       4.558   6.295  16.707  0.00  0.00    +0.000 A 
BRANCH  22  25
ATOM     25  C   UNL     1       6.433   4.432  13.957  0.00  0.00    +0.000 C 
ATOM     26  F   UNL     1       6.840   3.134  13.877  0.00  0.00    +0.000 F 
ATOM     27  F   UNL     1       5.740   4.673  12.809  0.00  0.00    +0.000 F 
ATOM     28  F   UNL     1       7.566   5.183  13.876  0.00  0.00    +0.000 F 
ENDBRANCH  22  25
ENDBRANCH   5  19
TORSDOF 3
ENDMDL
