MODEL 1
REMARK VINA RESULT:      -8.0      0.000      0.000
REMARK  Name = 
REMARK  5 active torsions:
REMARK  status: ('A' for Active; 'I' for Inactive)
REMARK    1  A    between atoms: C_1  and  C_2
REMARK    2  A    between atoms: C_4  and  C_5
REMARK    3  A    between atoms: C_12  and  C_13
REMARK    4  A    between atoms: C_13  and  O_15
REMARK    5  A    between atoms: C_26  and  C_27
REMARK                            x       y       z     vdW  Elec       q    Type
REMARK                         _______ _______ _______ _____ _____    ______ ____
ROOT
ATOM      1  C   UNL     1       2.012   8.308  19.059  0.00  0.00    +0.000 A 
ATOM      2  C   UNL     1       2.717   8.972  18.036  0.00  0.00    +0.000 A 
ATOM      3  F   UNL     1       2.522  10.281  17.807  0.00  0.00    +0.000 F 
ATOM      4  C   UNL     1       3.638   8.324  17.221  0.00  0.00    +0.000 A 
ATOM      5  C   UNL     1       3.911   6.977  17.440  0.00  0.00    +0.000 A 
ATOM      6  C   UNL     1       4.899   6.284  16.580  0.00  0.00    +0.000 A 
ATOM      7  O   UNL     1       5.478   6.865  15.665  0.00  0.00    +0.000 OA
ATOM      8  C   UNL     1       5.180   4.861  16.849  0.00  0.00    +0.000 A 
ATOM      9  C   UNL     1       4.503   4.283  17.851  0.00  0.00    +0.000 A 
ATOM     10  N   UNL     1       3.553   4.892  18.654  0.00  0.00    +0.000 N 
ATOM     11  C   UNL     1       3.252   6.259  18.452  0.00  0.00    +0.000 A 
ATOM     12  C   UNL     1       2.285   6.921  19.222  0.00  0.00    +0.000 A 
ATOM     13  O   UNL     1       1.470   6.231  20.076  0.00  0.00    +0.000 OA
ATOM     14  C   UNL     1       1.912   4.987  20.620  0.00  0.00    +0.000 C 
ATOM     15  C   UNL     1       2.924   4.188  19.809  0.00  0.00    +0.000 C 
ATOM     16  C   UNL     1       2.673   2.687  19.752  0.00  0.00    +0.000 C 
ATOM     17  C   UNL     1       3.761   3.214  20.635  0.00  0.00    +0.000 C 
ENDROOT
BRANCH   1  21
ATOM     18  C   UNL     1       0.047   9.443  23.569  0.00  0.00    +0.000 C 
ATOM     19  C   UNL     1       0.103   9.618  22.081  0.00  0.00    +0.000 A 
ATOM     20  C   UNL     1       1.034   8.919  21.315  0.00  0.00    +0.000 A 
ATOM     21  C   UNL     1       1.035   9.041  19.920  0.00  0.00    +0.000 A 
ATOM     22  C   UNL     1       0.061   9.890  19.371  0.00  0.00    +0.000 A 
ATOM     23  C   UNL     1      -0.798  10.610  20.198  0.00  0.00    +0.000 A 
ATOM     24  C   UNL     1      -1.763  11.602  19.623  0.00  0.00    +0.000 C 
ATOM     25  N   UNL     1      -0.794  10.471  21.540  0.00  0.00    +0.000 NA
ENDBRANCH   1  21
BRANCH   8  26
ATOM     26  C   UNL     1       6.160   4.054  16.088  0.00  0.00    +0.000 C 
ATOM     27  O   UNL     1       5.843   3.130  15.352  0.00  0.00    +0.000 OA
BRANCH  26  28
ATOM     28  O   UNL     1       7.441   4.423  16.267  0.00  0.00    +0.000 OA
ATOM     29  H   UNL     1       8.023   3.726  16.660  0.00  0.00    +0.000 HD
ENDBRANCH  26  28
ENDBRANCH   8  26
TORSDOF 3
ENDMDL
MODEL 2
REMARK VINA RESULT:      -7.9      0.042      1.571
REMARK  Name = 
REMARK  5 active torsions:
REMARK  status: ('A' for Active; 'I' for Inactive)
REMARK    1  A    between atoms: C_1  and  C_2
REMARK    2  A    between atoms: C_4  and  C_5
REMARK    3  A    between atoms: C_12  and  C_13
REMARK    4  A    between atoms: C_13  and  O_15
REMARK    5  A    between atoms: C_26  and  C_27
REMARK                            x       y       z     vdW  Elec       q    Type
REMARK                         _______ _______ _______ _____ _____    ______ ____
ROOT
ATOM      1  C   UNL     1       2.013   8.347  19.042  0.00  0.00    +0.000 A 
ATOM      2  C   UNL     1       2.725   8.999  18.017  0.00  0.00    +0.000 A 
ATOM      3  F   UNL     1       2.538  10.307  17.777  0.00  0.00    +0.000 F 
ATOM      4  C   UNL     1       3.644   8.340  17.209  0.00  0.00    +0.000 A 
ATOM      5  C   UNL     1       3.909   6.992  17.438  0.00  0.00    +0.000 A 
ATOM      6  C   UNL     1       4.896   6.288  16.586  0.00  0.00    +0.000 A 
ATOM      7  O   UNL     1       5.480   6.859  15.669  0.00  0.00    +0.000 OA
ATOM      8  C   UNL     1       5.167   4.865  16.866  0.00  0.00    +0.000 A 
ATOM      9  C   UNL     1       4.484   4.298  17.870  0.00  0.00    +0.000 A 
ATOM     10  N   UNL     1       3.536   4.918  18.666  0.00  0.00    +0.000 N 
ATOM     11  C   UNL     1       3.243   6.286  18.454  0.00  0.00    +0.000 A 
ATOM     12  C   UNL     1       2.278   6.959  19.216  0.00  0.00    +0.000 A 
ATOM     13  O   UNL     1       1.456   6.280  20.072  0.00  0.00    +0.000 OA
ATOM     14  C   UNL     1       1.889   5.038  20.627  0.00  0.00    +0.000 C 
ATOM     15  C   UNL     1       2.899   4.227  19.825  0.00  0.00    +0.000 C 
ATOM     16  C   UNL     1       2.640   2.727  19.778  0.00  0.00    +0.000 C 
ATOM     17  C   UNL     1       3.728   3.254  20.660  0.00  0.00    +0.000 C 
ENDROOT
BRANCH   1  21
ATOM     18  C   UNL     1      -1.809  11.596  19.613  0.00  0.00    +0.000 C 
ATOM     19  C   UNL     1      -0.817  10.626  20.179  0.00  0.00    +0.000 A 
ATOM     20  C   UNL     1       0.072   9.947  19.347  0.00  0.00    +0.000 A 
ATOM     21  C   UNL     1       1.037   9.092  19.894  0.00  0.00    +0.000 A 
ATOM     22  C   UNL     1       1.041   8.975  21.293  0.00  0.00    +0.000 A 
ATOM     23  C   UNL     1       0.083   9.631  22.061  0.00  0.00    +0.000 A 
ATOM     24  C   UNL     1       0.013   9.421  23.544  0.00  0.00    +0.000 C 
ATOM     25  N   UNL     1      -0.833  10.462  21.520  0.00  0.00    +0.000 NA
ENDBRANCH   1  21
BRANCH   8  26
ATOM     26  C   UNL     1       6.145   4.047  16.115  0.00  0.00    +0.000 C 
ATOM     27  O   UNL     1       5.824   3.125  15.378  0.00  0.00    +0.000 OA
BRANCH  26  28
ATOM     28  O   UNL     1       7.428   4.404  16.302  0.00  0.00    +0.000 OA
ATOM     29  H   UNL     1       7.597   5.379  16.260  0.00  0.00    +0.000 HD
ENDBRANCH  26  28
ENDBRANCH   8  26
TORSDOF 3
ENDMDL
MODEL 3
REMARK VINA RESULT:      -7.9      3.142      8.239
REMARK  Name = 
REMARK  5 active torsions:
REMARK  status: ('A' for Active; 'I' for Inactive)
REMARK    1  A    between atoms: C_1  and  C_2
REMARK    2  A    between atoms: C_4  and  C_5
REMARK    3  A    between atoms: C_12  and  C_13
REMARK    4  A    between atoms: C_13  and  O_15
REMARK    5  A    between atoms: C_26  and  C_27
REMARK                            x       y       z     vdW  Elec       q    Type
REMARK                         _______ _______ _______ _____ _____    ______ ____
ROOT
ATOM      1  C   UNL     1       1.938   7.539  19.615  0.00  0.00    +0.000 A 
ATOM      2  C   UNL     1       1.430   7.019  20.822  0.00  0.00    +0.000 A 
ATOM      3  F   UNL     1       1.635   5.735  21.155  0.00  0.00    +0.000 F 
ATOM      4  C   UNL     1       0.701   7.792  21.720  0.00  0.00    +0.000 A 
ATOM      5  C   UNL     1       0.494   9.140  21.445  0.00  0.00    +0.000 A 
ATOM      6  C   UNL     1      -0.274   9.970  22.405  0.00  0.00    +0.000 A 
ATOM      7  O   UNL     1      -0.746   9.494  23.434  0.00  0.00    +0.000 OA
ATOM      8  C   UNL     1      -0.461  11.400  22.095  0.00  0.00    +0.000 A 
ATOM      9  C   UNL     1       0.066  11.850  20.948  0.00  0.00    +0.000 A 
ATOM     10  N   UNL     1       0.762  11.099  20.017  0.00  0.00    +0.000 N 
ATOM     11  C   UNL     1       0.986   9.724  20.266  0.00  0.00    +0.000 A 
ATOM     12  C   UNL     1       1.666   8.910  19.349  0.00  0.00    +0.000 A 
ATOM     13  O   UNL     1       1.985   9.369  18.101  0.00  0.00    +0.000 OA
ATOM     14  C   UNL     1       2.149  10.771  17.886  0.00  0.00    +0.000 C 
ATOM     15  C   UNL     1       1.395  11.715  18.814  0.00  0.00    +0.000 C 
ATOM     16  C   UNL     1       0.751  12.917  18.136  0.00  0.00    +0.000 C 
ATOM     17  C   UNL     1       2.009  13.108  18.926  0.00  0.00    +0.000 C 
ENDROOT
BRANCH   1  21
ATOM     18  C   UNL     1       5.897   6.737  16.587  0.00  0.00    +0.000 C 
ATOM     19  C   UNL     1       4.635   6.270  17.246  0.00  0.00    +0.000 A 
ATOM     20  C   UNL     1       3.936   7.103  18.119  0.00  0.00    +0.000 A 
ATOM     21  C   UNL     1       2.723   6.679  18.678  0.00  0.00    +0.000 A 
ATOM     22  C   UNL     1       2.281   5.400  18.306  0.00  0.00    +0.000 A 
ATOM     23  C   UNL     1       3.061   4.594  17.480  0.00  0.00    +0.000 A 
ATOM     24  C   UNL     1       2.648   3.186  17.172  0.00  0.00    +0.000 C 
ATOM     25  N   UNL     1       4.221   5.021  16.939  0.00  0.00    +0.000 NA
ENDBRANCH   1  21
BRANCH   8  26
ATOM     26  C   UNL     1      -1.181  12.348  22.973  0.00  0.00    +0.000 C 
ATOM     27  O   UNL     1      -0.696  13.400  23.367  0.00  0.00    +0.000 OA
BRANCH  26  28
ATOM     28  O   UNL     1      -2.427  11.963  23.303  0.00  0.00    +0.000 OA
ATOM     29  H   UNL     1      -3.117  12.162  22.622  0.00  0.00    +0.000 HD
ENDBRANCH  26  28
ENDBRANCH   8  26
TORSDOF 3
ENDMDL
MODEL 4
REMARK VINA RESULT:      -7.8      3.165      8.218
REMARK  Name = 
REMARK  5 active torsions:
REMARK  status: ('A' for Active; 'I' for Inactive)
REMARK    1  A    between atoms: C_1  and  C_2
REMARK    2  A    between atoms: C_4  and  C_5
REMARK    3  A    between atoms: C_12  and  C_13
REMARK    4  A    between atoms: C_13  and  O_15
REMARK    5  A    between atoms: C_26  and  C_27
REMARK                            x       y       z     vdW  Elec       q    Type
REMARK                         _______ _______ _______ _____ _____    ______ ____
ROOT
ATOM      1  C   UNL     1       1.930   7.552  19.638  0.00  0.00    +0.000 A 
ATOM      2  C   UNL     1       1.395   7.041  20.836  0.00  0.00    +0.000 A 
ATOM      3  F   UNL     1       1.573   5.754  21.173  0.00  0.00    +0.000 F 
ATOM      4  C   UNL     1       0.664   7.826  21.722  0.00  0.00    +0.000 A 
ATOM      5  C   UNL     1       0.482   9.177  21.444  0.00  0.00    +0.000 A 
ATOM      6  C   UNL     1      -0.287  10.019  22.391  0.00  0.00    +0.000 A 
ATOM      7  O   UNL     1      -0.783   9.552  23.413  0.00  0.00    +0.000 OA
ATOM      8  C   UNL     1      -0.446  11.452  22.077  0.00  0.00    +0.000 A 
ATOM      9  C   UNL     1       0.106  11.894  20.939  0.00  0.00    +0.000 A 
ATOM     10  N   UNL     1       0.805  11.130  20.019  0.00  0.00    +0.000 N 
ATOM     11  C   UNL     1       1.003   9.752  20.273  0.00  0.00    +0.000 A 
ATOM     12  C   UNL     1       1.685   8.927  19.367  0.00  0.00    +0.000 A 
ATOM     13  O   UNL     1       2.031   9.380  18.124  0.00  0.00    +0.000 OA
ATOM     14  C   UNL     1       2.221  10.779  17.912  0.00  0.00    +0.000 C 
ATOM     15  C   UNL     1       1.467  11.736  18.827  0.00  0.00    +0.000 C 
ATOM     16  C   UNL     1       0.854  12.948  18.139  0.00  0.00    +0.000 C 
ATOM     17  C   UNL     1       2.101  13.119  18.948  0.00  0.00    +0.000 C 
ENDROOT
BRANCH   1  21
ATOM     18  C   UNL     1       2.637   3.212  17.158  0.00  0.00    +0.000 C 
ATOM     19  C   UNL     1       3.051   4.612  17.494  0.00  0.00    +0.000 A 
ATOM     20  C   UNL     1       2.285   5.395  18.356  0.00  0.00    +0.000 A 
ATOM     21  C   UNL     1       2.716   6.679  18.714  0.00  0.00    +0.000 A 
ATOM     22  C   UNL     1       3.934   7.102  18.158  0.00  0.00    +0.000 A 
ATOM     23  C   UNL     1       4.617   6.295  17.252  0.00  0.00    +0.000 A 
ATOM     24  C   UNL     1       5.857   6.787  16.570  0.00  0.00    +0.000 C 
ATOM     25  N   UNL     1       4.195   5.055  16.927  0.00  0.00    +0.000 NA
ENDBRANCH   1  21
BRANCH   8  26
ATOM     26  C   UNL     1      -1.165  12.413  22.943  0.00  0.00    +0.000 C 
ATOM     27  O   UNL     1      -0.661  13.442  23.369  0.00  0.00    +0.000 OA
BRANCH  26  28
ATOM     28  O   UNL     1      -2.434  12.064  23.224  0.00  0.00    +0.000 OA
ATOM     29  H   UNL     1      -2.895  12.660  23.866  0.00  0.00    +0.000 HD
ENDBRANCH  26  28
ENDBRANCH   8  26
TORSDOF 3
ENDMDL
MODEL 5
REMARK VINA RESULT:      -7.6      2.358      4.061
REMARK  Name = 
REMARK  5 active torsions:
REMARK  status: ('A' for Active; 'I' for Inactive)
REMARK    1  A    between atoms: C_1  and  C_2
REMARK    2  A    between atoms: C_4  and  C_5
REMARK    3  A    between atoms: C_12  and  C_13
REMARK    4  A    between atoms: C_13  and  O_15
REMARK    5  A    between atoms: C_26  and  C_27
REMARK                            x       y       z     vdW  Elec       q    Type
REMARK                         _______ _______ _______ _____ _____    ______ ____
ROOT
ATOM      1  C   UNL     1       1.470   8.101  19.712  0.00  0.00    +0.000 A 
ATOM      2  C   UNL     1       0.908   7.302  20.726  0.00  0.00    +0.000 A 
ATOM      3  F   UNL     1      -0.098   7.765  21.486  0.00  0.00    +0.000 F 
ATOM      4  C   UNL     1       1.354   6.013  20.995  0.00  0.00    +0.000 A 
ATOM      5  C   UNL     1       2.367   5.466  20.212  0.00  0.00    +0.000 A 
ATOM      6  C   UNL     1       2.838   4.088  20.489  0.00  0.00    +0.000 A 
ATOM      7  O   UNL     1       2.367   3.416  21.403  0.00  0.00    +0.000 OA
ATOM      8  C   UNL     1       3.900   3.530  19.630  0.00  0.00    +0.000 A 
ATOM      9  C   UNL     1       4.381   4.320  18.661  0.00  0.00    +0.000 A 
ATOM     10  N   UNL     1       3.984   5.620  18.394  0.00  0.00    +0.000 N 
ATOM     11  C   UNL     1       2.960   6.204  19.175  0.00  0.00    +0.000 A 
ATOM     12  C   UNL     1       2.533   7.523  18.963  0.00  0.00    +0.000 A 
ATOM     13  O   UNL     1       3.208   8.354  18.113  0.00  0.00    +0.000 OA
ATOM     14  C   UNL     1       3.972   7.798  17.042  0.00  0.00    +0.000 C 
ATOM     15  C   UNL     1       4.514   6.386  17.228  0.00  0.00    +0.000 C 
ATOM     16  C   UNL     1       5.942   6.168  16.748  0.00  0.00    +0.000 C 
ATOM     17  C   UNL     1       4.806   5.650  15.923  0.00  0.00    +0.000 C 
ENDROOT
BRANCH   1  21
ATOM     18  C   UNL     1      -1.758  11.291  17.500  0.00  0.00    +0.000 C 
ATOM     19  C   UNL     1      -0.604  11.019  18.417  0.00  0.00    +0.000 A 
ATOM     20  C   UNL     1      -0.162   9.716  18.640  0.00  0.00    +0.000 A 
ATOM     21  C   UNL     1       0.959   9.480  19.447  0.00  0.00    +0.000 A 
ATOM     22  C   UNL     1       1.580  10.614  19.994  0.00  0.00    +0.000 A 
ATOM     23  C   UNL     1       1.048  11.884  19.783  0.00  0.00    +0.000 A 
ATOM     24  C   UNL     1       1.641  13.085  20.456  0.00  0.00    +0.000 C 
ATOM     25  N   UNL     1      -0.025  12.096  18.993  0.00  0.00    +0.000 NA
ENDBRANCH   1  21
BRANCH   8  26
ATOM     26  C   UNL     1       4.446   2.162  19.775  0.00  0.00    +0.000 C 
ATOM     27  O   UNL     1       5.154   1.816  20.710  0.00  0.00    +0.000 OA
BRANCH  26  28
ATOM     28  O   UNL     1       4.094   1.317  18.789  0.00  0.00    +0.000 OA
ATOM     29  H   UNL     1       4.845   0.996  18.230  0.00  0.00    +0.000 HD
ENDBRANCH  26  28
ENDBRANCH   8  26
TORSDOF 3
ENDMDL
MODEL 6
REMARK VINA RESULT:      -7.6      2.370      3.880
REMARK  Name = 
REMARK  5 active torsions:
REMARK  status: ('A' for Active; 'I' for Inactive)
REMARK    1  A    between atoms: C_1  and  C_2
REMARK    2  A    between atoms: C_4  and  C_5
REMARK    3  A    between atoms: C_12  and  C_13
REMARK    4  A    between atoms: C_13  and  O_15
REMARK    5  A    between atoms: C_26  and  C_27
REMARK                            x       y       z     vdW  Elec       q    Type
REMARK                         _______ _______ _______ _____ _____    ______ ____
ROOT
ATOM      1  C   UNL     1       1.483   8.035  19.739  0.00  0.00    +0.000 A 
ATOM      2  C   UNL     1       0.919   7.227  20.746  0.00  0.00    +0.000 A 
ATOM      3  F   UNL     1      -0.089   7.683  21.507  0.00  0.00    +0.000 F 
ATOM      4  C   UNL     1       1.366   5.936  21.006  0.00  0.00    +0.000 A 
ATOM      5  C   UNL     1       2.382   5.397  20.222  0.00  0.00    +0.000 A 
ATOM      6  C   UNL     1       2.855   4.018  20.489  0.00  0.00    +0.000 A 
ATOM      7  O   UNL     1       2.382   3.338  21.397  0.00  0.00    +0.000 OA
ATOM      8  C   UNL     1       3.919   3.468  19.629  0.00  0.00    +0.000 A 
ATOM      9  C   UNL     1       4.402   4.267  18.667  0.00  0.00    +0.000 A 
ATOM     10  N   UNL     1       4.005   5.568  18.409  0.00  0.00    +0.000 N 
ATOM     11  C   UNL     1       2.977   6.144  19.193  0.00  0.00    +0.000 A 
ATOM     12  C   UNL     1       2.549   7.464  18.989  0.00  0.00    +0.000 A 
ATOM     13  O   UNL     1       3.225   8.303  18.147  0.00  0.00    +0.000 OA
ATOM     14  C   UNL     1       3.992   7.756  17.075  0.00  0.00    +0.000 C 
ATOM     15  C   UNL     1       4.536   6.344  17.251  0.00  0.00    +0.000 C 
ATOM     16  C   UNL     1       5.966   6.132  16.774  0.00  0.00    +0.000 C 
ATOM     17  C   UNL     1       4.833   5.618  15.941  0.00  0.00    +0.000 C 
ENDROOT
BRANCH   1  21
ATOM     18  C   UNL     1       1.702  13.039  20.371  0.00  0.00    +0.000 C 
ATOM     19  C   UNL     1       1.083  11.821  19.755  0.00  0.00    +0.000 A 
ATOM     20  C   UNL     1       1.597  10.551  20.014  0.00  0.00    +0.000 A 
ATOM     21  C   UNL     1       0.970   9.415  19.485  0.00  0.00    +0.000 A 
ATOM     22  C   UNL     1      -0.172   9.645  18.702  0.00  0.00    +0.000 A 
ATOM     23  C   UNL     1      -0.594  10.943  18.428  0.00  0.00    +0.000 A 
ATOM     24  C   UNL     1      -1.745  11.196  17.502  0.00  0.00    +0.000 C 
ATOM     25  N   UNL     1       0.013  12.027  18.956  0.00  0.00    +0.000 NA
ENDBRANCH   1  21
BRANCH   8  26
ATOM     26  C   UNL     1       4.467   2.100  19.765  0.00  0.00    +0.000 C 
ATOM     27  O   UNL     1       5.197   1.756  20.684  0.00  0.00    +0.000 OA
BRANCH  26  28
ATOM     28  O   UNL     1       4.091   1.253  18.790  0.00  0.00    +0.000 OA
ATOM     29  H   UNL     1       4.801   0.636  18.479  0.00  0.00    +0.000 HD
ENDBRANCH  26  28
ENDBRANCH   8  26
TORSDOF 3
ENDMDL
MODEL 7
REMARK VINA RESULT:      -7.5      5.058      8.370
REMARK  Name = 
REMARK  5 active torsions:
REMARK  status: ('A' for Active; 'I' for Inactive)
REMARK    1  A    between atoms: C_1  and  C_2
REMARK    2  A    between atoms: C_4  and  C_5
REMARK    3  A    between atoms: C_12  and  C_13
REMARK    4  A    between atoms: C_13  and  O_15
REMARK    5  A    between atoms: C_26  and  C_27
REMARK                            x       y       z     vdW  Elec       q    Type
REMARK                         _______ _______ _______ _____ _____    ______ ____
ROOT
ATOM      1  C   UNL     1      -3.008  13.269  22.053  0.00  0.00    +0.000 A 
ATOM      2  C   UNL     1      -1.809  13.156  22.783  0.00  0.00    +0.000 A 
ATOM      3  F   UNL     1      -1.695  13.700  24.005  0.00  0.00    +0.000 F 
ATOM      4  C   UNL     1      -0.694  12.488  22.288  0.00  0.00    +0.000 A 
ATOM      5  C   UNL     1      -0.768  11.869  21.043  0.00  0.00    +0.000 A 
ATOM      6  C   UNL     1       0.415  11.148  20.516  0.00  0.00    +0.000 A 
ATOM      7  O   UNL     1       1.469  11.091  21.145  0.00  0.00    +0.000 OA
ATOM      8  C   UNL     1       0.299  10.487  19.203  0.00  0.00    +0.000 A 
ATOM      9  C   UNL     1      -0.873  10.601  18.562  0.00  0.00    +0.000 A 
ATOM     10  N   UNL     1      -1.986  11.290  19.011  0.00  0.00    +0.000 N 
ATOM     11  C   UNL     1      -1.939  11.932  20.271  0.00  0.00    +0.000 A 
ATOM     12  C   UNL     1      -3.030  12.662  20.767  0.00  0.00    +0.000 A 
ATOM     13  O   UNL     1      -4.114  12.931  19.979  0.00  0.00    +0.000 OA
ATOM     14  C   UNL     1      -4.427  12.061  18.891  0.00  0.00    +0.000 C 
ATOM     15  C   UNL     1      -3.280  11.277  18.268  0.00  0.00    +0.000 C 
ATOM     16  C   UNL     1      -3.292  11.200  16.747  0.00  0.00    +0.000 C 
ATOM     17  C   UNL     1      -3.710  10.004  17.543  0.00  0.00    +0.000 C 
ENDROOT
BRANCH   1  21
ATOM     18  C   UNL     1      -5.494  17.514  23.191  0.00  0.00    +0.000 C 
ATOM     19  C   UNL     1      -5.405  16.018  23.145  0.00  0.00    +0.000 A 
ATOM     20  C   UNL     1      -4.289  15.386  22.600  0.00  0.00    +0.000 A 
ATOM     21  C   UNL     1      -4.188  13.989  22.622  0.00  0.00    +0.000 A 
ATOM     22  C   UNL     1      -5.259  13.299  23.212  0.00  0.00    +0.000 A 
ATOM     23  C   UNL     1      -6.374  13.989  23.679  0.00  0.00    +0.000 A 
ATOM     24  C   UNL     1      -7.567  13.250  24.207  0.00  0.00    +0.000 C 
ATOM     25  N   UNL     1      -6.450  15.336  23.663  0.00  0.00    +0.000 NA
ENDBRANCH   1  21
BRANCH   8  26
ATOM     26  C   UNL     1       1.389   9.711  18.569  0.00  0.00    +0.000 C 
ATOM     27  O   UNL     1       1.762   8.620  18.976  0.00  0.00    +0.000 OA
BRANCH  26  28
ATOM     28  O   UNL     1       1.938  10.304  17.494  0.00  0.00    +0.000 OA
ATOM     29  H   UNL     1       2.696  10.908  17.695  0.00  0.00    +0.000 HD
ENDBRANCH  26  28
ENDBRANCH   8  26
TORSDOF 3
ENDMDL
MODEL 8
REMARK VINA RESULT:      -7.5      5.063      8.343
REMARK  Name = 
REMARK  5 active torsions:
REMARK  status: ('A' for Active; 'I' for Inactive)
REMARK    1  A    between atoms: C_1  and  C_2
REMARK    2  A    between atoms: C_4  and  C_5
REMARK    3  A    between atoms: C_12  and  C_13
REMARK    4  A    between atoms: C_13  and  O_15
REMARK    5  A    between atoms: C_26  and  C_27
REMARK                            x       y       z     vdW  Elec       q    Type
REMARK                         _______ _______ _______ _____ _____    ______ ____
ROOT
ATOM      1  C   UNL     1      -3.061  13.293  22.040  0.00  0.00    +0.000 A 
ATOM      2  C   UNL     1      -1.870  13.184  22.785  0.00  0.00    +0.000 A 
ATOM      3  F   UNL     1      -1.770  13.740  24.004  0.00  0.00    +0.000 F 
ATOM      4  C   UNL     1      -0.751  12.509  22.310  0.00  0.00    +0.000 A 
ATOM      5  C   UNL     1      -0.811  11.880  21.070  0.00  0.00    +0.000 A 
ATOM      6  C   UNL     1       0.377  11.150  20.565  0.00  0.00    +0.000 A 
ATOM      7  O   UNL     1       1.422  11.097  21.207  0.00  0.00    +0.000 OA
ATOM      8  C   UNL     1       0.275  10.478  19.256  0.00  0.00    +0.000 A 
ATOM      9  C   UNL     1      -0.888  10.588  18.600  0.00  0.00    +0.000 A 
ATOM     10  N   UNL     1      -2.006  11.284  19.029  0.00  0.00    +0.000 N 
ATOM     11  C   UNL     1      -1.973  11.938  20.284  0.00  0.00    +0.000 A 
ATOM     12  C   UNL     1      -3.068  12.674  20.759  0.00  0.00    +0.000 A 
ATOM     13  O   UNL     1      -4.142  12.938  19.955  0.00  0.00    +0.000 OA
ATOM     14  C   UNL     1      -4.444  12.059  18.872  0.00  0.00    +0.000 C 
ATOM     15  C   UNL     1      -3.290  11.267  18.270  0.00  0.00    +0.000 C 
ATOM     16  C   UNL     1      -3.285  11.176  16.750  0.00  0.00    +0.000 C 
ATOM     17  C   UNL     1      -3.714   9.988  17.552  0.00  0.00    +0.000 C 
ENDROOT
BRANCH   1  21
ATOM     18  C   UNL     1      -7.607  13.357  24.235  0.00  0.00    +0.000 C 
ATOM     19  C   UNL     1      -6.414  14.066  23.668  0.00  0.00    +0.000 A 
ATOM     20  C   UNL     1      -5.326  13.349  23.173  0.00  0.00    +0.000 A 
ATOM     21  C   UNL     1      -4.246  14.021  22.587  0.00  0.00    +0.000 A 
ATOM     22  C   UNL     1      -4.338  15.421  22.538  0.00  0.00    +0.000 A 
ATOM     23  C   UNL     1      -5.424  16.079  23.110  0.00  0.00    +0.000 A 
ATOM     24  C   UNL     1      -5.474  17.576  23.161  0.00  0.00    +0.000 C 
ATOM     25  N   UNL     1      -6.464  15.416  23.660  0.00  0.00    +0.000 NA
ENDBRANCH   1  21
BRANCH   8  26
ATOM     26  C   UNL     1       1.371   9.694  18.643  0.00  0.00    +0.000 C 
ATOM     27  O   UNL     1       1.759   8.622  19.085  0.00  0.00    +0.000 OA
BRANCH  26  28
ATOM     28  O   UNL     1       1.908  10.256  17.545  0.00  0.00    +0.000 OA
ATOM     29  H   UNL     1       2.575   9.695  17.076  0.00  0.00    +0.000 HD
ENDBRANCH  26  28
ENDBRANCH   8  26
TORSDOF 3
ENDMDL
MODEL 9
REMARK VINA RESULT:      -7.1      5.894     10.742
REMARK  Name = 
REMARK  5 active torsions:
REMARK  status: ('A' for Active; 'I' for Inactive)
REMARK    1  A    between atoms: C_1  and  C_2
REMARK    2  A    between atoms: C_4  and  C_5
REMARK    3  A    between atoms: C_12  and  C_13
REMARK    4  A    between atoms: C_13  and  O_15
REMARK    5  A    between atoms: C_26  and  C_27
REMARK                            x       y       z     vdW  Elec       q    Type
REMARK                         _______ _______ _______ _____ _____    ______ ____
ROOT
ATOM      1  C   UNL     1      -1.152  12.490  20.791  0.00  0.00    +0.000 A 
ATOM      2  C   UNL     1      -0.954  12.896  22.125  0.00  0.00    +0.000 A 
ATOM      3  F   UNL     1       0.284  13.100  22.603  0.00  0.00    +0.000 F 
ATOM      4  C   UNL     1      -2.009  13.105  23.007  0.00  0.00    +0.000 A 
ATOM      5  C   UNL     1      -3.316  12.948  22.554  0.00  0.00    +0.000 A 
ATOM      6  C   UNL     1      -4.443  13.180  23.488  0.00  0.00    +0.000 A 
ATOM      7  O   UNL     1      -4.256  13.495  24.660  0.00  0.00    +0.000 OA
ATOM      8  C   UNL     1      -5.817  13.024  22.973  0.00  0.00    +0.000 A 
ATOM      9  C   UNL     1      -5.951  12.664  21.689  0.00  0.00    +0.000 A 
ATOM     10  N   UNL     1      -4.921  12.411  20.799  0.00  0.00    +0.000 N 
ATOM     11  C   UNL     1      -3.582  12.559  21.231  0.00  0.00    +0.000 A 
ATOM     12  C   UNL     1      -2.500  12.297  20.378  0.00  0.00    +0.000 A 
ATOM     13  O   UNL     1      -2.691  11.720  19.154  0.00  0.00    +0.000 OA
ATOM     14  C   UNL     1      -3.946  11.876  18.490  0.00  0.00    +0.000 C 
ATOM     15  C   UNL     1      -5.174  12.110  19.359  0.00  0.00    +0.000 C 
ATOM     16  C   UNL     1      -6.423  11.346  18.941  0.00  0.00    +0.000 C 
ATOM     17  C   UNL     1      -6.326  12.809  18.642  0.00  0.00    +0.000 C 
ENDROOT
BRANCH   1  21
ATOM     18  C   UNL     1       1.831   9.515  18.009  0.00  0.00    +0.000 C 
ATOM     19  C   UNL     1       1.427  10.870  18.507  0.00  0.00    +0.000 A 
ATOM     20  C   UNL     1       0.335  11.020  19.360  0.00  0.00    +0.000 A 
ATOM     21  C   UNL     1       0.007  12.282  19.871  0.00  0.00    +0.000 A 
ATOM     22  C   UNL     1       0.832  13.346  19.472  0.00  0.00    +0.000 A 
ATOM     23  C   UNL     1       1.868  13.138  18.566  0.00  0.00    +0.000 A 
ATOM     24  C   UNL     1       2.679  14.288  18.051  0.00  0.00    +0.000 C 
ATOM     25  N   UNL     1       2.179  11.913  18.093  0.00  0.00    +0.000 NA
ENDBRANCH   1  21
BRANCH   8  26
ATOM     26  C   UNL     1      -7.034  13.249  23.784  0.00  0.00    +0.000 C 
ATOM     27  O   UNL     1      -7.916  12.412  23.919  0.00  0.00    +0.000 OA
BRANCH  26  28
ATOM     28  O   UNL     1      -7.093  14.457  24.373  0.00  0.00    +0.000 OA
ATOM     29  H   UNL     1      -7.313  15.205  23.764  0.00  0.00    +0.000 HD
ENDBRANCH  26  28
ENDBRANCH   8  26
TORSDOF 3
ENDMDL
