MODEL 1
REMARK VINA RESULT:      -6.9      0.000      0.000
REMARK  Name = 
REMARK  3 active torsions:
REMARK  status: ('A' for Active; 'I' for Inactive)
REMARK    1  A    between atoms: C_2  and  C_3
REMARK    2  A    between atoms: C_3  and  N_4
REMARK    3  A    between atoms: N_9  and  C_10
REMARK                            x       y       z     vdW  Elec       q    Type
REMARK                         _______ _______ _______ _____ _____    ______ ____
ROOT
ATOM      1  O   UNL     1       4.365   2.906  17.159  0.00  0.00    +0.000 OA
ATOM      2  C   UNL     1       3.590   3.724  17.648  0.00  0.00    +0.000 C 
ATOM      3  N   UNL     1       3.948   4.962  18.154  0.00  0.00    +0.000 N 
ATOM      4  H   UNL     1       3.253   5.478  18.682  0.00  0.00    +0.000 HD
ENDROOT
BRANCH   3   5
ATOM      5  C   UNL     1       5.240   5.538  18.156  0.00  0.00    +0.000 A 
ATOM      6  C   UNL     1       6.283   5.119  18.985  0.00  0.00    +0.000 A 
ATOM      7  C   UNL     1       7.515   5.767  18.921  0.00  0.00    +0.000 A 
ATOM      8  F   UNL     1       8.513   5.359  19.716  0.00  0.00    +0.000 F 
ATOM      9  C   UNL     1       7.735   6.829  18.049  0.00  0.00    +0.000 A 
ATOM     10  C   UNL     1       6.709   7.241  17.205  0.00  0.00    +0.000 A 
ATOM     11  C   UNL     1       5.478   6.589  17.259  0.00  0.00    +0.000 A 
ATOM     12  F   UNL     1       4.492   6.993  16.442  0.00  0.00    +0.000 F 
ENDBRANCH   3   5
BRANCH   2  13
ATOM     13  C   UNL     1       2.076   3.452  17.754  0.00  0.00    +0.000 C 
BRANCH  13  14
ATOM     14  N   UNL     1       1.758   2.524  18.856  0.00  0.00    +0.000 NA
ATOM     15  C   UNL     1       0.598   2.992  19.627  0.00  0.00    +0.000 C 
ATOM     16  C   UNL     1       1.184   3.808  20.760  0.00  0.00    +0.000 C 
ATOM     17  C   UNL     1       2.422   3.015  21.126  0.00  0.00    +0.000 C 
ATOM     18  C   UNL     1       2.864   2.368  19.817  0.00  0.00    +0.000 C 
ENDBRANCH  13  14
ENDBRANCH   2  13
TORSDOF 3
ENDMDL
MODEL 2
REMARK VINA RESULT:      -6.8      1.050      1.064
REMARK  Name = 
REMARK  3 active torsions:
REMARK  status: ('A' for Active; 'I' for Inactive)
REMARK    1  A    between atoms: C_2  and  C_3
REMARK    2  A    between atoms: C_3  and  N_4
REMARK    3  A    between atoms: N_9  and  C_10
REMARK                            x       y       z     vdW  Elec       q    Type
REMARK                         _______ _______ _______ _____ _____    ______ ____
ROOT
ATOM      1  O   UNL     1       2.896   5.680  18.621  0.00  0.00    +0.000 OA
ATOM      2  C   UNL     1       3.252   4.773  17.873  0.00  0.00    +0.000 C 
ATOM      3  N   UNL     1       4.538   4.590  17.393  0.00  0.00    +0.000 N 
ATOM      4  H   UNL     1       4.676   3.910  16.653  0.00  0.00    +0.000 HD
ENDROOT
BRANCH   3   5
ATOM      5  C   UNL     1       5.681   5.361  17.709  0.00  0.00    +0.000 A 
ATOM      6  C   UNL     1       6.606   5.021  18.697  0.00  0.00    +0.000 A 
ATOM      7  C   UNL     1       7.691   5.861  18.944  0.00  0.00    +0.000 A 
ATOM      8  F   UNL     1       8.577   5.528  19.891  0.00  0.00    +0.000 F 
ATOM      9  C   UNL     1       7.875   7.039  18.227  0.00  0.00    +0.000 A 
ATOM     10  C   UNL     1       6.970   7.378  17.226  0.00  0.00    +0.000 A 
ATOM     11  C   UNL     1       5.890   6.534  16.971  0.00  0.00    +0.000 A 
ATOM     12  F   UNL     1       5.019   6.868  16.004  0.00  0.00    +0.000 F 
ENDBRANCH   3   5
BRANCH   2  13
ATOM     13  C   UNL     1       2.268   3.699  17.367  0.00  0.00    +0.000 C 
BRANCH  13  14
ATOM     14  N   UNL     1       2.202   2.539  18.277  0.00  0.00    +0.000 NA
ATOM     15  C   UNL     1       0.856   2.388  18.849  0.00  0.00    +0.000 C 
ATOM     16  C   UNL     1       0.901   3.148  20.158  0.00  0.00    +0.000 C 
ATOM     17  C   UNL     1       2.289   2.831  20.673  0.00  0.00    +0.000 C 
ATOM     18  C   UNL     1       3.131   2.644  19.415  0.00  0.00    +0.000 C 
ENDBRANCH  13  14
ENDBRANCH   2  13
TORSDOF 3
ENDMDL
MODEL 3
REMARK VINA RESULT:      -6.7      3.668      6.494
REMARK  Name = 
REMARK  3 active torsions:
REMARK  status: ('A' for Active; 'I' for Inactive)
REMARK    1  A    between atoms: C_2  and  C_3
REMARK    2  A    between atoms: C_3  and  N_4
REMARK    3  A    between atoms: N_9  and  C_10
REMARK                            x       y       z     vdW  Elec       q    Type
REMARK                         _______ _______ _______ _____ _____    ______ ____
ROOT
ATOM      1  O   UNL     1       4.601   5.187  16.627  0.00  0.00    +0.000 OA
ATOM      2  C   UNL     1       5.047   4.056  16.447  0.00  0.00    +0.000 C 
ATOM      3  N   UNL     1       4.641   2.918  17.123  0.00  0.00    +0.000 N 
ATOM      4  H   UNL     1       5.195   2.076  17.009  0.00  0.00    +0.000 HD
ENDROOT
BRANCH   3   5
ATOM      5  C   UNL     1       3.616   2.827  18.093  0.00  0.00    +0.000 A 
ATOM      6  C   UNL     1       2.306   2.433  17.813  0.00  0.00    +0.000 A 
ATOM      7  C   UNL     1       1.365   2.394  18.841  0.00  0.00    +0.000 A 
ATOM      8  F   UNL     1       0.110   2.012  18.568  0.00  0.00    +0.000 F 
ATOM      9  C   UNL     1       1.698   2.740  20.146  0.00  0.00    +0.000 A 
ATOM     10  C   UNL     1       3.005   3.115  20.440  0.00  0.00    +0.000 A 
ATOM     11  C   UNL     1       3.952   3.146  19.416  0.00  0.00    +0.000 A 
ATOM     12  F   UNL     1       5.211   3.509  19.707  0.00  0.00    +0.000 F 
ENDBRANCH   3   5
BRANCH   2  13
ATOM     13  C   UNL     1       6.149   3.771  15.407  0.00  0.00    +0.000 C 
BRANCH  13  14
ATOM     14  N   UNL     1       5.997   4.605  14.199  0.00  0.00    +0.000 NA
ATOM     15  C   UNL     1       5.131   3.953  13.208  0.00  0.00    +0.000 C 
ATOM     16  C   UNL     1       6.077   3.186  12.307  0.00  0.00    +0.000 C 
ATOM     17  C   UNL     1       7.256   4.130  12.194  0.00  0.00    +0.000 C 
ATOM     18  C   UNL     1       7.277   4.879  13.522  0.00  0.00    +0.000 C 
ENDBRANCH  13  14
ENDBRANCH   2  13
TORSDOF 3
ENDMDL
MODEL 4
REMARK VINA RESULT:      -6.7      2.557      5.698
REMARK  Name = 
REMARK  3 active torsions:
REMARK  status: ('A' for Active; 'I' for Inactive)
REMARK    1  A    between atoms: C_2  and  C_3
REMARK    2  A    between atoms: C_3  and  N_4
REMARK    3  A    between atoms: N_9  and  C_10
REMARK                            x       y       z     vdW  Elec       q    Type
REMARK                         _______ _______ _______ _____ _____    ______ ____
ROOT
ATOM      1  O   UNL     1       5.669   3.380  19.303  0.00  0.00    +0.000 OA
ATOM      2  C   UNL     1       5.330   4.558  19.226  0.00  0.00    +0.000 C 
ATOM      3  N   UNL     1       4.027   5.022  19.310  0.00  0.00    +0.000 N 
ATOM      4  H   UNL     1       3.853   5.991  19.065  0.00  0.00    +0.000 HD
ENDROOT
BRANCH   3   5
ATOM      5  C   UNL     1       2.865   4.254  19.551  0.00  0.00    +0.000 A 
ATOM      6  C   UNL     1       2.460   3.823  20.815  0.00  0.00    +0.000 A 
ATOM      7  C   UNL     1       1.305   3.052  20.943  0.00  0.00    +0.000 A 
ATOM      8  F   UNL     1       0.919   2.645  22.159  0.00  0.00    +0.000 F 
ATOM      9  C   UNL     1       0.542   2.697  19.835  0.00  0.00    +0.000 A 
ATOM     10  C   UNL     1       0.926   3.137  18.572  0.00  0.00    +0.000 A 
ATOM     11  C   UNL     1       2.075   3.917  18.443  0.00  0.00    +0.000 A 
ATOM     12  F   UNL     1       2.440   4.337  17.221  0.00  0.00    +0.000 F 
ENDBRANCH   3   5
BRANCH   2  13
ATOM     13  C   UNL     1       6.355   5.691  19.021  0.00  0.00    +0.000 C 
BRANCH  13  14
ATOM     14  N   UNL     1       6.838   5.753  17.629  0.00  0.00    +0.000 NA
ATOM     15  C   UNL     1       6.414   6.998  16.974  0.00  0.00    +0.000 C 
ATOM     16  C   UNL     1       5.109   6.652  16.286  0.00  0.00    +0.000 C 
ATOM     17  C   UNL     1       5.370   5.249  15.779  0.00  0.00    +0.000 C 
ATOM     18  C   UNL     1       6.337   4.648  16.794  0.00  0.00    +0.000 C 
ENDBRANCH  13  14
ENDBRANCH   2  13
TORSDOF 3
ENDMDL
MODEL 5
REMARK VINA RESULT:      -6.6      3.001      5.867
REMARK  Name = 
REMARK  3 active torsions:
REMARK  status: ('A' for Active; 'I' for Inactive)
REMARK    1  A    between atoms: C_2  and  C_3
REMARK    2  A    between atoms: C_3  and  N_4
REMARK    3  A    between atoms: N_9  and  C_10
REMARK                            x       y       z     vdW  Elec       q    Type
REMARK                         _______ _______ _______ _____ _____    ______ ____
ROOT
ATOM      1  O   UNL     1       3.699   6.644  18.025  0.00  0.00    +0.000 OA
ATOM      2  C   UNL     1       4.117   5.674  17.398  0.00  0.00    +0.000 C 
ATOM      3  N   UNL     1       3.845   4.350  17.697  0.00  0.00    +0.000 N 
ATOM      4  H   UNL     1       4.379   3.635  17.214  0.00  0.00    +0.000 HD
ENDROOT
BRANCH   3   5
ATOM      5  C   UNL     1       3.006   3.866  18.727  0.00  0.00    +0.000 A 
ATOM      6  C   UNL     1       3.471   3.320  19.925  0.00  0.00    +0.000 A 
ATOM      7  C   UNL     1       2.557   2.854  20.869  0.00  0.00    +0.000 A 
ATOM      8  F   UNL     1       3.009   2.334  22.018  0.00  0.00    +0.000 F 
ATOM      9  C   UNL     1       1.185   2.919  20.648  0.00  0.00    +0.000 A 
ATOM     10  C   UNL     1       0.710   3.480  19.467  0.00  0.00    +0.000 A 
ATOM     11  C   UNL     1       1.621   3.956  18.524  0.00  0.00    +0.000 A 
ATOM     12  F   UNL     1       1.156   4.494  17.386  0.00  0.00    +0.000 F 
ENDBRANCH   3   5
BRANCH   2  13
ATOM     13  C   UNL     1       5.024   5.833  16.161  0.00  0.00    +0.000 C 
BRANCH  13  14
ATOM     14  N   UNL     1       5.614   4.547  15.740  0.00  0.00    +0.000 NA
ATOM     15  C   UNL     1       7.082   4.606  15.755  0.00  0.00    +0.000 C 
ATOM     16  C   UNL     1       7.470   5.007  14.346  0.00  0.00    +0.000 C 
ATOM     17  C   UNL     1       6.469   4.245  13.503  0.00  0.00    +0.000 C 
ATOM     18  C   UNL     1       5.223   4.152  14.376  0.00  0.00    +0.000 C 
ENDBRANCH  13  14
ENDBRANCH   2  13
TORSDOF 3
ENDMDL
MODEL 6
REMARK VINA RESULT:      -6.6      2.704      5.642
REMARK  Name = 
REMARK  3 active torsions:
REMARK  status: ('A' for Active; 'I' for Inactive)
REMARK    1  A    between atoms: C_2  and  C_3
REMARK    2  A    between atoms: C_3  and  N_4
REMARK    3  A    between atoms: N_9  and  C_10
REMARK                            x       y       z     vdW  Elec       q    Type
REMARK                         _______ _______ _______ _____ _____    ______ ____
ROOT
ATOM      1  O   UNL     1       5.721   5.436  19.546  0.00  0.00    +0.000 OA
ATOM      2  C   UNL     1       5.975   4.580  18.702  0.00  0.00    +0.000 C 
ATOM      3  N   UNL     1       5.146   3.526  18.357  0.00  0.00    +0.000 N 
ATOM      4  H   UNL     1       5.531   2.792  17.772  0.00  0.00    +0.000 HD
ENDROOT
BRANCH   3   5
ATOM      5  C   UNL     1       3.848   3.266  18.857  0.00  0.00    +0.000 A 
ATOM      6  C   UNL     1       3.568   2.977  20.193  0.00  0.00    +0.000 A 
ATOM      7  C   UNL     1       2.254   2.716  20.580  0.00  0.00    +0.000 A 
ATOM      8  F   UNL     1       1.990   2.443  21.864  0.00  0.00    +0.000 F 
ATOM      9  C   UNL     1       1.208   2.736  19.662  0.00  0.00    +0.000 A 
ATOM     10  C   UNL     1       1.474   3.042  18.331  0.00  0.00    +0.000 A 
ATOM     11  C   UNL     1       2.786   3.313  17.943  0.00  0.00    +0.000 A 
ATOM     12  F   UNL     1       3.035   3.606  16.657  0.00  0.00    +0.000 F 
ENDBRANCH   3   5
BRANCH   2  13
ATOM     13  C   UNL     1       7.294   4.588  17.905  0.00  0.00    +0.000 C 
BRANCH  13  14
ATOM     14  N   UNL     1       7.274   5.580  16.813  0.00  0.00    +0.000 NA
ATOM     15  C   UNL     1       6.228   6.589  17.031  0.00  0.00    +0.000 C 
ATOM     16  C   UNL     1       5.016   6.060  16.293  0.00  0.00    +0.000 C 
ATOM     17  C   UNL     1       5.630   5.453  15.049  0.00  0.00    +0.000 C 
ATOM     18  C   UNL     1       7.010   4.981  15.494  0.00  0.00    +0.000 C 
ENDBRANCH  13  14
ENDBRANCH   2  13
TORSDOF 3
ENDMDL
MODEL 7
REMARK VINA RESULT:      -6.5      3.306      6.030
REMARK  Name = 
REMARK  3 active torsions:
REMARK  status: ('A' for Active; 'I' for Inactive)
REMARK    1  A    between atoms: C_2  and  C_3
REMARK    2  A    between atoms: C_3  and  N_4
REMARK    3  A    between atoms: N_9  and  C_10
REMARK                            x       y       z     vdW  Elec       q    Type
REMARK                         _______ _______ _______ _____ _____    ______ ____
ROOT
ATOM      1  O   UNL     1       5.192   5.504  17.806  0.00  0.00    +0.000 OA
ATOM      2  C   UNL     1       5.454   4.415  17.303  0.00  0.00    +0.000 C 
ATOM      3  N   UNL     1       4.816   3.222  17.600  0.00  0.00    +0.000 N 
ATOM      4  H   UNL     1       5.227   2.364  17.249  0.00  0.00    +0.000 HD
ENDROOT
BRANCH   3   5
ATOM      5  C   UNL     1       3.724   3.039  18.480  0.00  0.00    +0.000 A 
ATOM      6  C   UNL     1       3.849   2.897  19.863  0.00  0.00    +0.000 A 
ATOM      7  C   UNL     1       2.708   2.702  20.641  0.00  0.00    +0.000 A 
ATOM      8  F   UNL     1       2.833   2.570  21.968  0.00  0.00    +0.000 F 
ATOM      9  C   UNL     1       1.441   2.643  20.071  0.00  0.00    +0.000 A 
ATOM     10  C   UNL     1       1.303   2.803  18.696  0.00  0.00    +0.000 A 
ATOM     11  C   UNL     1       2.441   3.008  17.916  0.00  0.00    +0.000 A 
ATOM     12  F   UNL     1       2.300   3.160  16.589  0.00  0.00    +0.000 F 
ENDBRANCH   3   5
BRANCH   2  13
ATOM     13  C   UNL     1       6.563   4.250  16.244  0.00  0.00    +0.000 C 
BRANCH  13  14
ATOM     14  N   UNL     1       6.296   5.054  15.036  0.00  0.00    +0.000 NA
ATOM     15  C   UNL     1       5.173   4.501  14.267  0.00  0.00    +0.000 C 
ATOM     16  C   UNL     1       5.812   3.572  13.255  0.00  0.00    +0.000 C 
ATOM     17  C   UNL     1       7.065   4.327  12.865  0.00  0.00    +0.000 C 
ATOM     18  C   UNL     1       7.446   5.112  14.116  0.00  0.00    +0.000 C 
ENDBRANCH  13  14
ENDBRANCH   2  13
TORSDOF 3
ENDMDL
MODEL 8
REMARK VINA RESULT:      -6.5      2.161      3.052
REMARK  Name = 
REMARK  3 active torsions:
REMARK  status: ('A' for Active; 'I' for Inactive)
REMARK    1  A    between atoms: C_2  and  C_3
REMARK    2  A    between atoms: C_3  and  N_4
REMARK    3  A    between atoms: N_9  and  C_10
REMARK                            x       y       z     vdW  Elec       q    Type
REMARK                         _______ _______ _______ _____ _____    ______ ____
ROOT
ATOM      1  O   UNL     1       3.179   6.486  18.917  0.00  0.00    +0.000 OA
ATOM      2  C   UNL     1       3.304   5.405  19.488  0.00  0.00    +0.000 C 
ATOM      3  N   UNL     1       4.208   4.416  19.139  0.00  0.00    +0.000 N 
ATOM      4  H   UNL     1       4.106   3.505  19.574  0.00  0.00    +0.000 HD
ENDROOT
BRANCH   3   5
ATOM      5  C   UNL     1       5.181   4.477  18.113  0.00  0.00    +0.000 A 
ATOM      6  C   UNL     1       4.953   4.083  16.794  0.00  0.00    +0.000 A 
ATOM      7  C   UNL     1       5.987   4.166  15.862  0.00  0.00    +0.000 A 
ATOM      8  F   UNL     1       5.762   3.790  14.597  0.00  0.00    +0.000 F 
ATOM      9  C   UNL     1       7.249   4.632  16.217  0.00  0.00    +0.000 A 
ATOM     10  C   UNL     1       7.482   5.046  17.524  0.00  0.00    +0.000 A 
ATOM     11  C   UNL     1       6.446   4.974  18.456  0.00  0.00    +0.000 A 
ATOM     12  F   UNL     1       6.678   5.374  19.716  0.00  0.00    +0.000 F 
ENDBRANCH   3   5
BRANCH   2  13
ATOM     13  C   UNL     1       2.437   5.020  20.703  0.00  0.00    +0.000 C 
BRANCH  13  14
ATOM     14  N   UNL     1       1.231   4.268  20.304  0.00  0.00    +0.000 NA
ATOM     15  C   UNL     1       1.179   2.958  20.966  0.00  0.00    +0.000 C 
ATOM     16  C   UNL     1       1.841   2.003  19.995  0.00  0.00    +0.000 C 
ATOM     17  C   UNL     1       1.351   2.509  18.654  0.00  0.00    +0.000 C 
ATOM     18  C   UNL     1       1.165   4.010  18.856  0.00  0.00    +0.000 C 
ENDBRANCH  13  14
ENDBRANCH   2  13
TORSDOF 3
ENDMDL
MODEL 9
REMARK VINA RESULT:      -6.5      2.708      3.512
REMARK  Name = 
REMARK  3 active torsions:
REMARK  status: ('A' for Active; 'I' for Inactive)
REMARK    1  A    between atoms: C_2  and  C_3
REMARK    2  A    between atoms: C_3  and  N_4
REMARK    3  A    between atoms: N_9  and  C_10
REMARK                            x       y       z     vdW  Elec       q    Type
REMARK                         _______ _______ _______ _____ _____    ______ ____
ROOT
ATOM      1  O   UNL     1       3.703   6.278  17.525  0.00  0.00    +0.000 OA
ATOM      2  C   UNL     1       4.032   5.213  18.040  0.00  0.00    +0.000 C 
ATOM      3  N   UNL     1       4.890   4.282  17.477  0.00  0.00    +0.000 N 
ATOM      4  H   UNL     1       4.955   3.371  17.917  0.00  0.00    +0.000 HD
ENDROOT
BRANCH   3   5
ATOM      5  C   UNL     1       5.582   4.399  16.249  0.00  0.00    +0.000 A 
ATOM      6  C   UNL     1       5.092   3.937  15.027  0.00  0.00    +0.000 A 
ATOM      7  C   UNL     1       5.865   4.085  13.876  0.00  0.00    +0.000 A 
ATOM      8  F   UNL     1       5.388   3.642  12.705  0.00  0.00    +0.000 F 
ATOM      9  C   UNL     1       7.120   4.683  13.914  0.00  0.00    +0.000 A 
ATOM     10  C   UNL     1       7.609   5.166  15.123  0.00  0.00    +0.000 A 
ATOM     11  C   UNL     1       6.835   5.028  16.275  0.00  0.00    +0.000 A 
ATOM     12  F   UNL     1       7.315   5.495  17.439  0.00  0.00    +0.000 F 
ENDBRANCH   3   5
BRANCH   2  13
ATOM     13  C   UNL     1       3.508   4.781  19.424  0.00  0.00    +0.000 C 
BRANCH  13  14
ATOM     14  N   UNL     1       2.034   4.790  19.484  0.00  0.00    +0.000 NA
ATOM     15  C   UNL     1       1.555   4.455  20.832  0.00  0.00    +0.000 C 
ATOM     16  C   UNL     1       1.337   2.956  20.807  0.00  0.00    +0.000 C 
ATOM     17  C   UNL     1       0.774   2.731  19.419  0.00  0.00    +0.000 C 
ATOM     18  C   UNL     1       1.413   3.821  18.565  0.00  0.00    +0.000 C 
ENDBRANCH  13  14
ENDBRANCH   2  13
TORSDOF 3
ENDMDL
