MODEL 1
REMARK VINA RESULT:      -6.8      0.000      0.000
REMARK  Name = 
REMARK  5 active torsions:
REMARK  status: ('A' for Active; 'I' for Inactive)
REMARK    1  A    between atoms: C_1  and  C_2
REMARK    2  A    between atoms: C_4  and  C_5
REMARK    3  A    between atoms: C_4  and  C_6
REMARK    4  A    between atoms: N_7  and  C_8
REMARK    5  A    between atoms: N_10  and  C_11
REMARK                            x       y       z     vdW  Elec       q    Type
REMARK                         _______ _______ _______ _____ _____    ______ ____
ROOT
ATOM      1  C   UNL     1       2.515   7.194  18.943  0.00  0.00    +0.000 C 
ATOM      2  C   UNL     1       3.400   6.295  18.103  0.00  0.00    +0.000 C 
ATOM      3  C   UNL     1       4.339   6.897  17.360  0.00  0.00    +0.000 C 
ATOM      4  C   UNL     1       5.351   6.151  16.521  0.00  0.00    +0.000 C 
ATOM      5  C   UNL     1       5.269   6.725  15.089  0.00  0.00    +0.000 C 
ATOM      6  C   UNL     1       6.733   6.440  17.135  0.00  0.00    +0.000 C 
ATOM      7  N   UNL     1       5.120   4.692  16.514  0.00  0.00    +0.000 N 
ATOM      8  C   UNL     1       5.950   3.816  15.689  0.00  0.00    +0.000 C 
ATOM      9  C   UNL     1       4.209   4.123  17.248  0.00  0.00    +0.000 C 
ATOM     10  N   UNL     1       3.342   4.852  18.127  0.00  0.00    +0.000 N 
ENDROOT
BRANCH  10  11
ATOM     11  C   UNL     1       2.606   4.105  19.129  0.00  0.00    +0.000 A 
ATOM     12  C   UNL     1       3.213   3.841  20.384  0.00  0.00    +0.000 A 
ATOM     13  C   UNL     1       2.519   3.187  21.403  0.00  0.00    +0.000 A 
ATOM     14  C   UNL     1       1.206   2.769  21.199  0.00  0.00    +0.000 A 
ATOM     15  C   UNL     1       0.594   2.990  19.969  0.00  0.00    +0.000 A 
ATOM     16  C   UNL     1       1.282   3.645  18.944  0.00  0.00    +0.000 A 
ENDBRANCH  10  11
TORSDOF 1
ENDMDL
MODEL 2
REMARK VINA RESULT:      -6.7      0.255      1.202
REMARK  Name = 
REMARK  5 active torsions:
REMARK  status: ('A' for Active; 'I' for Inactive)
REMARK    1  A    between atoms: C_1  and  C_2
REMARK    2  A    between atoms: C_4  and  C_5
REMARK    3  A    between atoms: C_4  and  C_6
REMARK    4  A    between atoms: N_7  and  C_8
REMARK    5  A    between atoms: N_10  and  C_11
REMARK                            x       y       z     vdW  Elec       q    Type
REMARK                         _______ _______ _______ _____ _____    ______ ____
ROOT
ATOM      1  C   UNL     1       2.457   7.391  18.804  0.00  0.00    +0.000 C 
ATOM      2  C   UNL     1       3.358   6.444  18.036  0.00  0.00    +0.000 C 
ATOM      3  C   UNL     1       4.310   7.002  17.275  0.00  0.00    +0.000 C 
ATOM      4  C   UNL     1       5.337   6.208  16.502  0.00  0.00    +0.000 C 
ATOM      5  C   UNL     1       5.282   6.695  15.036  0.00  0.00    +0.000 C 
ATOM      6  C   UNL     1       6.708   6.534  17.123  0.00  0.00    +0.000 C 
ATOM      7  N   UNL     1       5.107   4.751  16.578  0.00  0.00    +0.000 N 
ATOM      8  C   UNL     1       5.951   3.828  15.823  0.00  0.00    +0.000 C 
ATOM      9  C   UNL     1       4.182   4.226  17.328  0.00  0.00    +0.000 C 
ATOM     10  N   UNL     1       3.299   5.005  18.145  0.00  0.00    +0.000 N 
ENDROOT
BRANCH  10  11
ATOM     11  C   UNL     1       2.545   4.319  19.177  0.00  0.00    +0.000 A 
ATOM     12  C   UNL     1       1.402   3.562  18.814  0.00  0.00    +0.000 A 
ATOM     13  C   UNL     1       0.685   2.829  19.762  0.00  0.00    +0.000 A 
ATOM     14  C   UNL     1       1.080   2.838  21.097  0.00  0.00    +0.000 A 
ATOM     15  C   UNL     1       2.181   3.594  21.487  0.00  0.00    +0.000 A 
ATOM     16  C   UNL     1       2.904   4.329  20.544  0.00  0.00    +0.000 A 
ENDBRANCH  10  11
TORSDOF 1
ENDMDL
MODEL 3
REMARK VINA RESULT:      -6.7      1.533      2.504
REMARK  Name = 
REMARK  5 active torsions:
REMARK  status: ('A' for Active; 'I' for Inactive)
REMARK    1  A    between atoms: C_1  and  C_2
REMARK    2  A    between atoms: C_4  and  C_5
REMARK    3  A    between atoms: C_4  and  C_6
REMARK    4  A    between atoms: N_7  and  C_8
REMARK    5  A    between atoms: N_10  and  C_11
REMARK                            x       y       z     vdW  Elec       q    Type
REMARK                         _______ _______ _______ _____ _____    ______ ____
ROOT
ATOM      1  C   UNL     1       2.832   2.837  16.748  0.00  0.00    +0.000 C 
ATOM      2  C   UNL     1       3.996   3.677  17.235  0.00  0.00    +0.000 C 
ATOM      3  C   UNL     1       4.756   4.256  16.296  0.00  0.00    +0.000 C 
ATOM      4  C   UNL     1       5.910   5.182  16.603  0.00  0.00    +0.000 C 
ATOM      5  C   UNL     1       7.144   4.641  15.849  0.00  0.00    +0.000 C 
ATOM      6  C   UNL     1       5.519   6.570  16.063  0.00  0.00    +0.000 C 
ATOM      7  N   UNL     1       6.186   5.287  18.050  0.00  0.00    +0.000 N 
ATOM      8  C   UNL     1       7.319   6.073  18.533  0.00  0.00    +0.000 C 
ATOM      9  C   UNL     1       5.432   4.724  18.950  0.00  0.00    +0.000 C 
ATOM     10  N   UNL     1       4.271   3.949  18.627  0.00  0.00    +0.000 N 
ENDROOT
BRANCH  10  11
ATOM     11  C   UNL     1       3.332   3.655  19.692  0.00  0.00    +0.000 A 
ATOM     12  C   UNL     1       2.130   4.402  19.786  0.00  0.00    +0.000 A 
ATOM     13  C   UNL     1       1.166   4.109  20.752  0.00  0.00    +0.000 A 
ATOM     14  C   UNL     1       1.375   3.072  21.656  0.00  0.00    +0.000 A 
ATOM     15  C   UNL     1       2.556   2.338  21.606  0.00  0.00    +0.000 A 
ATOM     16  C   UNL     1       3.526   2.625  20.641  0.00  0.00    +0.000 A 
ENDBRANCH  10  11
TORSDOF 1
ENDMDL
MODEL 4
REMARK VINA RESULT:      -6.6      1.583      5.584
REMARK  Name = 
REMARK  5 active torsions:
REMARK  status: ('A' for Active; 'I' for Inactive)
REMARK    1  A    between atoms: C_1  and  C_2
REMARK    2  A    between atoms: C_4  and  C_5
REMARK    3  A    between atoms: C_4  and  C_6
REMARK    4  A    between atoms: N_7  and  C_8
REMARK    5  A    between atoms: N_10  and  C_11
REMARK                            x       y       z     vdW  Elec       q    Type
REMARK                         _______ _______ _______ _____ _____    ______ ____
ROOT
ATOM      1  C   UNL     1       5.083   3.870  15.972  0.00  0.00    +0.000 C 
ATOM      2  C   UNL     1       4.276   4.121  17.230  0.00  0.00    +0.000 C 
ATOM      3  C   UNL     1       3.261   3.281  17.474  0.00  0.00    +0.000 C 
ATOM      4  C   UNL     1       2.401   3.342  18.715  0.00  0.00    +0.000 C 
ATOM      5  C   UNL     1       0.929   3.399  18.249  0.00  0.00    +0.000 C 
ATOM      6  C   UNL     1       2.664   2.042  19.498  0.00  0.00    +0.000 C 
ATOM      7  N   UNL     1       2.723   4.499  19.575  0.00  0.00    +0.000 N 
ATOM      8  C   UNL     1       1.938   4.768  20.778  0.00  0.00    +0.000 C 
ATOM      9  C   UNL     1       3.718   5.300  19.328  0.00  0.00    +0.000 C 
ATOM     10  N   UNL     1       4.591   5.142  18.202  0.00  0.00    +0.000 N 
ENDROOT
BRANCH  10  11
ATOM     11  C   UNL     1       5.844   5.873  18.206  0.00  0.00    +0.000 A 
ATOM     12  C   UNL     1       5.995   6.997  17.355  0.00  0.00    +0.000 A 
ATOM     13  C   UNL     1       7.156   7.772  17.374  0.00  0.00    +0.000 A 
ATOM     14  C   UNL     1       8.202   7.444  18.233  0.00  0.00    +0.000 A 
ATOM     15  C   UNL     1       8.093   6.331  19.061  0.00  0.00    +0.000 A 
ATOM     16  C   UNL     1       6.933   5.551  19.048  0.00  0.00    +0.000 A 
ENDBRANCH  10  11
TORSDOF 1
ENDMDL
MODEL 5
REMARK VINA RESULT:      -6.6      1.558      5.482
REMARK  Name = 
REMARK  5 active torsions:
REMARK  status: ('A' for Active; 'I' for Inactive)
REMARK    1  A    between atoms: C_1  and  C_2
REMARK    2  A    between atoms: C_4  and  C_5
REMARK    3  A    between atoms: C_4  and  C_6
REMARK    4  A    between atoms: N_7  and  C_8
REMARK    5  A    between atoms: N_10  and  C_11
REMARK                            x       y       z     vdW  Elec       q    Type
REMARK                         _______ _______ _______ _____ _____    ______ ____
ROOT
ATOM      1  C   UNL     1       5.004   3.916  15.981  0.00  0.00    +0.000 C 
ATOM      2  C   UNL     1       4.220   4.090  17.267  0.00  0.00    +0.000 C 
ATOM      3  C   UNL     1       3.253   3.194  17.509  0.00  0.00    +0.000 C 
ATOM      4  C   UNL     1       2.425   3.176  18.773  0.00  0.00    +0.000 C 
ATOM      5  C   UNL     1       0.940   3.175  18.346  0.00  0.00    +0.000 C 
ATOM      6  C   UNL     1       2.771   1.868  19.508  0.00  0.00    +0.000 C 
ATOM      7  N   UNL     1       2.714   4.320  19.661  0.00  0.00    +0.000 N 
ATOM      8  C   UNL     1       1.949   4.514  20.891  0.00  0.00    +0.000 C 
ATOM      9  C   UNL     1       3.662   5.176  19.414  0.00  0.00    +0.000 C 
ATOM     10  N   UNL     1       4.512   5.095  18.262  0.00  0.00    +0.000 N 
ENDROOT
BRANCH  10  11
ATOM     11  C   UNL     1       5.728   5.885  18.257  0.00  0.00    +0.000 A 
ATOM     12  C   UNL     1       6.799   5.520  19.112  0.00  0.00    +0.000 A 
ATOM     13  C   UNL     1       8.012   6.209  19.092  0.00  0.00    +0.000 A 
ATOM     14  C   UNL     1       8.191   7.286  18.228  0.00  0.00    +0.000 A 
ATOM     15  C   UNL     1       7.149   7.685  17.397  0.00  0.00    +0.000 A 
ATOM     16  C   UNL     1       5.931   7.000  17.410  0.00  0.00    +0.000 A 
ENDBRANCH  10  11
TORSDOF 1
ENDMDL
MODEL 6
REMARK VINA RESULT:      -6.6      1.652      5.223
REMARK  Name = 
REMARK  5 active torsions:
REMARK  status: ('A' for Active; 'I' for Inactive)
REMARK    1  A    between atoms: C_1  and  C_2
REMARK    2  A    between atoms: C_4  and  C_5
REMARK    3  A    between atoms: C_4  and  C_6
REMARK    4  A    between atoms: N_7  and  C_8
REMARK    5  A    between atoms: N_10  and  C_11
REMARK                            x       y       z     vdW  Elec       q    Type
REMARK                         _______ _______ _______ _____ _____    ______ ____
ROOT
ATOM      1  C   UNL     1       2.723   6.919  19.694  0.00  0.00    +0.000 C 
ATOM      2  C   UNL     1       2.972   5.429  19.567  0.00  0.00    +0.000 C 
ATOM      3  C   UNL     1       1.923   4.622  19.778  0.00  0.00    +0.000 C 
ATOM      4  C   UNL     1       1.975   3.120  19.623  0.00  0.00    +0.000 C 
ATOM      5  C   UNL     1       1.441   2.506  20.936  0.00  0.00    +0.000 C 
ATOM      6  C   UNL     1       1.044   2.765  18.449  0.00  0.00    +0.000 C 
ATOM      7  N   UNL     1       3.335   2.624  19.328  0.00  0.00    +0.000 N 
ATOM      8  C   UNL     1       3.594   1.190  19.228  0.00  0.00    +0.000 C 
ATOM      9  C   UNL     1       4.341   3.422  19.118  0.00  0.00    +0.000 C 
ATOM     10  N   UNL     1       4.230   4.851  19.154  0.00  0.00    +0.000 N 
ENDROOT
BRANCH  10  11
ATOM     11  C   UNL     1       5.312   5.632  18.586  0.00  0.00    +0.000 A 
ATOM     12  C   UNL     1       6.598   5.574  19.181  0.00  0.00    +0.000 A 
ATOM     13  C   UNL     1       7.685   6.254  18.629  0.00  0.00    +0.000 A 
ATOM     14  C   UNL     1       7.521   7.016  17.476  0.00  0.00    +0.000 A 
ATOM     15  C   UNL     1       6.264   7.113  16.885  0.00  0.00    +0.000 A 
ATOM     16  C   UNL     1       5.172   6.435  17.431  0.00  0.00    +0.000 A 
ENDBRANCH  10  11
TORSDOF 1
ENDMDL
MODEL 7
REMARK VINA RESULT:      -6.5      1.547      2.304
REMARK  Name = 
REMARK  5 active torsions:
REMARK  status: ('A' for Active; 'I' for Inactive)
REMARK    1  A    between atoms: C_1  and  C_2
REMARK    2  A    between atoms: C_4  and  C_5
REMARK    3  A    between atoms: C_4  and  C_6
REMARK    4  A    between atoms: N_7  and  C_8
REMARK    5  A    between atoms: N_10  and  C_11
REMARK                            x       y       z     vdW  Elec       q    Type
REMARK                         _______ _______ _______ _____ _____    ______ ____
ROOT
ATOM      1  C   UNL     1       2.845   3.084  16.615  0.00  0.00    +0.000 C 
ATOM      2  C   UNL     1       4.026   3.804  17.234  0.00  0.00    +0.000 C 
ATOM      3  C   UNL     1       4.874   4.409  16.391  0.00  0.00    +0.000 C 
ATOM      4  C   UNL     1       6.060   5.231  16.839  0.00  0.00    +0.000 C 
ATOM      5  C   UNL     1       7.303   4.676  16.109  0.00  0.00    +0.000 C 
ATOM      6  C   UNL     1       5.785   6.681  16.399  0.00  0.00    +0.000 C 
ATOM      7  N   UNL     1       6.255   5.199  18.303  0.00  0.00    +0.000 N 
ATOM      8  C   UNL     1       7.403   5.868  18.911  0.00  0.00    +0.000 C 
ATOM      9  C   UNL     1       5.417   4.613  19.108  0.00  0.00    +0.000 C 
ATOM     10  N   UNL     1       4.233   3.943  18.657  0.00  0.00    +0.000 N 
ENDROOT
BRANCH  10  11
ATOM     11  C   UNL     1       3.217   3.623  19.641  0.00  0.00    +0.000 A 
ATOM     12  C   UNL     1       3.473   2.610  20.600  0.00  0.00    +0.000 A 
ATOM     13  C   UNL     1       2.553   2.316  21.608  0.00  0.00    +0.000 A 
ATOM     14  C   UNL     1       1.350   3.012  21.683  0.00  0.00    +0.000 A 
ATOM     15  C   UNL     1       1.059   3.993  20.739  0.00  0.00    +0.000 A 
ATOM     16  C   UNL     1       1.976   4.294  19.727  0.00  0.00    +0.000 A 
ENDBRANCH  10  11
TORSDOF 1
ENDMDL
MODEL 8
REMARK VINA RESULT:      -6.4      1.640      5.349
REMARK  Name = 
REMARK  5 active torsions:
REMARK  status: ('A' for Active; 'I' for Inactive)
REMARK    1  A    between atoms: C_1  and  C_2
REMARK    2  A    between atoms: C_4  and  C_5
REMARK    3  A    between atoms: C_4  and  C_6
REMARK    4  A    between atoms: N_7  and  C_8
REMARK    5  A    between atoms: N_10  and  C_11
REMARK                            x       y       z     vdW  Elec       q    Type
REMARK                         _______ _______ _______ _____ _____    ______ ____
ROOT
ATOM      1  C   UNL     1       2.863   6.890  19.668  0.00  0.00    +0.000 C 
ATOM      2  C   UNL     1       3.084   5.396  19.541  0.00  0.00    +0.000 C 
ATOM      3  C   UNL     1       2.017   4.610  19.736  0.00  0.00    +0.000 C 
ATOM      4  C   UNL     1       2.041   3.107  19.578  0.00  0.00    +0.000 C 
ATOM      5  C   UNL     1       1.477   2.501  20.882  0.00  0.00    +0.000 C 
ATOM      6  C   UNL     1       1.121   2.772  18.390  0.00  0.00    +0.000 C 
ATOM      7  N   UNL     1       3.395   2.586  19.302  0.00  0.00    +0.000 N 
ATOM      8  C   UNL     1       3.628   1.147  19.202  0.00  0.00    +0.000 C 
ATOM      9  C   UNL     1       4.420   3.364  19.108  0.00  0.00    +0.000 C 
ATOM     10  N   UNL     1       4.336   4.795  19.145  0.00  0.00    +0.000 N 
ENDROOT
BRANCH  10  11
ATOM     11  C   UNL     1       5.441   5.555  18.594  0.00  0.00    +0.000 A 
ATOM     12  C   UNL     1       5.231   6.348  17.437  0.00  0.00    +0.000 A 
ATOM     13  C   UNL     1       6.246   7.149  16.912  0.00  0.00    +0.000 A 
ATOM     14  C   UNL     1       7.499   7.177  17.516  0.00  0.00    +0.000 A 
ATOM     15  C   UNL     1       7.743   6.389  18.637  0.00  0.00    +0.000 A 
ATOM     16  C   UNL     1       6.733   5.585  19.170  0.00  0.00    +0.000 A 
ENDBRANCH  10  11
TORSDOF 1
ENDMDL
MODEL 9
REMARK VINA RESULT:      -6.2      1.608      5.751
REMARK  Name = 
REMARK  5 active torsions:
REMARK  status: ('A' for Active; 'I' for Inactive)
REMARK    1  A    between atoms: C_1  and  C_2
REMARK    2  A    between atoms: C_4  and  C_5
REMARK    3  A    between atoms: C_4  and  C_6
REMARK    4  A    between atoms: N_7  and  C_8
REMARK    5  A    between atoms: N_10  and  C_11
REMARK                            x       y       z     vdW  Elec       q    Type
REMARK                         _______ _______ _______ _____ _____    ______ ____
ROOT
ATOM      1  C   UNL     1       3.896   1.348  17.874  0.00  0.00    +0.000 C 
ATOM      2  C   UNL     1       3.377   2.612  18.530  0.00  0.00    +0.000 C 
ATOM      3  C   UNL     1       2.478   2.456  19.512  0.00  0.00    +0.000 C 
ATOM      4  C   UNL     1       1.911   3.601  20.320  0.00  0.00    +0.000 C 
ATOM      5  C   UNL     1       0.372   3.490  20.251  0.00  0.00    +0.000 C 
ATOM      6  C   UNL     1       2.398   3.403  21.767  0.00  0.00    +0.000 C 
ATOM      7  N   UNL     1       2.363   4.920  19.834  0.00  0.00    +0.000 N 
ATOM      8  C   UNL     1       1.852   6.147  20.440  0.00  0.00    +0.000 C 
ATOM      9  C   UNL     1       3.243   5.053  18.884  0.00  0.00    +0.000 C 
ATOM     10  N   UNL     1       3.853   3.940  18.218  0.00  0.00    +0.000 N 
ENDROOT
BRANCH  10  11
ATOM     11  C   UNL     1       5.042   4.189  17.426  0.00  0.00    +0.000 A 
ATOM     12  C   UNL     1       4.940   4.228  16.012  0.00  0.00    +0.000 A 
ATOM     13  C   UNL     1       6.042   4.532  15.212  0.00  0.00    +0.000 A 
ATOM     14  C   UNL     1       7.278   4.797  15.796  0.00  0.00    +0.000 A 
ATOM     15  C   UNL     1       7.415   4.741  17.180  0.00  0.00    +0.000 A 
ATOM     16  C   UNL     1       6.316   4.437  17.987  0.00  0.00    +0.000 A 
ENDBRANCH  10  11
TORSDOF 1
ENDMDL
