MODEL 1
REMARK VINA RESULT:      -7.9      0.000      0.000
REMARK  Name = 
REMARK  9 active torsions:
REMARK  status: ('A' for Active; 'I' for Inactive)
REMARK    1  A    between atoms: C_2  and  C_3
REMARK    2  A    between atoms: C_3  and  C_4
REMARK    3  A    between atoms: C_4  and  C_5
REMARK    4  A    between atoms: C_5  and  N_6
REMARK    5  A    between atoms: C_7  and  C_8
REMARK    6  A    between atoms: C_8  and  N_9
REMARK    7  A    between atoms: N_13  and  O_14
REMARK    8  A    between atoms: O_14  and  C_15
REMARK    9  A    between atoms: C_15  and  C_16
REMARK                            x       y       z     vdW  Elec       q    Type
REMARK                         _______ _______ _______ _____ _____    ______ ____
ROOT
ATOM      1  N   UNL     1       4.365   5.242  19.250  0.00  0.00    +0.000 N 
ATOM      2  C   UNL     1       3.742   6.342  18.699  0.00  0.00    +0.000 C 
ATOM      3  O   UNL     1       3.987   6.972  17.682  0.00  0.00    +0.000 OA
ATOM      4  C   UNL     1       2.513   6.526  19.557  0.00  0.00    +0.000 C 
ATOM      5  N   UNL     1       2.092   7.691  19.939  0.00  0.00    +0.000 NA
ATOM      6  C   UNL     1       2.174   5.198  20.011  0.00  0.00    +0.000 A 
ATOM      7  C   UNL     1       0.964   4.677  20.436  0.00  0.00    +0.000 A 
ATOM      8  C   UNL     1       0.955   3.320  20.708  0.00  0.00    +0.000 A 
ATOM      9  C   UNL     1       2.145   2.605  20.557  0.00  0.00    +0.000 A 
ATOM     10  N   UNL     1       3.357   3.133  20.143  0.00  0.00    +0.000 NA
ATOM     11  C   UNL     1       3.343   4.441  19.856  0.00  0.00    +0.000 A 
ENDROOT
BRANCH   1  12
ATOM     12  C   UNL     1       5.685   4.828  18.842  0.00  0.00    +0.000 C 
BRANCH  12  14
ATOM     13  N   UNL     1       6.829   5.288  16.552  0.00  0.00    +0.000 N 
ATOM     14  C   UNL     1       5.817   4.709  17.296  0.00  0.00    +0.000 A 
ATOM     15  N   UNL     1       5.087   3.958  16.471  0.00  0.00    +0.000 NA
ATOM     16  C   UNL     1       5.646   4.052  15.201  0.00  0.00    +0.000 A 
ATOM     17  C   UNL     1       5.319   3.448  13.966  0.00  0.00    +0.000 A 
ATOM     18  C   UNL     1       6.073   3.768  12.802  0.00  0.00    +0.000 A 
ATOM     19  C   UNL     1       7.142   4.645  12.865  0.00  0.00    +0.000 A 
ATOM     20  C   UNL     1       7.509   5.216  14.086  0.00  0.00    +0.000 A 
ATOM     21  C   UNL     1       6.745   4.895  15.227  0.00  0.00    +0.000 A 
BRANCH  13  22
ATOM     22  C   UNL     1       7.877   6.165  16.999  0.00  0.00    +0.000 C 
BRANCH  22  23
ATOM     23  C   UNL     1       7.318   7.534  17.353  0.00  0.00    +0.000 C 
BRANCH  23  24
ATOM     24  C   UNL     1       8.200   8.099  18.422  0.00  0.00    +0.000 C 
BRANCH  24  26
ATOM     25  N   UNL     1       8.742  10.795  18.010  0.00  0.00    +0.000 NA
ATOM     26  C   UNL     1       8.496   9.572  18.197  0.00  0.00    +0.000 C 
ENDBRANCH  24  26
ENDBRANCH  23  24
ENDBRANCH  22  23
ENDBRANCH  13  22
ENDBRANCH  12  14
ENDBRANCH   1  12
BRANCH   5  27
ATOM     27  O   UNL     1       1.205   7.559  21.015  0.00  0.00    +0.000 OA
BRANCH  27  28
ATOM     28  C   UNL     1       0.376   8.721  21.057  0.00  0.00    +0.000 C 
BRANCH  28  29
ATOM     29  C   UNL     1       0.439   9.384  22.420  0.00  0.00    +0.000 C 
ATOM     30  F   UNL     1       0.220  10.718  22.363  0.00  0.00    +0.000 F 
ATOM     31  F   UNL     1      -0.491   8.865  23.258  0.00  0.00    +0.000 F 
ATOM     32  F   UNL     1       1.648   9.197  22.999  0.00  0.00    +0.000 F 
ENDBRANCH  28  29
ENDBRANCH  27  28
ENDBRANCH   5  27
TORSDOF 9
ENDMDL
MODEL 2
REMARK VINA RESULT:      -7.8      3.205      7.596
REMARK  Name = 
REMARK  9 active torsions:
REMARK  status: ('A' for Active; 'I' for Inactive)
REMARK    1  A    between atoms: C_2  and  C_3
REMARK    2  A    between atoms: C_3  and  C_4
REMARK    3  A    between atoms: C_4  and  C_5
REMARK    4  A    between atoms: C_5  and  N_6
REMARK    5  A    between atoms: C_7  and  C_8
REMARK    6  A    between atoms: C_8  and  N_9
REMARK    7  A    between atoms: N_13  and  O_14
REMARK    8  A    between atoms: O_14  and  C_15
REMARK    9  A    between atoms: C_15  and  C_16
REMARK                            x       y       z     vdW  Elec       q    Type
REMARK                         _______ _______ _______ _____ _____    ______ ____
ROOT
ATOM      1  N   UNL     1       4.273   4.984  17.688  0.00  0.00    +0.000 N 
ATOM      2  C   UNL     1       5.010   4.501  18.749  0.00  0.00    +0.000 C 
ATOM      3  O   UNL     1       4.678   3.817  19.705  0.00  0.00    +0.000 OA
ATOM      4  C   UNL     1       6.432   4.856  18.392  0.00  0.00    +0.000 C 
ATOM      5  N   UNL     1       7.284   5.303  19.259  0.00  0.00    +0.000 NA
ATOM      6  C   UNL     1       6.468   4.842  16.947  0.00  0.00    +0.000 A 
ATOM      7  C   UNL     1       7.529   4.657  16.078  0.00  0.00    +0.000 A 
ATOM      8  C   UNL     1       7.202   4.595  14.735  0.00  0.00    +0.000 A 
ATOM      9  C   UNL     1       5.861   4.744  14.369  0.00  0.00    +0.000 A 
ATOM     10  N   UNL     1       4.804   4.941  15.243  0.00  0.00    +0.000 NA
ATOM     11  C   UNL     1       5.132   4.969  16.541  0.00  0.00    +0.000 A 
ENDROOT
BRANCH   1  12
ATOM     12  C   UNL     1       2.832   5.017  17.711  0.00  0.00    +0.000 C 
BRANCH  12  14
ATOM     13  N   UNL     1       1.912   6.465  19.664  0.00  0.00    +0.000 N 
ATOM     14  C   UNL     1       2.279   6.329  18.338  0.00  0.00    +0.000 A 
ATOM     15  N   UNL     1       2.190   7.531  17.767  0.00  0.00    +0.000 NA
ATOM     16  C   UNL     1       1.774   8.434  18.740  0.00  0.00    +0.000 A 
ATOM     17  C   UNL     1       1.552   9.830  18.714  0.00  0.00    +0.000 A 
ATOM     18  C   UNL     1       1.089  10.492  19.884  0.00  0.00    +0.000 A 
ATOM     19  C   UNL     1       0.877   9.795  21.060  0.00  0.00    +0.000 A 
ATOM     20  C   UNL     1       1.136   8.423  21.118  0.00  0.00    +0.000 A 
ATOM     21  C   UNL     1       1.584   7.781  19.945  0.00  0.00    +0.000 A 
BRANCH  13  22
ATOM     22  C   UNL     1       1.865   5.456  20.687  0.00  0.00    +0.000 C 
BRANCH  22  23
ATOM     23  C   UNL     1       0.614   4.604  20.545  0.00  0.00    +0.000 C 
BRANCH  23  24
ATOM     24  C   UNL     1       1.068   3.220  20.206  0.00  0.00    +0.000 C 
BRANCH  24  26
ATOM     25  N   UNL     1       2.802   2.190  22.121  0.00  0.00    +0.000 NA
ATOM     26  C   UNL     1       2.015   2.658  21.253  0.00  0.00    +0.000 C 
ENDBRANCH  24  26
ENDBRANCH  23  24
ENDBRANCH  22  23
ENDBRANCH  13  22
ENDBRANCH  12  14
ENDBRANCH   1  12
BRANCH   5  27
ATOM     27  O   UNL     1       8.366   5.912  18.612  0.00  0.00    +0.000 OA
BRANCH  27  28
ATOM     28  C   UNL     1       8.344   7.307  18.914  0.00  0.00    +0.000 C 
BRANCH  28  29
ATOM     29  C   UNL     1       7.809   8.109  17.743  0.00  0.00    +0.000 C 
ATOM     30  F   UNL     1       8.102   9.427  17.834  0.00  0.00    +0.000 F 
ATOM     31  F   UNL     1       8.330   7.668  16.572  0.00  0.00    +0.000 F 
ATOM     32  F   UNL     1       6.463   7.999  17.649  0.00  0.00    +0.000 F 
ENDBRANCH  28  29
ENDBRANCH  27  28
ENDBRANCH   5  27
TORSDOF 9
ENDMDL
MODEL 3
REMARK VINA RESULT:      -7.8      1.296      1.425
REMARK  Name = 
REMARK  9 active torsions:
REMARK  status: ('A' for Active; 'I' for Inactive)
REMARK    1  A    between atoms: C_2  and  C_3
REMARK    2  A    between atoms: C_3  and  C_4
REMARK    3  A    between atoms: C_4  and  C_5
REMARK    4  A    between atoms: C_5  and  N_6
REMARK    5  A    between atoms: C_7  and  C_8
REMARK    6  A    between atoms: C_8  and  N_9
REMARK    7  A    between atoms: N_13  and  O_14
REMARK    8  A    between atoms: O_14  and  C_15
REMARK    9  A    between atoms: C_15  and  C_16
REMARK                            x       y       z     vdW  Elec       q    Type
REMARK                         _______ _______ _______ _____ _____    ______ ____
ROOT
ATOM      1  N   UNL     1       4.235   4.792  19.033  0.00  0.00    +0.000 N 
ATOM      2  C   UNL     1       3.743   5.983  18.543  0.00  0.00    +0.000 C 
ATOM      3  O   UNL     1       4.056   6.631  17.556  0.00  0.00    +0.000 OA
ATOM      4  C   UNL     1       2.547   6.267  19.420  0.00  0.00    +0.000 C 
ATOM      5  N   UNL     1       2.267   7.451  19.863  0.00  0.00    +0.000 NA
ATOM      6  C   UNL     1       2.056   4.966  19.811  0.00  0.00    +0.000 A 
ATOM      7  C   UNL     1       0.795   4.569  20.221  0.00  0.00    +0.000 A 
ATOM      8  C   UNL     1       0.629   3.210  20.425  0.00  0.00    +0.000 A 
ATOM      9  C   UNL     1       1.727   2.369  20.228  0.00  0.00    +0.000 A 
ATOM     10  N   UNL     1       2.991   2.773  19.830  0.00  0.00    +0.000 NA
ATOM     11  C   UNL     1       3.129   4.086  19.608  0.00  0.00    +0.000 A 
ENDROOT
BRANCH   1  12
ATOM     12  C   UNL     1       5.497   4.248  18.593  0.00  0.00    +0.000 C 
BRANCH  12  14
ATOM     13  N   UNL     1       6.719   4.835  16.374  0.00  0.00    +0.000 N 
ATOM     14  C   UNL     1       5.645   4.278  17.044  0.00  0.00    +0.000 A 
ATOM     15  N   UNL     1       4.867   3.684  16.139  0.00  0.00    +0.000 NA
ATOM     16  C   UNL     1       5.456   3.858  14.890  0.00  0.00    +0.000 A 
ATOM     17  C   UNL     1       5.099   3.415  13.596  0.00  0.00    +0.000 A 
ATOM     18  C   UNL     1       5.899   3.784  12.480  0.00  0.00    +0.000 A 
ATOM     19  C   UNL     1       7.041   4.548  12.643  0.00  0.00    +0.000 A 
ATOM     20  C   UNL     1       7.435   4.956  13.920  0.00  0.00    +0.000 A 
ATOM     21  C   UNL     1       6.624   4.590  15.014  0.00  0.00    +0.000 A 
BRANCH  13  22
ATOM     22  C   UNL     1       7.832   5.563  16.919  0.00  0.00    +0.000 C 
BRANCH  22  23
ATOM     23  C   UNL     1       7.453   7.013  17.175  0.00  0.00    +0.000 C 
BRANCH  23  24
ATOM     24  C   UNL     1       8.075   7.399  18.480  0.00  0.00    +0.000 C 
BRANCH  24  26
ATOM     25  N   UNL     1       8.108   5.285  20.286  0.00  0.00    +0.000 NA
ATOM     26  C   UNL     1       8.093   6.244  19.467  0.00  0.00    +0.000 C 
ENDBRANCH  24  26
ENDBRANCH  23  24
ENDBRANCH  22  23
ENDBRANCH  13  22
ENDBRANCH  12  14
ENDBRANCH   1  12
BRANCH   5  27
ATOM     27  O   UNL     1       1.374   7.370  20.939  0.00  0.00    +0.000 OA
BRANCH  27  28
ATOM     28  C   UNL     1       1.290   8.658  21.550  0.00  0.00    +0.000 C 
BRANCH  28  29
ATOM     29  C   UNL     1      -0.129   8.954  22.000  0.00  0.00    +0.000 C 
ATOM     30  F   UNL     1      -0.645  10.057  21.410  0.00  0.00    +0.000 F 
ATOM     31  F   UNL     1      -0.958   7.923  21.709  0.00  0.00    +0.000 F 
ATOM     32  F   UNL     1      -0.185   9.148  23.339  0.00  0.00    +0.000 F 
ENDBRANCH  28  29
ENDBRANCH  27  28
ENDBRANCH   5  27
TORSDOF 9
ENDMDL
MODEL 4
REMARK VINA RESULT:      -7.6      3.174      7.677
REMARK  Name = 
REMARK  9 active torsions:
REMARK  status: ('A' for Active; 'I' for Inactive)
REMARK    1  A    between atoms: C_2  and  C_3
REMARK    2  A    between atoms: C_3  and  C_4
REMARK    3  A    between atoms: C_4  and  C_5
REMARK    4  A    between atoms: C_5  and  N_6
REMARK    5  A    between atoms: C_7  and  C_8
REMARK    6  A    between atoms: C_8  and  N_9
REMARK    7  A    between atoms: N_13  and  O_14
REMARK    8  A    between atoms: O_14  and  C_15
REMARK    9  A    between atoms: C_15  and  C_16
REMARK                            x       y       z     vdW  Elec       q    Type
REMARK                         _______ _______ _______ _____ _____    ______ ____
ROOT
ATOM      1  N   UNL     1       4.600   5.420  17.651  0.00  0.00    +0.000 N 
ATOM      2  C   UNL     1       5.557   5.497  18.642  0.00  0.00    +0.000 C 
ATOM      3  O   UNL     1       5.540   5.108  19.799  0.00  0.00    +0.000 OA
ATOM      4  C   UNL     1       6.773   6.033  17.927  0.00  0.00    +0.000 C 
ATOM      5  N   UNL     1       7.557   6.925  18.446  0.00  0.00    +0.000 NA
ATOM      6  C   UNL     1       6.648   5.554  16.570  0.00  0.00    +0.000 A 
ATOM      7  C   UNL     1       7.614   5.344  15.600  0.00  0.00    +0.000 A 
ATOM      8  C   UNL     1       7.168   4.771  14.422  0.00  0.00    +0.000 A 
ATOM      9  C   UNL     1       5.808   4.477  14.299  0.00  0.00    +0.000 A 
ATOM     10  N   UNL     1       4.843   4.700  15.267  0.00  0.00    +0.000 NA
ATOM     11  C   UNL     1       5.294   5.229  16.413  0.00  0.00    +0.000 A 
ENDROOT
BRANCH   1  12
ATOM     12  C   UNL     1       3.219   5.124  17.945  0.00  0.00    +0.000 C 
BRANCH  12  14
ATOM     13  N   UNL     1       2.057   6.348  19.924  0.00  0.00    +0.000 N 
ATOM     14  C   UNL     1       2.485   6.325  18.608  0.00  0.00    +0.000 A 
ATOM     15  N   UNL     1       2.265   7.534  18.090  0.00  0.00    +0.000 NA
ATOM     16  C   UNL     1       1.706   8.329  19.085  0.00  0.00    +0.000 A 
ATOM     17  C   UNL     1       1.311   9.686  19.114  0.00  0.00    +0.000 A 
ATOM     18  C   UNL     1       0.728  10.226  20.293  0.00  0.00    +0.000 A 
ATOM     19  C   UNL     1       0.565   9.449  21.427  0.00  0.00    +0.000 A 
ATOM     20  C   UNL     1       0.991   8.119  21.432  0.00  0.00    +0.000 A 
ATOM     21  C   UNL     1       1.557   7.597  20.251  0.00  0.00    +0.000 A 
BRANCH  13  22
ATOM     22  C   UNL     1       2.102   5.290  20.896  0.00  0.00    +0.000 C 
BRANCH  22  23
ATOM     23  C   UNL     1       1.012   4.266  20.627  0.00  0.00    +0.000 C 
BRANCH  23  24
ATOM     24  C   UNL     1       1.497   2.962  21.178  0.00  0.00    +0.000 C 
BRANCH  24  26
ATOM     25  N   UNL     1       4.039   2.319  20.253  0.00  0.00    +0.000 NA
ATOM     26  C   UNL     1       2.886   2.610  20.672  0.00  0.00    +0.000 C 
ENDBRANCH  24  26
ENDBRANCH  23  24
ENDBRANCH  22  23
ENDBRANCH  13  22
ENDBRANCH  12  14
ENDBRANCH   1  12
BRANCH   5  27
ATOM     27  O   UNL     1       8.344   7.519  17.452  0.00  0.00    +0.000 OA
BRANCH  27  28
ATOM     28  C   UNL     1       7.984   8.898  17.359  0.00  0.00    +0.000 C 
BRANCH  28  29
ATOM     29  C   UNL     1       8.805   9.741  18.317  0.00  0.00    +0.000 C 
ATOM     30  F   UNL     1       9.361   9.011  19.311  0.00  0.00    +0.000 F 
ATOM     31  F   UNL     1       9.818  10.367  17.670  0.00  0.00    +0.000 F 
ATOM     32  F   UNL     1       8.046  10.701  18.896  0.00  0.00    +0.000 F 
ENDBRANCH  28  29
ENDBRANCH  27  28
ENDBRANCH   5  27
TORSDOF 9
ENDMDL
MODEL 5
REMARK VINA RESULT:      -7.5      5.278     10.051
REMARK  Name = 
REMARK  9 active torsions:
REMARK  status: ('A' for Active; 'I' for Inactive)
REMARK    1  A    between atoms: C_2  and  C_3
REMARK    2  A    between atoms: C_3  and  C_4
REMARK    3  A    between atoms: C_4  and  C_5
REMARK    4  A    between atoms: C_5  and  N_6
REMARK    5  A    between atoms: C_7  and  C_8
REMARK    6  A    between atoms: C_8  and  N_9
REMARK    7  A    between atoms: N_13  and  O_14
REMARK    8  A    between atoms: O_14  and  C_15
REMARK    9  A    between atoms: C_15  and  C_16
REMARK                            x       y       z     vdW  Elec       q    Type
REMARK                         _______ _______ _______ _____ _____    ______ ____
ROOT
ATOM      1  N   UNL     1      -0.277  11.615  19.867  0.00  0.00    +0.000 N 
ATOM      2  C   UNL     1       0.918  11.283  19.264  0.00  0.00    +0.000 C 
ATOM      3  O   UNL     1       1.687  11.953  18.593  0.00  0.00    +0.000 OA
ATOM      4  C   UNL     1       1.201   9.889  19.771  0.00  0.00    +0.000 C 
ATOM      5  N   UNL     1       1.673   8.949  19.014  0.00  0.00    +0.000 NA
ATOM      6  C   UNL     1       0.592   9.837  21.079  0.00  0.00    +0.000 A 
ATOM      7  C   UNL     1       0.872   9.031  22.169  0.00  0.00    +0.000 A 
ATOM      8  C   UNL     1       0.163   9.311  23.323  0.00  0.00    +0.000 A 
ATOM      9  C   UNL     1      -0.775  10.347  23.292  0.00  0.00    +0.000 A 
ATOM     10  N   UNL     1      -1.061  11.143  22.196  0.00  0.00    +0.000 NA
ATOM     11  C   UNL     1      -0.346  10.879  21.095  0.00  0.00    +0.000 A 
ENDROOT
BRANCH   1  12
ATOM     12  C   UNL     1      -1.007  12.806  19.509  0.00  0.00    +0.000 C 
BRANCH  12  14
ATOM     13  N   UNL     1      -3.140  11.935  18.303  0.00  0.00    +0.000 N 
ATOM     14  C   UNL     1      -2.536  12.549  19.386  0.00  0.00    +0.000 A 
ATOM     15  N   UNL     1      -3.474  12.747  20.314  0.00  0.00    +0.000 NA
ATOM     16  C   UNL     1      -4.674  12.246  19.820  0.00  0.00    +0.000 A 
ATOM     17  C   UNL     1      -5.970  12.151  20.376  0.00  0.00    +0.000 A 
ATOM     18  C   UNL     1      -7.031  11.604  19.602  0.00  0.00    +0.000 A 
ATOM     19  C   UNL     1      -6.810  11.138  18.319  0.00  0.00    +0.000 A 
ATOM     20  C   UNL     1      -5.526  11.181  17.769  0.00  0.00    +0.000 A 
ATOM     21  C   UNL     1      -4.488  11.735  18.546  0.00  0.00    +0.000 A 
BRANCH  13  22
ATOM     22  C   UNL     1      -2.538  11.507  17.069  0.00  0.00    +0.000 C 
BRANCH  22  23
ATOM     23  C   UNL     1      -1.991  10.095  17.199  0.00  0.00    +0.000 C 
BRANCH  23  24
ATOM     24  C   UNL     1      -2.813   9.228  16.298  0.00  0.00    +0.000 C 
BRANCH  24  26
ATOM     25  N   UNL     1      -3.145  10.358  13.779  0.00  0.00    +0.000 NA
ATOM     26  C   UNL     1      -2.994   9.845  14.922  0.00  0.00    +0.000 C 
ENDBRANCH  24  26
ENDBRANCH  23  24
ENDBRANCH  22  23
ENDBRANCH  13  22
ENDBRANCH  12  14
ENDBRANCH   1  12
BRANCH   5  27
ATOM     27  O   UNL     1       1.469   7.697  19.607  0.00  0.00    +0.000 OA
BRANCH  27  28
ATOM     28  C   UNL     1       2.666   6.932  19.462  0.00  0.00    +0.000 C 
BRANCH  28  29
ATOM     29  C   UNL     1       2.373   5.576  18.847  0.00  0.00    +0.000 C 
ATOM     30  F   UNL     1       1.616   4.791  19.648  0.00  0.00    +0.000 F 
ATOM     31  F   UNL     1       1.707   5.706  17.675  0.00  0.00    +0.000 F 
ATOM     32  F   UNL     1       3.517   4.901  18.585  0.00  0.00    +0.000 F 
ENDBRANCH  28  29
ENDBRANCH  27  28
ENDBRANCH   5  27
TORSDOF 9
ENDMDL
MODEL 6
REMARK VINA RESULT:      -7.4      3.425      7.777
REMARK  Name = 
REMARK  9 active torsions:
REMARK  status: ('A' for Active; 'I' for Inactive)
REMARK    1  A    between atoms: C_2  and  C_3
REMARK    2  A    between atoms: C_3  and  C_4
REMARK    3  A    between atoms: C_4  and  C_5
REMARK    4  A    between atoms: C_5  and  N_6
REMARK    5  A    between atoms: C_7  and  C_8
REMARK    6  A    between atoms: C_8  and  N_9
REMARK    7  A    between atoms: N_13  and  O_14
REMARK    8  A    between atoms: O_14  and  C_15
REMARK    9  A    between atoms: C_15  and  C_16
REMARK                            x       y       z     vdW  Elec       q    Type
REMARK                         _______ _______ _______ _____ _____    ______ ____
ROOT
ATOM      1  N   UNL     1       5.195   5.328  18.171  0.00  0.00    +0.000 N 
ATOM      2  C   UNL     1       6.323   5.537  18.936  0.00  0.00    +0.000 C 
ATOM      3  O   UNL     1       6.626   5.118  20.043  0.00  0.00    +0.000 OA
ATOM      4  C   UNL     1       7.249   6.292  18.014  0.00  0.00    +0.000 C 
ATOM      5  N   UNL     1       7.976   7.288  18.410  0.00  0.00    +0.000 NA
ATOM      6  C   UNL     1       6.904   5.837  16.687  0.00  0.00    +0.000 A 
ATOM      7  C   UNL     1       7.650   5.821  15.521  0.00  0.00    +0.000 A 
ATOM      8  C   UNL     1       7.051   5.215  14.431  0.00  0.00    +0.000 A 
ATOM      9  C   UNL     1       5.762   4.699  14.583  0.00  0.00    +0.000 A 
ATOM     10  N   UNL     1       5.014   4.728  15.749  0.00  0.00    +0.000 NA
ATOM     11  C   UNL     1       5.618   5.292  16.803  0.00  0.00    +0.000 A 
ENDROOT
BRANCH   1  12
ATOM     12  C   UNL     1       3.979   4.794  18.734  0.00  0.00    +0.000 C 
BRANCH  12  14
ATOM     13  N   UNL     1       2.192   5.850  20.301  0.00  0.00    +0.000 N 
ATOM     14  C   UNL     1       2.989   5.912  19.172  0.00  0.00    +0.000 A 
ATOM     15  N   UNL     1       2.838   7.123  18.635  0.00  0.00    +0.000 NA
ATOM     16  C   UNL     1       1.949   7.835  19.435  0.00  0.00    +0.000 A 
ATOM     17  C   UNL     1       1.457   9.159  19.371  0.00  0.00    +0.000 A 
ATOM     18  C   UNL     1       0.512   9.607  20.334  0.00  0.00    +0.000 A 
ATOM     19  C   UNL     1       0.083   8.774  21.353  0.00  0.00    +0.000 A 
ATOM     20  C   UNL     1       0.592   7.477  21.459  0.00  0.00    +0.000 A 
ATOM     21  C   UNL     1       1.521   7.046  20.489  0.00  0.00    +0.000 A 
BRANCH  13  22
ATOM     22  C   UNL     1       2.031   4.758  21.222  0.00  0.00    +0.000 C 
BRANCH  22  23
ATOM     23  C   UNL     1       0.983   3.779  20.717  0.00  0.00    +0.000 C 
BRANCH  23  24
ATOM     24  C   UNL     1       1.658   2.449  20.591  0.00  0.00    +0.000 C 
BRANCH  24  26
ATOM     25  N   UNL     1       2.257   1.829  17.947  0.00  0.00    +0.000 NA
ATOM     26  C   UNL     1       1.985   2.111  19.146  0.00  0.00    +0.000 C 
ENDBRANCH  24  26
ENDBRANCH  23  24
ENDBRANCH  22  23
ENDBRANCH  13  22
ENDBRANCH  12  14
ENDBRANCH   1  12
BRANCH   5  27
ATOM     27  O   UNL     1       8.419   8.035  17.311  0.00  0.00    +0.000 OA
BRANCH  27  28
ATOM     28  C   UNL     1       7.970   9.381  17.474  0.00  0.00    +0.000 C 
BRANCH  28  29
ATOM     29  C   UNL     1       8.997  10.211  18.222  0.00  0.00    +0.000 C 
ATOM     30  F   UNL     1       8.525  11.427  18.582  0.00  0.00    +0.000 F 
ATOM     31  F   UNL     1       9.393   9.587  19.357  0.00  0.00    +0.000 F 
ATOM     32  F   UNL     1      10.103  10.413  17.469  0.00  0.00    +0.000 F 
ENDBRANCH  28  29
ENDBRANCH  27  28
ENDBRANCH   5  27
TORSDOF 9
ENDMDL
MODEL 7
REMARK VINA RESULT:      -7.4      5.374      9.955
REMARK  Name = 
REMARK  9 active torsions:
REMARK  status: ('A' for Active; 'I' for Inactive)
REMARK    1  A    between atoms: C_2  and  C_3
REMARK    2  A    between atoms: C_3  and  C_4
REMARK    3  A    between atoms: C_4  and  C_5
REMARK    4  A    between atoms: C_5  and  N_6
REMARK    5  A    between atoms: C_7  and  C_8
REMARK    6  A    between atoms: C_8  and  N_9
REMARK    7  A    between atoms: N_13  and  O_14
REMARK    8  A    between atoms: O_14  and  C_15
REMARK    9  A    between atoms: C_15  and  C_16
REMARK                            x       y       z     vdW  Elec       q    Type
REMARK                         _______ _______ _______ _____ _____    ______ ____
ROOT
ATOM      1  N   UNL     1       0.068  11.070  19.338  0.00  0.00    +0.000 N 
ATOM      2  C   UNL     1       1.284  10.584  18.905  0.00  0.00    +0.000 C 
ATOM      3  O   UNL     1       2.128  11.080  18.176  0.00  0.00    +0.000 OA
ATOM      4  C   UNL     1       1.462   9.309  19.694  0.00  0.00    +0.000 C 
ATOM      5  N   UNL     1       1.938   8.222  19.174  0.00  0.00    +0.000 NA
ATOM      6  C   UNL     1       0.763   9.540  20.937  0.00  0.00    +0.000 A 
ATOM      7  C   UNL     1       0.929   8.956  22.181  0.00  0.00    +0.000 A 
ATOM      8  C   UNL     1       0.157   9.485  23.201  0.00  0.00    +0.000 A 
ATOM      9  C   UNL     1      -0.724  10.525  22.897  0.00  0.00    +0.000 A 
ATOM     10  N   UNL     1      -0.896  11.098  21.647  0.00  0.00    +0.000 NA
ATOM     11  C   UNL     1      -0.121  10.596  20.677  0.00  0.00    +0.000 A 
ENDROOT
BRANCH   1  12
ATOM     12  C   UNL     1      -0.577  12.191  18.699  0.00  0.00    +0.000 C 
BRANCH  12  14
ATOM     13  N   UNL     1      -2.875  11.226  17.960  0.00  0.00    +0.000 N 
ATOM     14  C   UNL     1      -2.128  12.087  18.744  0.00  0.00    +0.000 A 
ATOM     15  N   UNL     1      -2.962  12.684  19.596  0.00  0.00    +0.000 NA
ATOM     16  C   UNL     1      -4.241  12.192  19.358  0.00  0.00    +0.000 A 
ATOM     17  C   UNL     1      -5.488  12.435  19.976  0.00  0.00    +0.000 A 
ATOM     18  C   UNL     1      -6.657  11.792  19.482  0.00  0.00    +0.000 A 
ATOM     19  C   UNL     1      -6.589  10.908  18.420  0.00  0.00    +0.000 A 
ATOM     20  C   UNL     1      -5.358  10.620  17.825  0.00  0.00    +0.000 A 
ATOM     21  C   UNL     1      -4.211  11.274  18.321  0.00  0.00    +0.000 A 
BRANCH  13  22
ATOM     22  C   UNL     1      -2.423  10.352  16.912  0.00  0.00    +0.000 C 
BRANCH  22  23
ATOM     23  C   UNL     1      -2.961  10.804  15.564  0.00  0.00    +0.000 C 
BRANCH  23  24
ATOM     24  C   UNL     1      -3.528   9.592  14.895  0.00  0.00    +0.000 C 
BRANCH  24  26
ATOM     25  N   UNL     1      -4.162  10.072  12.230  0.00  0.00    +0.000 NA
ATOM     26  C   UNL     1      -3.874   9.854  13.439  0.00  0.00    +0.000 C 
ENDBRANCH  24  26
ENDBRANCH  23  24
ENDBRANCH  22  23
ENDBRANCH  13  22
ENDBRANCH  12  14
ENDBRANCH   1  12
BRANCH   5  27
ATOM     27  O   UNL     1       1.633   7.120  19.984  0.00  0.00    +0.000 OA
BRANCH  27  28
ATOM     28  C   UNL     1       2.529   6.059  19.652  0.00  0.00    +0.000 C 
BRANCH  28  29
ATOM     29  C   UNL     1       1.827   4.715  19.716  0.00  0.00    +0.000 C 
ATOM     30  F   UNL     1       1.295   4.347  18.527  0.00  0.00    +0.000 F 
ATOM     31  F   UNL     1       2.684   3.734  20.087  0.00  0.00    +0.000 F 
ATOM     32  F   UNL     1       0.821   4.732  20.621  0.00  0.00    +0.000 F 
ENDBRANCH  28  29
ENDBRANCH  27  28
ENDBRANCH   5  27
TORSDOF 9
ENDMDL
MODEL 8
REMARK VINA RESULT:      -7.4      5.456     10.610
REMARK  Name = 
REMARK  9 active torsions:
REMARK  status: ('A' for Active; 'I' for Inactive)
REMARK    1  A    between atoms: C_2  and  C_3
REMARK    2  A    between atoms: C_3  and  C_4
REMARK    3  A    between atoms: C_4  and  C_5
REMARK    4  A    between atoms: C_5  and  N_6
REMARK    5  A    between atoms: C_7  and  C_8
REMARK    6  A    between atoms: C_8  and  N_9
REMARK    7  A    between atoms: N_13  and  O_14
REMARK    8  A    between atoms: O_14  and  C_15
REMARK    9  A    between atoms: C_15  and  C_16
REMARK                            x       y       z     vdW  Elec       q    Type
REMARK                         _______ _______ _______ _____ _____    ______ ____
ROOT
ATOM      1  N   UNL     1      -0.114  11.493  19.404  0.00  0.00    +0.000 N 
ATOM      2  C   UNL     1       1.063  11.520  18.684  0.00  0.00    +0.000 C 
ATOM      3  O   UNL     1       1.725  12.460  18.272  0.00  0.00    +0.000 OA
ATOM      4  C   UNL     1       1.496  10.075  18.650  0.00  0.00    +0.000 C 
ATOM      5  N   UNL     1       1.994   9.516  17.592  0.00  0.00    +0.000 NA
ATOM      6  C   UNL     1       0.982   9.502  19.873  0.00  0.00    +0.000 A 
ATOM      7  C   UNL     1       1.402   8.398  20.592  0.00  0.00    +0.000 A 
ATOM      8  C   UNL     1       0.750   8.178  21.793  0.00  0.00    +0.000 A 
ATOM      9  C   UNL     1      -0.272   9.055  22.164  0.00  0.00    +0.000 A 
ATOM     10  N   UNL     1      -0.698  10.153  21.434  0.00  0.00    +0.000 NA
ATOM     11  C   UNL     1      -0.038  10.369  20.289  0.00  0.00    +0.000 A 
ENDROOT
BRANCH   1  12
ATOM     12  C   UNL     1      -0.965  12.652  19.519  0.00  0.00    +0.000 C 
BRANCH  12  14
ATOM     13  N   UNL     1      -3.471  12.726  20.210  0.00  0.00    +0.000 N 
ATOM     14  C   UNL     1      -2.471  12.300  19.354  0.00  0.00    +0.000 A 
ATOM     15  N   UNL     1      -3.053  11.665  18.335  0.00  0.00    +0.000 NA
ATOM     16  C   UNL     1      -4.428  11.699  18.542  0.00  0.00    +0.000 A 
ATOM     17  C   UNL     1      -5.520  11.226  17.780  0.00  0.00    +0.000 A 
ATOM     18  C   UNL     1      -6.845  11.382  18.273  0.00  0.00    +0.000 A 
ATOM     19  C   UNL     1      -7.085  12.015  19.480  0.00  0.00    +0.000 A 
ATOM     20  C   UNL     1      -6.022  12.530  20.226  0.00  0.00    +0.000 A 
ATOM     21  C   UNL     1      -4.715  12.358  19.726  0.00  0.00    +0.000 A 
BRANCH  13  22
ATOM     22  C   UNL     1      -3.342  13.467  21.435  0.00  0.00    +0.000 C 
BRANCH  22  23
ATOM     23  C   UNL     1      -3.192  12.526  22.619  0.00  0.00    +0.000 C 
BRANCH  23  24
ATOM     24  C   UNL     1      -3.889  13.170  23.776  0.00  0.00    +0.000 C 
BRANCH  24  26
ATOM     25  N   UNL     1      -6.521  12.306  24.022  0.00  0.00    +0.000 NA
ATOM     26  C   UNL     1      -5.328  12.699  23.910  0.00  0.00    +0.000 C 
ENDBRANCH  24  26
ENDBRANCH  23  24
ENDBRANCH  22  23
ENDBRANCH  13  22
ENDBRANCH  12  14
ENDBRANCH   1  12
BRANCH   5  27
ATOM     27  O   UNL     1       1.938   8.121  17.706  0.00  0.00    +0.000 OA
BRANCH  27  28
ATOM     28  C   UNL     1       3.273   7.615  17.679  0.00  0.00    +0.000 C 
BRANCH  28  29
ATOM     29  C   UNL     1       3.307   6.150  18.075  0.00  0.00    +0.000 C 
ATOM     30  F   UNL     1       3.985   5.384  17.189  0.00  0.00    +0.000 F 
ATOM     31  F   UNL     1       3.904   5.986  19.281  0.00  0.00    +0.000 F 
ATOM     32  F   UNL     1       2.056   5.643  18.175  0.00  0.00    +0.000 F 
ENDBRANCH  28  29
ENDBRANCH  27  28
ENDBRANCH   5  27
TORSDOF 9
ENDMDL
MODEL 9
REMARK VINA RESULT:      -7.4      2.895      5.822
REMARK  Name = 
REMARK  9 active torsions:
REMARK  status: ('A' for Active; 'I' for Inactive)
REMARK    1  A    between atoms: C_2  and  C_3
REMARK    2  A    between atoms: C_3  and  C_4
REMARK    3  A    between atoms: C_4  and  C_5
REMARK    4  A    between atoms: C_5  and  N_6
REMARK    5  A    between atoms: C_7  and  C_8
REMARK    6  A    between atoms: C_8  and  N_9
REMARK    7  A    between atoms: N_13  and  O_14
REMARK    8  A    between atoms: O_14  and  C_15
REMARK    9  A    between atoms: C_15  and  C_16
REMARK                            x       y       z     vdW  Elec       q    Type
REMARK                         _______ _______ _______ _____ _____    ______ ____
ROOT
ATOM      1  N   UNL     1       1.703   8.074  19.930  0.00  0.00    +0.000 N 
ATOM      2  C   UNL     1       1.588   8.690  18.701  0.00  0.00    +0.000 C 
ATOM      3  O   UNL     1       1.436   8.221  17.584  0.00  0.00    +0.000 OA
ATOM      4  C   UNL     1       1.508  10.159  19.042  0.00  0.00    +0.000 C 
ATOM      5  N   UNL     1       2.122  11.073  18.359  0.00  0.00    +0.000 NA
ATOM      6  C   UNL     1       0.885  10.205  20.344  0.00  0.00    +0.000 A 
ATOM      7  C   UNL     1       0.172  11.218  20.962  0.00  0.00    +0.000 A 
ATOM      8  C   UNL     1      -0.388  10.899  22.186  0.00  0.00    +0.000 A 
ATOM      9  C   UNL     1      -0.176   9.618  22.701  0.00  0.00    +0.000 A 
ATOM     10  N   UNL     1       0.549   8.611  22.084  0.00  0.00    +0.000 NA
ATOM     11  C   UNL     1       1.060   8.925  20.887  0.00  0.00    +0.000 A 
ENDROOT
BRANCH   1  12
ATOM     12  C   UNL     1       1.992   6.666  20.054  0.00  0.00    +0.000 C 
BRANCH  12  14
ATOM     13  N   UNL     1       2.931   5.245  18.089  0.00  0.00    +0.000 N 
ATOM     14  C   UNL     1       3.106   6.202  19.072  0.00  0.00    +0.000 A 
ATOM     15  N   UNL     1       4.329   6.714  18.926  0.00  0.00    +0.000 NA
ATOM     16  C   UNL     1       4.927   6.085  17.839  0.00  0.00    +0.000 A 
ATOM     17  C   UNL     1       6.183   6.251  17.212  0.00  0.00    +0.000 A 
ATOM     18  C   UNL     1       6.537   5.423  16.111  0.00  0.00    +0.000 A 
ATOM     19  C   UNL     1       5.658   4.471  15.625  0.00  0.00    +0.000 A 
ATOM     20  C   UNL     1       4.394   4.323  16.203  0.00  0.00    +0.000 A 
ATOM     21  C   UNL     1       4.064   5.146  17.299  0.00  0.00    +0.000 A 
BRANCH  13  22
ATOM     22  C   UNL     1       1.774   4.433  17.828  0.00  0.00    +0.000 C 
BRANCH  22  23
ATOM     23  C   UNL     1       1.921   3.064  18.473  0.00  0.00    +0.000 C 
BRANCH  23  24
ATOM     24  C   UNL     1       0.891   2.983  19.556  0.00  0.00    +0.000 C 
BRANCH  24  26
ATOM     25  N   UNL     1       2.029   3.111  22.090  0.00  0.00    +0.000 NA
ATOM     26  C   UNL     1       1.512   3.053  20.941  0.00  0.00    +0.000 C 
ENDBRANCH  24  26
ENDBRANCH  23  24
ENDBRANCH  22  23
ENDBRANCH  13  22
ENDBRANCH  12  14
ENDBRANCH   1  12
BRANCH   5  27
ATOM     27  O   UNL     1       2.205  12.260  19.097  0.00  0.00    +0.000 OA
BRANCH  27  28
ATOM     28  C   UNL     1       1.886  13.350  18.232  0.00  0.00    +0.000 C 
BRANCH  28  29
ATOM     29  C   UNL     1       0.789  14.213  18.827  0.00  0.00    +0.000 C 
ATOM     30  F   UNL     1       0.865  14.300  20.175  0.00  0.00    +0.000 F 
ATOM     31  F   UNL     1       0.849  15.478  18.344  0.00  0.00    +0.000 F 
ATOM     32  F   UNL     1      -0.436  13.725  18.521  0.00  0.00    +0.000 F 
ENDBRANCH  28  29
ENDBRANCH  27  28
ENDBRANCH   5  27
TORSDOF 9
ENDMDL
