MODEL 1
REMARK VINA RESULT:      -7.2      0.000      0.000
REMARK  Name = 
REMARK  6 active torsions:
REMARK  status: ('A' for Active; 'I' for Inactive)
REMARK    1  A    between atoms: C_1  and  O_2
REMARK    2  A    between atoms: O_2  and  C_3
REMARK    3  A    between atoms: C_11  and  C_12
REMARK    4  A    between atoms: C_14  and  C_15
REMARK    5  A    between atoms: C_20  and  O_21
REMARK    6  A    between atoms: O_21  and  C_22
REMARK                            x       y       z     vdW  Elec       q    Type
REMARK                         _______ _______ _______ _____ _____    ______ ____
ROOT
ATOM      1  C   UNL     1       3.772   2.361  19.828  0.00  0.00    +0.000 A 
ATOM      2  C   UNL     1       2.992   2.391  20.978  0.00  0.00    +0.000 A 
ATOM      3  C   UNL     1       2.261   3.541  21.267  0.00  0.00    +0.000 A 
ATOM      4  F   UNL     1       1.497   3.543  22.375  0.00  0.00    +0.000 F 
ATOM      5  C   UNL     1       2.325   4.683  20.459  0.00  0.00    +0.000 A 
ATOM      6  N   UNL     1       1.563   5.808  20.836  0.00  0.00    +0.000 NA
ATOM      7  N   UNL     1       1.615   6.835  20.127  0.00  0.00    +0.000 NA
ATOM      8  C   UNL     1       2.427   6.927  19.044  0.00  0.00    +0.000 A 
ATOM      9  C   UNL     1       2.662   7.961  18.169  0.00  0.00    +0.000 A 
ATOM     10  C   UNL     1       2.063   9.313  18.163  0.00  0.00    +0.000 C 
ATOM     11  N   UNL     1       3.614   7.605  17.251  0.00  0.00    +0.000 NA
ATOM     12  C   UNL     1       3.999   6.367  17.541  0.00  0.00    +0.000 A 
ATOM     13  N   UNL     1       3.227   5.878  18.617  0.00  0.00    +0.000 N 
ATOM     14  C   UNL     1       3.149   4.654  19.321  0.00  0.00    +0.000 A 
ATOM     15  C   UNL     1       3.822   3.479  18.984  0.00  0.00    +0.000 A 
ENDROOT
BRANCH  12  16
ATOM     16  C   UNL     1       5.142   5.716  16.853  0.00  0.00    +0.000 A 
ATOM     17  C   UNL     1       4.991   5.286  15.522  0.00  0.00    +0.000 A 
ATOM     18  C   UNL     1       6.064   4.775  14.788  0.00  0.00    +0.000 A 
ATOM     19  C   UNL     1       7.293   4.590  15.401  0.00  0.00    +0.000 A 
ATOM     20  C   UNL     1       7.438   4.886  16.753  0.00  0.00    +0.000 A 
ATOM     21  C   UNL     1       6.370   5.423  17.496  0.00  0.00    +0.000 A 
BRANCH  21  22
ATOM     22  O   UNL     1       6.518   5.707  18.834  0.00  0.00    +0.000 OA
ATOM     23  C   UNL     1       7.872   5.820  19.284  0.00  0.00    +0.000 C 
ENDBRANCH  21  22
ENDBRANCH  12  16
BRANCH   1  25
ATOM     24  C   UNL     1       5.280   0.677  20.521  0.00  0.00    +0.000 C 
ATOM     25  O   UNL     1       4.585   1.325  19.463  0.00  0.00    +0.000 OA
ENDBRANCH   1  25
TORSDOF 3
ENDMDL
MODEL 2
REMARK VINA RESULT:      -6.8      2.870      5.909
REMARK  Name = 
REMARK  6 active torsions:
REMARK  status: ('A' for Active; 'I' for Inactive)
REMARK    1  A    between atoms: C_1  and  O_2
REMARK    2  A    between atoms: O_2  and  C_3
REMARK    3  A    between atoms: C_11  and  C_12
REMARK    4  A    between atoms: C_14  and  C_15
REMARK    5  A    between atoms: C_20  and  O_21
REMARK    6  A    between atoms: O_21  and  C_22
REMARK                            x       y       z     vdW  Elec       q    Type
REMARK                         _______ _______ _______ _____ _____    ______ ____
ROOT
ATOM      1  C   UNL     1       6.525   7.202  17.462  0.00  0.00    +0.000 A 
ATOM      2  C   UNL     1       7.510   6.239  17.642  0.00  0.00    +0.000 A 
ATOM      3  C   UNL     1       7.157   5.010  18.195  0.00  0.00    +0.000 A 
ATOM      4  F   UNL     1       8.121   4.083  18.343  0.00  0.00    +0.000 F 
ATOM      5  C   UNL     1       5.850   4.735  18.618  0.00  0.00    +0.000 A 
ATOM      6  N   UNL     1       5.587   3.469  19.181  0.00  0.00    +0.000 NA
ATOM      7  N   UNL     1       4.427   3.212  19.566  0.00  0.00    +0.000 NA
ATOM      8  C   UNL     1       3.428   4.130  19.521  0.00  0.00    +0.000 A 
ATOM      9  C   UNL     1       2.116   4.067  19.926  0.00  0.00    +0.000 A 
ATOM     10  C   UNL     1       1.399   2.929  20.542  0.00  0.00    +0.000 C 
ATOM     11  N   UNL     1       1.494   5.270  19.726  0.00  0.00    +0.000 NA
ATOM     12  C   UNL     1       2.398   6.101  19.217  0.00  0.00    +0.000 A 
ATOM     13  N   UNL     1       3.607   5.404  19.006  0.00  0.00    +0.000 N 
ATOM     14  C   UNL     1       4.873   5.732  18.468  0.00  0.00    +0.000 A 
ATOM     15  C   UNL     1       5.203   6.936  17.843  0.00  0.00    +0.000 A 
ENDROOT
BRANCH  12  16
ATOM     16  C   UNL     1       2.119   7.547  19.027  0.00  0.00    +0.000 A 
ATOM     17  C   UNL     1       2.383   8.143  17.781  0.00  0.00    +0.000 A 
ATOM     18  C   UNL     1       2.032   9.467  17.510  0.00  0.00    +0.000 A 
ATOM     19  C   UNL     1       1.498  10.259  18.513  0.00  0.00    +0.000 A 
ATOM     20  C   UNL     1       1.344   9.734  19.793  0.00  0.00    +0.000 A 
ATOM     21  C   UNL     1       1.672   8.394  20.072  0.00  0.00    +0.000 A 
BRANCH  21  22
ATOM     22  O   UNL     1       1.525   7.884  21.341  0.00  0.00    +0.000 OA
ATOM     23  C   UNL     1       1.028   8.811  22.313  0.00  0.00    +0.000 C 
ENDBRANCH  21  22
ENDBRANCH  12  16
BRANCH   1  25
ATOM     24  C   UNL     1       7.816   9.179  17.605  0.00  0.00    +0.000 C 
ATOM     25  O   UNL     1       6.747   8.468  16.993  0.00  0.00    +0.000 OA
ENDBRANCH   1  25
TORSDOF 3
ENDMDL
MODEL 3
REMARK VINA RESULT:      -6.6      6.625      9.315
REMARK  Name = 
REMARK  6 active torsions:
REMARK  status: ('A' for Active; 'I' for Inactive)
REMARK    1  A    between atoms: C_1  and  O_2
REMARK    2  A    between atoms: O_2  and  C_3
REMARK    3  A    between atoms: C_11  and  C_12
REMARK    4  A    between atoms: C_14  and  C_15
REMARK    5  A    between atoms: C_20  and  O_21
REMARK    6  A    between atoms: O_21  and  C_22
REMARK                            x       y       z     vdW  Elec       q    Type
REMARK                         _______ _______ _______ _____ _____    ______ ____
ROOT
ATOM      1  C   UNL     1      -3.070  10.873  16.609  0.00  0.00    +0.000 A 
ATOM      2  C   UNL     1      -4.414  11.190  16.764  0.00  0.00    +0.000 A 
ATOM      3  C   UNL     1      -4.830  11.805  17.942  0.00  0.00    +0.000 A 
ATOM      4  F   UNL     1      -6.132  12.121  18.065  0.00  0.00    +0.000 F 
ATOM      5  C   UNL     1      -3.943  12.071  18.993  0.00  0.00    +0.000 A 
ATOM      6  N   UNL     1      -4.456  12.684  20.156  0.00  0.00    +0.000 NA
ATOM      7  N   UNL     1      -3.677  12.922  21.103  0.00  0.00    +0.000 NA
ATOM      8  C   UNL     1      -2.370  12.556  21.076  0.00  0.00    +0.000 A 
ATOM      9  C   UNL     1      -1.370  12.683  22.012  0.00  0.00    +0.000 A 
ATOM     10  C   UNL     1      -1.446  13.287  23.359  0.00  0.00    +0.000 C 
ATOM     11  N   UNL     1      -0.212  12.112  21.556  0.00  0.00    +0.000 NA
ATOM     12  C   UNL     1      -0.467  11.609  20.352  0.00  0.00    +0.000 A 
ATOM     13  N   UNL     1      -1.791  11.928  19.984  0.00  0.00    +0.000 N 
ATOM     14  C   UNL     1      -2.595  11.709  18.840  0.00  0.00    +0.000 A 
ATOM     15  C   UNL     1      -2.157  11.165  17.632  0.00  0.00    +0.000 A 
ENDROOT
BRANCH  12  16
ATOM     16  C   UNL     1       0.518  10.769  19.626  0.00  0.00    +0.000 A 
ATOM     17  C   UNL     1       0.679   9.421  19.995  0.00  0.00    +0.000 A 
ATOM     18  C   UNL     1       1.503   8.554  19.273  0.00  0.00    +0.000 A 
ATOM     19  C   UNL     1       2.264   9.040  18.222  0.00  0.00    +0.000 A 
ATOM     20  C   UNL     1       2.223  10.397  17.915  0.00  0.00    +0.000 A 
ATOM     21  C   UNL     1       1.378  11.275  18.621  0.00  0.00    +0.000 A 
BRANCH  21  22
ATOM     22  O   UNL     1       1.349  12.617  18.317  0.00  0.00    +0.000 OA
ATOM     23  C   UNL     1       2.625  13.265  18.310  0.00  0.00    +0.000 C 
ENDBRANCH  21  22
ENDBRANCH  12  16
BRANCH   1  25
ATOM     24  C   UNL     1      -3.362  10.156  14.375  0.00  0.00    +0.000 C 
ATOM     25  O   UNL     1      -2.541  10.212  15.535  0.00  0.00    +0.000 OA
ENDBRANCH   1  25
TORSDOF 3
ENDMDL
MODEL 4
REMARK VINA RESULT:      -6.6      1.091      1.938
REMARK  Name = 
REMARK  6 active torsions:
REMARK  status: ('A' for Active; 'I' for Inactive)
REMARK    1  A    between atoms: C_1  and  O_2
REMARK    2  A    between atoms: O_2  and  C_3
REMARK    3  A    between atoms: C_11  and  C_12
REMARK    4  A    between atoms: C_14  and  C_15
REMARK    5  A    between atoms: C_20  and  O_21
REMARK    6  A    between atoms: O_21  and  C_22
REMARK                            x       y       z     vdW  Elec       q    Type
REMARK                         _______ _______ _______ _____ _____    ______ ____
ROOT
ATOM      1  C   UNL     1       4.099   2.140  20.571  0.00  0.00    +0.000 A 
ATOM      2  C   UNL     1       3.058   2.067  21.488  0.00  0.00    +0.000 A 
ATOM      3  C   UNL     1       2.107   3.084  21.512  0.00  0.00    +0.000 A 
ATOM      4  F   UNL     1       1.096   2.984  22.393  0.00  0.00    +0.000 F 
ATOM      5  C   UNL     1       2.196   4.201  20.671  0.00  0.00    +0.000 A 
ATOM      6  N   UNL     1       1.196   5.190  20.774  0.00  0.00    +0.000 NA
ATOM      7  N   UNL     1       1.265   6.194  20.034  0.00  0.00    +0.000 NA
ATOM      8  C   UNL     1       2.302   6.396  19.181  0.00  0.00    +0.000 A 
ATOM      9  C   UNL     1       2.588   7.433  18.325  0.00  0.00    +0.000 A 
ATOM     10  C   UNL     1       1.805   8.665  18.083  0.00  0.00    +0.000 C 
ATOM     11  N   UNL     1       3.785   7.220  17.697  0.00  0.00    +0.000 NA
ATOM     12  C   UNL     1       4.272   6.071  18.154  0.00  0.00    +0.000 A 
ATOM     13  N   UNL     1       3.338   5.486  19.035  0.00  0.00    +0.000 N 
ATOM     14  C   UNL     1       3.276   4.283  19.777  0.00  0.00    +0.000 A 
ATOM     15  C   UNL     1       4.187   3.230  19.695  0.00  0.00    +0.000 A 
ENDROOT
BRANCH  12  16
ATOM     16  C   UNL     1       5.640   5.605  17.814  0.00  0.00    +0.000 A 
ATOM     17  C   UNL     1       6.679   5.775  18.747  0.00  0.00    +0.000 A 
ATOM     18  C   UNL     1       7.956   5.253  18.529  0.00  0.00    +0.000 A 
ATOM     19  C   UNL     1       8.252   4.631  17.327  0.00  0.00    +0.000 A 
ATOM     20  C   UNL     1       7.280   4.561  16.333  0.00  0.00    +0.000 A 
ATOM     21  C   UNL     1       5.982   5.064  16.550  0.00  0.00    +0.000 A 
BRANCH  21  22
ATOM     22  O   UNL     1       5.030   4.998  15.560  0.00  0.00    +0.000 OA
ATOM     23  C   UNL     1       5.448   4.343  14.358  0.00  0.00    +0.000 C 
ENDBRANCH  21  22
ENDBRANCH  12  16
BRANCH   1  25
ATOM     24  C   UNL     1       5.603   0.723  21.723  0.00  0.00    +0.000 C 
ATOM     25  O   UNL     1       5.131   1.246  20.487  0.00  0.00    +0.000 OA
ENDBRANCH   1  25
TORSDOF 3
ENDMDL
MODEL 5
REMARK VINA RESULT:      -6.3      6.329      9.176
REMARK  Name = 
REMARK  6 active torsions:
REMARK  status: ('A' for Active; 'I' for Inactive)
REMARK    1  A    between atoms: C_1  and  O_2
REMARK    2  A    between atoms: O_2  and  C_3
REMARK    3  A    between atoms: C_11  and  C_12
REMARK    4  A    between atoms: C_14  and  C_15
REMARK    5  A    between atoms: C_20  and  O_21
REMARK    6  A    between atoms: O_21  and  C_22
REMARK                            x       y       z     vdW  Elec       q    Type
REMARK                         _______ _______ _______ _____ _____    ______ ____
ROOT
ATOM      1  C   UNL     1      -3.364  10.542  17.119  0.00  0.00    +0.000 A 
ATOM      2  C   UNL     1      -4.645  11.039  17.324  0.00  0.00    +0.000 A 
ATOM      3  C   UNL     1      -4.869  11.907  18.389  0.00  0.00    +0.000 A 
ATOM      4  F   UNL     1      -6.112  12.393  18.559  0.00  0.00    +0.000 F 
ATOM      5  C   UNL     1      -3.853  12.256  19.287  0.00  0.00    +0.000 A 
ATOM      6  N   UNL     1      -4.173  13.131  20.347  0.00  0.00    +0.000 NA
ATOM      7  N   UNL     1      -3.277  13.446  21.158  0.00  0.00    +0.000 NA
ATOM      8  C   UNL     1      -2.025  12.928  21.092  0.00  0.00    +0.000 A 
ATOM      9  C   UNL     1      -0.923  13.106  21.895  0.00  0.00    +0.000 A 
ATOM     10  C   UNL     1      -0.793  13.955  23.099  0.00  0.00    +0.000 C 
ATOM     11  N   UNL     1       0.117  12.328  21.462  0.00  0.00    +0.000 NA
ATOM     12  C   UNL     1      -0.315  11.644  20.407  0.00  0.00    +0.000 A 
ATOM     13  N   UNL     1      -1.632  12.044  20.098  0.00  0.00    +0.000 N 
ATOM     14  C   UNL     1      -2.571  11.714  19.093  0.00  0.00    +0.000 A 
ATOM     15  C   UNL     1      -2.323  10.907  17.983  0.00  0.00    +0.000 A 
ENDROOT
BRANCH  12  16
ATOM     16  C   UNL     1       0.497  10.572  19.778  0.00  0.00    +0.000 A 
ATOM     17  C   UNL     1       1.066  10.792  18.510  0.00  0.00    +0.000 A 
ATOM     18  C   UNL     1       1.933   9.867  17.923  0.00  0.00    +0.000 A 
ATOM     19  C   UNL     1       2.175   8.654  18.548  0.00  0.00    +0.000 A 
ATOM     20  C   UNL     1       1.525   8.355  19.742  0.00  0.00    +0.000 A 
ATOM     21  C   UNL     1       0.667   9.289  20.354  0.00  0.00    +0.000 A 
BRANCH  21  22
ATOM     22  O   UNL     1       0.023   8.983  21.530  0.00  0.00    +0.000 OA
ATOM     23  C   UNL     1       0.812   9.142  22.714  0.00  0.00    +0.000 C 
ENDBRANCH  21  22
ENDBRANCH  12  16
BRANCH   1  25
ATOM     24  C   UNL     1      -2.992  10.128  14.820  0.00  0.00    +0.000 C 
ATOM     25  O   UNL     1      -3.023   9.635  16.154  0.00  0.00    +0.000 OA
ENDBRANCH   1  25
TORSDOF 3
ENDMDL
MODEL 6
REMARK VINA RESULT:      -6.2      8.508     10.886
REMARK  Name = 
REMARK  6 active torsions:
REMARK  status: ('A' for Active; 'I' for Inactive)
REMARK    1  A    between atoms: C_1  and  O_2
REMARK    2  A    between atoms: O_2  and  C_3
REMARK    3  A    between atoms: C_11  and  C_12
REMARK    4  A    between atoms: C_14  and  C_15
REMARK    5  A    between atoms: C_20  and  O_21
REMARK    6  A    between atoms: O_21  and  C_22
REMARK                            x       y       z     vdW  Elec       q    Type
REMARK                         _______ _______ _______ _____ _____    ______ ____
ROOT
ATOM      1  C   UNL     1      -4.607  13.149  21.549  0.00  0.00    +0.000 A 
ATOM      2  C   UNL     1      -5.863  13.616  21.179  0.00  0.00    +0.000 A 
ATOM      3  C   UNL     1      -6.329  13.351  19.894  0.00  0.00    +0.000 A 
ATOM      4  F   UNL     1      -7.555  13.794  19.562  0.00  0.00    +0.000 F 
ATOM      5  C   UNL     1      -5.552  12.670  18.949  0.00  0.00    +0.000 A 
ATOM      6  N   UNL     1      -6.099  12.459  17.666  0.00  0.00    +0.000 NA
ATOM      7  N   UNL     1      -5.415  11.857  16.812  0.00  0.00    +0.000 NA
ATOM      8  C   UNL     1      -4.141  11.456  17.056  0.00  0.00    +0.000 A 
ATOM      9  C   UNL     1      -3.216  10.827  16.255  0.00  0.00    +0.000 A 
ATOM     10  C   UNL     1      -3.365  10.390  14.850  0.00  0.00    +0.000 C 
ATOM     11  N   UNL     1      -2.033  10.668  16.924  0.00  0.00    +0.000 NA
ATOM     12  C   UNL     1      -2.186  11.202  18.132  0.00  0.00    +0.000 A 
ATOM     13  N   UNL     1      -3.518  11.644  18.280  0.00  0.00    +0.000 N 
ATOM     14  C   UNL     1      -4.268  12.239  19.322  0.00  0.00    +0.000 A 
ATOM     15  C   UNL     1      -3.827  12.432  20.632  0.00  0.00    +0.000 A 
ENDROOT
BRANCH  12  16
ATOM     16  C   UNL     1      -1.050  11.358  19.074  0.00  0.00    +0.000 A 
ATOM     17  C   UNL     1      -0.754  10.319  19.975  0.00  0.00    +0.000 A 
ATOM     18  C   UNL     1       0.371  10.361  20.802  0.00  0.00    +0.000 A 
ATOM     19  C   UNL     1       1.174  11.490  20.818  0.00  0.00    +0.000 A 
ATOM     20  C   UNL     1       0.833  12.586  20.031  0.00  0.00    +0.000 A 
ATOM     21  C   UNL     1      -0.285  12.546  19.177  0.00  0.00    +0.000 A 
BRANCH  21  22
ATOM     22  O   UNL     1      -0.620  13.637  18.408  0.00  0.00    +0.000 OA
ATOM     23  C   UNL     1      -0.072  14.882  18.850  0.00  0.00    +0.000 C 
ENDBRANCH  21  22
ENDBRANCH  12  16
BRANCH   1  25
ATOM     24  C   UNL     1      -2.927  12.531  23.094  0.00  0.00    +0.000 C 
ATOM     25  O   UNL     1      -4.005  13.394  22.752  0.00  0.00    +0.000 OA
ENDBRANCH   1  25
TORSDOF 3
ENDMDL
MODEL 7
REMARK VINA RESULT:      -6.2     10.049     13.118
REMARK  Name = 
REMARK  6 active torsions:
REMARK  status: ('A' for Active; 'I' for Inactive)
REMARK    1  A    between atoms: C_1  and  O_2
REMARK    2  A    between atoms: O_2  and  C_3
REMARK    3  A    between atoms: C_11  and  C_12
REMARK    4  A    between atoms: C_14  and  C_15
REMARK    5  A    between atoms: C_20  and  O_21
REMARK    6  A    between atoms: O_21  and  C_22
REMARK                            x       y       z     vdW  Elec       q    Type
REMARK                         _______ _______ _______ _____ _____    ______ ____
ROOT
ATOM      1  C   UNL     1      -2.400  12.268  19.860  0.00  0.00    +0.000 A 
ATOM      2  C   UNL     1      -1.505  12.123  20.913  0.00  0.00    +0.000 A 
ATOM      3  C   UNL     1      -1.970  12.271  22.218  0.00  0.00    +0.000 A 
ATOM      4  F   UNL     1      -1.093  12.106  23.224  0.00  0.00    +0.000 F 
ATOM      5  C   UNL     1      -3.301  12.608  22.497  0.00  0.00    +0.000 A 
ATOM      6  N   UNL     1      -3.680  12.752  23.848  0.00  0.00    +0.000 NA
ATOM      7  N   UNL     1      -4.862  13.058  24.111  0.00  0.00    +0.000 NA
ATOM      8  C   UNL     1      -5.777  13.317  23.141  0.00  0.00    +0.000 A 
ATOM      9  C   UNL     1      -7.094  13.704  23.214  0.00  0.00    +0.000 A 
ATOM     10  C   UNL     1      -7.914  13.946  24.420  0.00  0.00    +0.000 C 
ATOM     11  N   UNL     1      -7.605  13.900  21.959  0.00  0.00    +0.000 NA
ATOM     12  C   UNL     1      -6.627  13.660  21.092  0.00  0.00    +0.000 A 
ATOM     13  N   UNL     1      -5.481  13.223  21.790  0.00  0.00    +0.000 N 
ATOM     14  C   UNL     1      -4.185  12.793  21.421  0.00  0.00    +0.000 A 
ATOM     15  C   UNL     1      -3.744  12.569  20.116  0.00  0.00    +0.000 A 
ENDROOT
BRANCH  12  16
ATOM     16  C   UNL     1      -6.776  13.936  19.641  0.00  0.00    +0.000 A 
ATOM     17  C   UNL     1      -6.643  15.256  19.172  0.00  0.00    +0.000 A 
ATOM     18  C   UNL     1      -6.658  15.557  17.809  0.00  0.00    +0.000 A 
ATOM     19  C   UNL     1      -6.904  14.556  16.883  0.00  0.00    +0.000 A 
ATOM     20  C   UNL     1      -7.167  13.262  17.324  0.00  0.00    +0.000 A 
ATOM     21  C   UNL     1      -7.132  12.942  18.695  0.00  0.00    +0.000 A 
BRANCH  21  22
ATOM     22  O   UNL     1      -7.400  11.663  19.124  0.00  0.00    +0.000 OA
ATOM     23  C   UNL     1      -6.629  10.637  18.492  0.00  0.00    +0.000 C 
ENDBRANCH  21  22
ENDBRANCH  12  16
BRANCH   1  25
ATOM     24  C   UNL     1      -2.572  11.100  17.811  0.00  0.00    +0.000 C 
ATOM     25  O   UNL     1      -2.063  12.213  18.535  0.00  0.00    +0.000 OA
ENDBRANCH   1  25
TORSDOF 3
ENDMDL
MODEL 8
REMARK VINA RESULT:      -6.2      8.251     10.612
REMARK  Name = 
REMARK  6 active torsions:
REMARK  status: ('A' for Active; 'I' for Inactive)
REMARK    1  A    between atoms: C_1  and  O_2
REMARK    2  A    between atoms: O_2  and  C_3
REMARK    3  A    between atoms: C_11  and  C_12
REMARK    4  A    between atoms: C_14  and  C_15
REMARK    5  A    between atoms: C_20  and  O_21
REMARK    6  A    between atoms: O_21  and  C_22
REMARK                            x       y       z     vdW  Elec       q    Type
REMARK                         _______ _______ _______ _____ _____    ______ ____
ROOT
ATOM      1  C   UNL     1      -4.092  13.144  21.904  0.00  0.00    +0.000 A 
ATOM      2  C   UNL     1      -5.475  13.250  21.822  0.00  0.00    +0.000 A 
ATOM      3  C   UNL     1      -6.119  12.799  20.672  0.00  0.00    +0.000 A 
ATOM      4  F   UNL     1      -7.460  12.892  20.621  0.00  0.00    +0.000 F 
ATOM      5  C   UNL     1      -5.410  12.287  19.578  0.00  0.00    +0.000 A 
ATOM      6  N   UNL     1      -6.144  11.868  18.449  0.00  0.00    +0.000 NA
ATOM      7  N   UNL     1      -5.524  11.413  17.464  0.00  0.00    +0.000 NA
ATOM      8  C   UNL     1      -4.168  11.368  17.419  0.00  0.00    +0.000 A 
ATOM      9  C   UNL     1      -3.304  10.954  16.433  0.00  0.00    +0.000 A 
ATOM     10  C   UNL     1      -3.629  10.412  15.096  0.00  0.00    +0.000 C 
ATOM     11  N   UNL     1      -2.005  11.144  16.823  0.00  0.00    +0.000 NA
ATOM     12  C   UNL     1      -2.032  11.690  18.035  0.00  0.00    +0.000 A 
ATOM     13  N   UNL     1      -3.370  11.782  18.475  0.00  0.00    +0.000 N 
ATOM     14  C   UNL     1      -4.009  12.223  19.657  0.00  0.00    +0.000 A 
ATOM     15  C   UNL     1      -3.365  12.600  20.836  0.00  0.00    +0.000 A 
ENDROOT
BRANCH  12  16
ATOM     16  C   UNL     1      -0.803  12.187  18.702  0.00  0.00    +0.000 A 
ATOM     17  C   UNL     1      -0.281  13.442  18.338  0.00  0.00    +0.000 A 
ATOM     18  C   UNL     1       0.802  14.011  19.012  0.00  0.00    +0.000 A 
ATOM     19  C   UNL     1       1.452  13.294  20.003  0.00  0.00    +0.000 A 
ATOM     20  C   UNL     1       1.038  11.998  20.297  0.00  0.00    +0.000 A 
ATOM     21  C   UNL     1      -0.067  11.423  19.640  0.00  0.00    +0.000 A 
BRANCH  21  22
ATOM     22  O   UNL     1      -0.465  10.139  19.931  0.00  0.00    +0.000 OA
ATOM     23  C   UNL     1      -0.236   9.723  21.281  0.00  0.00    +0.000 C 
ENDBRANCH  21  22
ENDBRANCH  12  16
BRANCH   1  25
ATOM     24  C   UNL     1      -1.983  13.156  22.974  0.00  0.00    +0.000 C 
ATOM     25  O   UNL     1      -3.333  13.605  22.944  0.00  0.00    +0.000 OA
ENDBRANCH   1  25
TORSDOF 3
ENDMDL
MODEL 9
REMARK VINA RESULT:      -6.2      8.930     11.432
REMARK  Name = 
REMARK  6 active torsions:
REMARK  status: ('A' for Active; 'I' for Inactive)
REMARK    1  A    between atoms: C_1  and  O_2
REMARK    2  A    between atoms: O_2  and  C_3
REMARK    3  A    between atoms: C_11  and  C_12
REMARK    4  A    between atoms: C_14  and  C_15
REMARK    5  A    between atoms: C_20  and  O_21
REMARK    6  A    between atoms: O_21  and  C_22
REMARK                            x       y       z     vdW  Elec       q    Type
REMARK                         _______ _______ _______ _____ _____    ______ ____
ROOT
ATOM      1  C   UNL     1       9.703  10.921  19.013  0.00  0.00    +0.000 A 
ATOM      2  C   UNL     1      10.419  11.265  17.873  0.00  0.00    +0.000 A 
ATOM      3  C   UNL     1      11.090  12.486  17.841  0.00  0.00    +0.000 A 
ATOM      4  F   UNL     1      11.794  12.791  16.737  0.00  0.00    +0.000 F 
ATOM      5  C   UNL     1      11.025  13.396  18.904  0.00  0.00    +0.000 A 
ATOM      6  N   UNL     1      11.724  14.614  18.779  0.00  0.00    +0.000 NA
ATOM      7  N   UNL     1      11.670  15.437  19.718  0.00  0.00    +0.000 NA
ATOM      8  C   UNL     1      10.912  15.226  20.824  0.00  0.00    +0.000 A 
ATOM      9  C   UNL     1      10.684  16.007  21.933  0.00  0.00    +0.000 A 
ATOM     10  C   UNL     1      11.231  17.345  22.241  0.00  0.00    +0.000 C 
ATOM     11  N   UNL     1       9.796  15.394  22.775  0.00  0.00    +0.000 NA
ATOM     12  C   UNL     1       9.444  14.243  22.210  0.00  0.00    +0.000 A 
ATOM     13  N   UNL     1      10.176  14.067  21.016  0.00  0.00    +0.000 N 
ATOM     14  C   UNL     1      10.263  13.053  20.034  0.00  0.00    +0.000 A 
ATOM     15  C   UNL     1       9.654  11.800  20.104  0.00  0.00    +0.000 A 
ENDROOT
BRANCH  12  16
ATOM     16  C   UNL     1       8.364  13.391  22.767  0.00  0.00    +0.000 A 
ATOM     17  C   UNL     1       8.701  12.304  23.594  0.00  0.00    +0.000 A 
ATOM     18  C   UNL     1       7.725  11.540  24.239  0.00  0.00    +0.000 A 
ATOM     19  C   UNL     1       6.384  11.784  23.993  0.00  0.00    +0.000 A 
ATOM     20  C   UNL     1       6.021  12.770  23.080  0.00  0.00    +0.000 A 
ATOM     21  C   UNL     1       6.995  13.561  22.442  0.00  0.00    +0.000 A 
BRANCH  21  22
ATOM     22  O   UNL     1       6.630  14.529  21.535  0.00  0.00    +0.000 OA
ATOM     23  C   UNL     1       5.720  15.515  22.033  0.00  0.00    +0.000 C 
ENDBRANCH  21  22
ENDBRANCH  12  16
BRANCH   1  25
ATOM     24  C   UNL     1       8.229   9.377  17.994  0.00  0.00    +0.000 C 
ATOM     25  O   UNL     1       8.950   9.788  19.150  0.00  0.00    +0.000 OA
ENDBRANCH   1  25
TORSDOF 3
ENDMDL
