MODEL 1
REMARK VINA RESULT:      -7.6      0.000      0.000
REMARK  Name = 
REMARK  3 active torsions:
REMARK  status: ('A' for Active; 'I' for Inactive)
REMARK    1  A    between atoms: N_3  and  C_4
REMARK    2  A    between atoms: N_11  and  C_12
REMARK    3  A    between atoms: C_15  and  C_16
REMARK                            x       y       z     vdW  Elec       q    Type
REMARK                         _______ _______ _______ _____ _____    ______ ____
ROOT
ATOM      1  O   UNL     1       1.077   5.147  20.778  0.00  0.00    +0.000 OA
ATOM      2  C   UNL     1       2.071   5.501  20.143  0.00  0.00    +0.000 C 
ATOM      3  N   UNL     1       2.417   6.797  19.868  0.00  0.00    +0.000 N 
ATOM      4  N   UNL     1       2.954   4.530  19.764  0.00  0.00    +0.000 N 
ATOM      5  H   UNL     1       3.232   6.935  19.297  0.00  0.00    +0.000 HD
ATOM      6  H   UNL     1       2.829   3.665  20.278  0.00  0.00    +0.000 HD
ENDROOT
BRANCH   3   7
ATOM      7  C   UNL     1       1.756   7.969  20.272  0.00  0.00    +0.000 A 
ATOM      8  C   UNL     1       1.400   8.245  21.594  0.00  0.00    +0.000 A 
ATOM      9  C   UNL     1       0.704   9.416  21.908  0.00  0.00    +0.000 A 
ATOM     10  C   UNL     1       0.360  10.309  20.899  0.00  0.00    +0.000 A 
ATOM     11 CL   UNL     1      -0.549  11.720  21.277  0.00  0.00    +0.000 Cl
ATOM     12  C   UNL     1       0.740  10.065  19.582  0.00  0.00    +0.000 A 
ATOM     13  C   UNL     1       1.452   8.904  19.273  0.00  0.00    +0.000 A 
ENDBRANCH   3   7
BRANCH   4  14
ATOM     14  C   UNL     1       4.096   4.657  19.020  0.00  0.00    +0.000 A 
ATOM     15  C   UNL     1       5.417   4.839  19.333  0.00  0.00    +0.000 A 
ATOM     16  C   UNL     1       6.232   4.835  18.159  0.00  0.00    +0.000 A 
ATOM     17  C   UNL     1       5.501   4.663  16.992  0.00  0.00    +0.000 A 
ATOM     18  S   UNL     1       3.819   4.596  17.355  0.00  0.00    +0.000 S 
BRANCH  17  19
ATOM     19  C   UNL     1       5.972   4.547  15.599  0.00  0.00    +0.000 A 
ATOM     20  C   UNL     1       5.333   3.699  14.674  0.00  0.00    +0.000 A 
ATOM     21  C   UNL     1       5.788   3.592  13.356  0.00  0.00    +0.000 A 
ATOM     22  C   UNL     1       6.888   4.334  12.951  0.00  0.00    +0.000 A 
ATOM     23  F   UNL     1       7.322   4.228  11.691  0.00  0.00    +0.000 F 
ATOM     24  C   UNL     1       7.542   5.181  13.833  0.00  0.00    +0.000 A 
ATOM     25  C   UNL     1       7.083   5.280  15.143  0.00  0.00    +0.000 A 
ATOM     26  F   UNL     1       7.752   6.096  15.973  0.00  0.00    +0.000 F 
ENDBRANCH  17  19
ENDBRANCH   4  14
TORSDOF 3
ENDMDL
MODEL 2
REMARK VINA RESULT:      -7.4      4.623      6.037
REMARK  Name = 
REMARK  3 active torsions:
REMARK  status: ('A' for Active; 'I' for Inactive)
REMARK    1  A    between atoms: N_3  and  C_4
REMARK    2  A    between atoms: N_11  and  C_12
REMARK    3  A    between atoms: C_15  and  C_16
REMARK                            x       y       z     vdW  Elec       q    Type
REMARK                         _______ _______ _______ _____ _____    ______ ____
ROOT
ATOM      1  O   UNL     1      -0.582  11.826  20.638  0.00  0.00    +0.000 OA
ATOM      2  C   UNL     1      -0.295  10.959  19.812  0.00  0.00    +0.000 C 
ATOM      3  N   UNL     1      -1.092  10.555  18.775  0.00  0.00    +0.000 N 
ATOM      4  N   UNL     1       0.961  10.423  19.874  0.00  0.00    +0.000 N 
ATOM      5  H   UNL     1      -0.746   9.801  18.207  0.00  0.00    +0.000 HD
ATOM      6  H   UNL     1       1.601  10.988  20.419  0.00  0.00    +0.000 HD
ENDROOT
BRANCH   3   7
ATOM      7  C   UNL     1      -2.354  11.054  18.414  0.00  0.00    +0.000 A 
ATOM      8  C   UNL     1      -3.198  11.741  19.289  0.00  0.00    +0.000 A 
ATOM      9  C   UNL     1      -4.460  12.167  18.865  0.00  0.00    +0.000 A 
ATOM     10  C   UNL     1      -4.880  11.903  17.565  0.00  0.00    +0.000 A 
ATOM     11 CL   UNL     1      -6.456  12.375  17.062  0.00  0.00    +0.000 Cl
ATOM     12  C   UNL     1      -4.036  11.251  16.672  0.00  0.00    +0.000 A 
ATOM     13  C   UNL     1      -2.768  10.843  17.092  0.00  0.00    +0.000 A 
ENDBRANCH   3   7
BRANCH   4  14
ATOM     14  C   UNL     1       1.502   9.425  19.110  0.00  0.00    +0.000 A 
ATOM     15  C   UNL     1       1.978   9.365  17.826  0.00  0.00    +0.000 A 
ATOM     16  C   UNL     1       2.512   8.071  17.533  0.00  0.00    +0.000 A 
ATOM     17  C   UNL     1       2.412   7.189  18.599  0.00  0.00    +0.000 A 
ATOM     18  S   UNL     1       1.587   7.941  19.911  0.00  0.00    +0.000 S 
BRANCH  17  19
ATOM     19  C   UNL     1       2.892   5.799  18.714  0.00  0.00    +0.000 A 
ATOM     20  C   UNL     1       4.053   5.478  19.444  0.00  0.00    +0.000 A 
ATOM     21  C   UNL     1       4.502   4.159  19.545  0.00  0.00    +0.000 A 
ATOM     22  C   UNL     1       3.793   3.146  18.917  0.00  0.00    +0.000 A 
ATOM     23  F   UNL     1       4.226   1.884  19.013  0.00  0.00    +0.000 F 
ATOM     24  C   UNL     1       2.644   3.422  18.192  0.00  0.00    +0.000 A 
ATOM     25  C   UNL     1       2.205   4.739  18.095  0.00  0.00    +0.000 A 
ATOM     26  F   UNL     1       1.099   4.971  17.370  0.00  0.00    +0.000 F 
ENDBRANCH  17  19
ENDBRANCH   4  14
TORSDOF 3
ENDMDL
MODEL 3
REMARK VINA RESULT:      -7.3      2.127      3.079
REMARK  Name = 
REMARK  3 active torsions:
REMARK  status: ('A' for Active; 'I' for Inactive)
REMARK    1  A    between atoms: N_3  and  C_4
REMARK    2  A    between atoms: N_11  and  C_12
REMARK    3  A    between atoms: C_15  and  C_16
REMARK                            x       y       z     vdW  Elec       q    Type
REMARK                         _______ _______ _______ _____ _____    ______ ____
ROOT
ATOM      1  O   UNL     1       1.132   8.640  22.050  0.00  0.00    +0.000 OA
ATOM      2  C   UNL     1       1.350   8.107  20.961  0.00  0.00    +0.000 C 
ATOM      3  N   UNL     1       1.198   8.705  19.739  0.00  0.00    +0.000 N 
ATOM      4  N   UNL     1       1.880   6.848  20.974  0.00  0.00    +0.000 N 
ATOM      5  H   UNL     1       1.367   8.132  18.932  0.00  0.00    +0.000 HD
ATOM      6  H   UNL     1       2.283   6.601  21.871  0.00  0.00    +0.000 HD
ENDROOT
BRANCH   3   7
ATOM      7  C   UNL     1       0.811  10.028  19.471  0.00  0.00    +0.000 A 
ATOM      8  C   UNL     1       1.692  11.027  19.052  0.00  0.00    +0.000 A 
ATOM      9  C   UNL     1       1.235  12.332  18.848  0.00  0.00    +0.000 A 
ATOM     10  C   UNL     1      -0.104  12.640  19.066  0.00  0.00    +0.000 A 
ATOM     11 CL   UNL     1      -0.654  14.259  18.872  0.00  0.00    +0.000 Cl
ATOM     12  C   UNL     1      -1.001  11.647  19.448  0.00  0.00    +0.000 A 
ATOM     13  C   UNL     1      -0.546  10.339  19.633  0.00  0.00    +0.000 A 
ENDBRANCH   3   7
BRANCH   4  14
ATOM     14  C   UNL     1       2.167   6.032  19.913  0.00  0.00    +0.000 A 
ATOM     15  C   UNL     1       1.498   5.008  19.295  0.00  0.00    +0.000 A 
ATOM     16  C   UNL     1       2.224   4.526  18.162  0.00  0.00    +0.000 A 
ATOM     17  C   UNL     1       3.425   5.190  17.964  0.00  0.00    +0.000 A 
ATOM     18  S   UNL     1       3.679   6.337  19.225  0.00  0.00    +0.000 S 
BRANCH  17  19
ATOM     19  C   UNL     1       4.420   5.029  16.887  0.00  0.00    +0.000 A 
ATOM     20  C   UNL     1       4.903   6.134  16.159  0.00  0.00    +0.000 A 
ATOM     21  C   UNL     1       5.842   5.972  15.137  0.00  0.00    +0.000 A 
ATOM     22  C   UNL     1       6.309   4.702  14.834  0.00  0.00    +0.000 A 
ATOM     23  F   UNL     1       7.207   4.549  13.855  0.00  0.00    +0.000 F 
ATOM     24  C   UNL     1       5.860   3.591  15.530  0.00  0.00    +0.000 A 
ATOM     25  C   UNL     1       4.923   3.761  16.545  0.00  0.00    +0.000 A 
ATOM     26  F   UNL     1       4.496   2.660  17.185  0.00  0.00    +0.000 F 
ENDBRANCH  17  19
ENDBRANCH   4  14
TORSDOF 3
ENDMDL
MODEL 4
REMARK VINA RESULT:      -7.3      1.937      2.694
REMARK  Name = 
REMARK  3 active torsions:
REMARK  status: ('A' for Active; 'I' for Inactive)
REMARK    1  A    between atoms: N_3  and  C_4
REMARK    2  A    between atoms: N_11  and  C_12
REMARK    3  A    between atoms: C_15  and  C_16
REMARK                            x       y       z     vdW  Elec       q    Type
REMARK                         _______ _______ _______ _____ _____    ______ ____
ROOT
ATOM      1  O   UNL     1       1.161   8.312  22.027  0.00  0.00    +0.000 OA
ATOM      2  C   UNL     1       1.395   7.822  20.921  0.00  0.00    +0.000 C 
ATOM      3  N   UNL     1       1.229   8.457  19.720  0.00  0.00    +0.000 N 
ATOM      4  N   UNL     1       1.959   6.578  20.892  0.00  0.00    +0.000 N 
ATOM      5  H   UNL     1       1.414   7.916  18.894  0.00  0.00    +0.000 HD
ATOM      6  H   UNL     1       2.367   6.312  21.781  0.00  0.00    +0.000 HD
ENDROOT
BRANCH   3   7
ATOM      7  C   UNL     1       0.807   9.777  19.495  0.00  0.00    +0.000 A 
ATOM      8  C   UNL     1      -0.454  10.262  19.851  0.00  0.00    +0.000 A 
ATOM      9  C   UNL     1      -0.814  11.580  19.552  0.00  0.00    +0.000 A 
ATOM     10  C   UNL     1       0.086  12.412  18.894  0.00  0.00    +0.000 A 
ATOM     11 CL   UNL     1      -0.379  14.014  18.474  0.00  0.00    +0.000 Cl
ATOM     12  C   UNL     1       1.358  11.953  18.565  0.00  0.00    +0.000 A 
ATOM     13  C   UNL     1       1.723  10.642  18.882  0.00  0.00    +0.000 A 
ENDBRANCH   3   7
BRANCH   4  14
ATOM     14  C   UNL     1       2.269   5.806  19.805  0.00  0.00    +0.000 A 
ATOM     15  C   UNL     1       1.619   4.799  19.140  0.00  0.00    +0.000 A 
ATOM     16  C   UNL     1       2.365   4.368  17.999  0.00  0.00    +0.000 A 
ATOM     17  C   UNL     1       3.562   5.053  17.843  0.00  0.00    +0.000 A 
ATOM     18  S   UNL     1       3.786   6.153  19.150  0.00  0.00    +0.000 S 
BRANCH  17  19
ATOM     19  C   UNL     1       4.572   4.944  16.774  0.00  0.00    +0.000 A 
ATOM     20  C   UNL     1       5.194   3.717  16.471  0.00  0.00    +0.000 A 
ATOM     21  C   UNL     1       6.153   3.624  15.458  0.00  0.00    +0.000 A 
ATOM     22  C   UNL     1       6.499   4.758  14.738  0.00  0.00    +0.000 A 
ATOM     23  F   UNL     1       7.418   4.665  13.771  0.00  0.00    +0.000 F 
ATOM     24  C   UNL     1       5.907   5.982  15.006  0.00  0.00    +0.000 A 
ATOM     25  C   UNL     1       4.954   6.066  16.017  0.00  0.00    +0.000 A 
ATOM     26  F   UNL     1       4.415   7.272  16.260  0.00  0.00    +0.000 F 
ENDBRANCH  17  19
ENDBRANCH   4  14
TORSDOF 3
ENDMDL
MODEL 5
REMARK VINA RESULT:      -7.3      4.455      5.707
REMARK  Name = 
REMARK  3 active torsions:
REMARK  status: ('A' for Active; 'I' for Inactive)
REMARK    1  A    between atoms: N_3  and  C_4
REMARK    2  A    between atoms: N_11  and  C_12
REMARK    3  A    between atoms: C_15  and  C_16
REMARK                            x       y       z     vdW  Elec       q    Type
REMARK                         _______ _______ _______ _____ _____    ______ ____
ROOT
ATOM      1  O   UNL     1      -0.285  11.154  20.601  0.00  0.00    +0.000 OA
ATOM      2  C   UNL     1       0.029  10.305  19.766  0.00  0.00    +0.000 C 
ATOM      3  N   UNL     1      -0.731   9.929  18.692  0.00  0.00    +0.000 N 
ATOM      4  N   UNL     1       1.279   9.762  19.862  0.00  0.00    +0.000 N 
ATOM      5  H   UNL     1      -0.368   9.187  18.120  0.00  0.00    +0.000 HD
ATOM      6  H   UNL     1       1.902  10.312  20.444  0.00  0.00    +0.000 HD
ENDROOT
BRANCH   3   7
ATOM      7  C   UNL     1      -1.977  10.442  18.297  0.00  0.00    +0.000 A 
ATOM      8  C   UNL     1      -2.687   9.990  17.183  0.00  0.00    +0.000 A 
ATOM      9  C   UNL     1      -3.903  10.584  16.831  0.00  0.00    +0.000 A 
ATOM     10  C   UNL     1      -4.408  11.633  17.593  0.00  0.00    +0.000 A 
ATOM     11 CL   UNL     1      -5.874  12.403  17.125  0.00  0.00    +0.000 Cl
ATOM     12  C   UNL     1      -3.729  12.070  18.727  0.00  0.00    +0.000 A 
ATOM     13  C   UNL     1      -2.524  11.462  19.087  0.00  0.00    +0.000 A 
ENDBRANCH   3   7
BRANCH   4  14
ATOM     14  C   UNL     1       1.844   8.779  19.095  0.00  0.00    +0.000 A 
ATOM     15  C   UNL     1       2.498   8.774  17.890  0.00  0.00    +0.000 A 
ATOM     16  C   UNL     1       2.962   7.462  17.561  0.00  0.00    +0.000 A 
ATOM     17  C   UNL     1       2.635   6.514  18.520  0.00  0.00    +0.000 A 
ATOM     18  S   UNL     1       1.689   7.237  19.765  0.00  0.00    +0.000 S 
BRANCH  17  19
ATOM     19  C   UNL     1       2.978   5.080  18.576  0.00  0.00    +0.000 A 
ATOM     20  C   UNL     1       4.112   4.621  19.273  0.00  0.00    +0.000 A 
ATOM     21  C   UNL     1       4.432   3.261  19.318  0.00  0.00    +0.000 A 
ATOM     22  C   UNL     1       3.618   2.346  18.667  0.00  0.00    +0.000 A 
ATOM     23  F   UNL     1       3.927   1.046  18.710  0.00  0.00    +0.000 F 
ATOM     24  C   UNL     1       2.492   2.760  17.973  0.00  0.00    +0.000 A 
ATOM     25  C   UNL     1       2.182   4.116  17.932  0.00  0.00    +0.000 A 
ATOM     26  F   UNL     1       1.094   4.482  17.235  0.00  0.00    +0.000 F 
ENDBRANCH  17  19
ENDBRANCH   4  14
TORSDOF 3
ENDMDL
MODEL 6
REMARK VINA RESULT:      -7.2      4.398      6.218
REMARK  Name = 
REMARK  3 active torsions:
REMARK  status: ('A' for Active; 'I' for Inactive)
REMARK    1  A    between atoms: N_3  and  C_4
REMARK    2  A    between atoms: N_11  and  C_12
REMARK    3  A    between atoms: C_15  and  C_16
REMARK                            x       y       z     vdW  Elec       q    Type
REMARK                         _______ _______ _______ _____ _____    ______ ____
ROOT
ATOM      1  O   UNL     1      -0.659  12.243  20.526  0.00  0.00    +0.000 OA
ATOM      2  C   UNL     1      -0.414  11.272  19.811  0.00  0.00    +0.000 C 
ATOM      3  N   UNL     1      -1.262  10.739  18.877  0.00  0.00    +0.000 N 
ATOM      4  N   UNL     1       0.842  10.739  19.883  0.00  0.00    +0.000 N 
ATOM      5  H   UNL     1      -0.947   9.913  18.400  0.00  0.00    +0.000 HD
ATOM      6  H   UNL     1       1.510  11.367  20.316  0.00  0.00    +0.000 HD
ENDROOT
BRANCH   3   7
ATOM      7  C   UNL     1      -2.540  11.196  18.515  0.00  0.00    +0.000 A 
ATOM      8  C   UNL     1      -3.376  11.924  19.365  0.00  0.00    +0.000 A 
ATOM      9  C   UNL     1      -4.653  12.304  18.944  0.00  0.00    +0.000 A 
ATOM     10  C   UNL     1      -5.098  11.952  17.673  0.00  0.00    +0.000 A 
ATOM     11 CL   UNL     1      -6.692  12.368  17.178  0.00  0.00    +0.000 Cl
ATOM     12  C   UNL     1      -4.263  11.257  16.803  0.00  0.00    +0.000 A 
ATOM     13  C   UNL     1      -2.980  10.895  17.219  0.00  0.00    +0.000 A 
ENDBRANCH   3   7
BRANCH   4  14
ATOM     14  C   UNL     1       1.343   9.643  19.234  0.00  0.00    +0.000 A 
ATOM     15  C   UNL     1       1.707   9.392  17.937  0.00  0.00    +0.000 A 
ATOM     16  C   UNL     1       2.251   8.078  17.798  0.00  0.00    +0.000 A 
ATOM     17  C   UNL     1       2.269   7.369  18.990  0.00  0.00    +0.000 A 
ATOM     18  S   UNL     1       1.539   8.301  20.241  0.00  0.00    +0.000 S 
BRANCH  17  19
ATOM     19  C   UNL     1       2.796   6.020  19.272  0.00  0.00    +0.000 A 
ATOM     20  C   UNL     1       2.062   5.086  20.028  0.00  0.00    +0.000 A 
ATOM     21  C   UNL     1       2.571   3.811  20.293  0.00  0.00    +0.000 A 
ATOM     22  C   UNL     1       3.819   3.458  19.803  0.00  0.00    +0.000 A 
ATOM     23  F   UNL     1       4.304   2.239  20.059  0.00  0.00    +0.000 F 
ATOM     24  C   UNL     1       4.569   4.350  19.052  0.00  0.00    +0.000 A 
ATOM     25  C   UNL     1       4.056   5.617  18.794  0.00  0.00    +0.000 A 
ATOM     26  F   UNL     1       4.818   6.460  18.079  0.00  0.00    +0.000 F 
ENDBRANCH  17  19
ENDBRANCH   4  14
TORSDOF 3
ENDMDL
MODEL 7
REMARK VINA RESULT:      -7.2      5.931      7.676
REMARK  Name = 
REMARK  3 active torsions:
REMARK  status: ('A' for Active; 'I' for Inactive)
REMARK    1  A    between atoms: N_3  and  C_4
REMARK    2  A    between atoms: N_11  and  C_12
REMARK    3  A    between atoms: C_15  and  C_16
REMARK                            x       y       z     vdW  Elec       q    Type
REMARK                         _______ _______ _______ _____ _____    ______ ____
ROOT
ATOM      1  O   UNL     1       5.200   6.163  15.381  0.00  0.00    +0.000 OA
ATOM      2  C   UNL     1       5.714   6.426  16.468  0.00  0.00    +0.000 C 
ATOM      3  N   UNL     1       5.303   5.940  17.680  0.00  0.00    +0.000 N 
ATOM      4  N   UNL     1       6.849   7.187  16.458  0.00  0.00    +0.000 N 
ATOM      5  H   UNL     1       5.788   6.280  18.491  0.00  0.00    +0.000 HD
ATOM      6  H   UNL     1       7.289   7.223  15.546  0.00  0.00    +0.000 HD
ENDROOT
BRANCH   3   7
ATOM      7  C   UNL     1       4.261   5.033  17.935  0.00  0.00    +0.000 A 
ATOM      8  C   UNL     1       4.369   3.653  17.752  0.00  0.00    +0.000 A 
ATOM      9  C   UNL     1       3.271   2.821  17.987  0.00  0.00    +0.000 A 
ATOM     10  C   UNL     1       2.061   3.370  18.401  0.00  0.00    +0.000 A 
ATOM     11 CL   UNL     1       0.693   2.353  18.632  0.00  0.00    +0.000 Cl
ATOM     12  C   UNL     1       1.949   4.739  18.622  0.00  0.00    +0.000 A 
ATOM     13  C   UNL     1       3.054   5.567  18.405  0.00  0.00    +0.000 A 
ENDBRANCH   3   7
BRANCH   4  14
ATOM     14  C   UNL     1       7.576   7.650  17.522  0.00  0.00    +0.000 A 
ATOM     15  C   UNL     1       8.170   7.048  18.600  0.00  0.00    +0.000 A 
ATOM     16  C   UNL     1       8.882   7.998  19.395  0.00  0.00    +0.000 A 
ATOM     17  C   UNL     1       8.795   9.292  18.902  0.00  0.00    +0.000 A 
ATOM     18  S   UNL     1       7.768   9.328  17.519  0.00  0.00    +0.000 S 
BRANCH  17  19
ATOM     19  C   UNL     1       9.429  10.529  19.396  0.00  0.00    +0.000 A 
ATOM     20  C   UNL     1       9.195  11.006  20.701  0.00  0.00    +0.000 A 
ATOM     21  C   UNL     1       9.797  12.181  21.160  0.00  0.00    +0.000 A 
ATOM     22  C   UNL     1      10.641  12.891  20.318  0.00  0.00    +0.000 A 
ATOM     23  F   UNL     1      11.214  14.015  20.759  0.00  0.00    +0.000 F 
ATOM     24  C   UNL     1      10.897  12.451  19.028  0.00  0.00    +0.000 A 
ATOM     25  C   UNL     1      10.292  11.281  18.579  0.00  0.00    +0.000 A 
ATOM     26  F   UNL     1      10.549  10.896  17.318  0.00  0.00    +0.000 F 
ENDBRANCH  17  19
ENDBRANCH   4  14
TORSDOF 3
ENDMDL
MODEL 8
REMARK VINA RESULT:      -7.2      5.111      9.707
REMARK  Name = 
REMARK  3 active torsions:
REMARK  status: ('A' for Active; 'I' for Inactive)
REMARK    1  A    between atoms: N_3  and  C_4
REMARK    2  A    between atoms: N_11  and  C_12
REMARK    3  A    between atoms: C_15  and  C_16
REMARK                            x       y       z     vdW  Elec       q    Type
REMARK                         _______ _______ _______ _____ _____    ______ ____
ROOT
ATOM      1  O   UNL     1       2.946   4.974  20.459  0.00  0.00    +0.000 OA
ATOM      2  C   UNL     1       2.658   6.088  20.020  0.00  0.00    +0.000 C 
ATOM      3  N   UNL     1       3.012   6.574  18.791  0.00  0.00    +0.000 N 
ATOM      4  N   UNL     1       1.834   6.868  20.781  0.00  0.00    +0.000 N 
ATOM      5  H   UNL     1       2.747   7.521  18.586  0.00  0.00    +0.000 HD
ATOM      6  H   UNL     1       1.339   6.340  21.491  0.00  0.00    +0.000 HD
ENDROOT
BRANCH   3   7
ATOM      7  C   UNL     1       3.726   5.913  17.777  0.00  0.00    +0.000 A 
ATOM      8  C   UNL     1       3.642   4.541  17.534  0.00  0.00    +0.000 A 
ATOM      9  C   UNL     1       4.420   3.952  16.533  0.00  0.00    +0.000 A 
ATOM     10  C   UNL     1       5.286   4.735  15.777  0.00  0.00    +0.000 A 
ATOM     11 CL   UNL     1       6.286   4.001  14.586  0.00  0.00    +0.000 Cl
ATOM     12  C   UNL     1       5.353   6.110  15.984  0.00  0.00    +0.000 A 
ATOM     13  C   UNL     1       4.561   6.699  16.972  0.00  0.00    +0.000 A 
ENDBRANCH   3   7
BRANCH   4  14
ATOM     14  C   UNL     1       1.408   8.147  20.542  0.00  0.00    +0.000 A 
ATOM     15  C   UNL     1       1.248   8.897  19.406  0.00  0.00    +0.000 A 
ATOM     16  C   UNL     1       0.692  10.179  19.708  0.00  0.00    +0.000 A 
ATOM     17  C   UNL     1       0.461  10.365  21.064  0.00  0.00    +0.000 A 
ATOM     18  S   UNL     1       1.011   8.993  21.949  0.00  0.00    +0.000 S 
BRANCH  17  19
ATOM     19  C   UNL     1      -0.148  11.513  21.763  0.00  0.00    +0.000 A 
ATOM     20  C   UNL     1      -1.237  11.347  22.640  0.00  0.00    +0.000 A 
ATOM     21  C   UNL     1      -1.810  12.441  23.296  0.00  0.00    +0.000 A 
ATOM     22  C   UNL     1      -1.297  13.712  23.080  0.00  0.00    +0.000 A 
ATOM     23  F   UNL     1      -1.848  14.756  23.707  0.00  0.00    +0.000 F 
ATOM     24  C   UNL     1      -0.224  13.913  22.226  0.00  0.00    +0.000 A 
ATOM     25  C   UNL     1       0.339  12.819  21.576  0.00  0.00    +0.000 A 
ATOM     26  F   UNL     1       1.365  13.055  20.742  0.00  0.00    +0.000 F 
ENDBRANCH  17  19
ENDBRANCH   4  14
TORSDOF 3
ENDMDL
MODEL 9
REMARK VINA RESULT:      -7.1      4.357      5.394
REMARK  Name = 
REMARK  3 active torsions:
REMARK  status: ('A' for Active; 'I' for Inactive)
REMARK    1  A    between atoms: N_3  and  C_4
REMARK    2  A    between atoms: N_11  and  C_12
REMARK    3  A    between atoms: C_15  and  C_16
REMARK                            x       y       z     vdW  Elec       q    Type
REMARK                         _______ _______ _______ _____ _____    ______ ____
ROOT
ATOM      1  O   UNL     1       1.049  11.700  18.604  0.00  0.00    +0.000 OA
ATOM      2  C   UNL     1       0.996  10.654  19.251  0.00  0.00    +0.000 C 
ATOM      3  N   UNL     1       0.195  10.433  20.339  0.00  0.00    +0.000 N 
ATOM      4  N   UNL     1       1.722   9.593  18.791  0.00  0.00    +0.000 N 
ATOM      5  H   UNL     1       0.292   9.545  20.799  0.00  0.00    +0.000 HD
ATOM      6  H   UNL     1       2.008   9.703  17.825  0.00  0.00    +0.000 HD
ENDROOT
BRANCH   3   7
ATOM      7  C   UNL     1      -0.741  11.311  20.911  0.00  0.00    +0.000 A 
ATOM      8  C   UNL     1      -1.770  11.927  20.195  0.00  0.00    +0.000 A 
ATOM      9  C   UNL     1      -2.634  12.823  20.830  0.00  0.00    +0.000 A 
ATOM     10  C   UNL     1      -2.468  13.106  22.182  0.00  0.00    +0.000 A 
ATOM     11 CL   UNL     1      -3.495  14.254  22.948  0.00  0.00    +0.000 Cl
ATOM     12  C   UNL     1      -1.470  12.473  22.916  0.00  0.00    +0.000 A 
ATOM     13  C   UNL     1      -0.620  11.563  22.284  0.00  0.00    +0.000 A 
ENDBRANCH   3   7
BRANCH   4  14
ATOM     14  C   UNL     1       1.867   8.351  19.348  0.00  0.00    +0.000 A 
ATOM     15  C   UNL     1       1.553   7.817  20.571  0.00  0.00    +0.000 A 
ATOM     16  C   UNL     1       1.854   6.420  20.617  0.00  0.00    +0.000 A 
ATOM     17  C   UNL     1       2.398   5.942  19.433  0.00  0.00    +0.000 A 
ATOM     18  S   UNL     1       2.608   7.237  18.316  0.00  0.00    +0.000 S 
BRANCH  17  19
ATOM     19  C   UNL     1       2.784   4.567  19.066  0.00  0.00    +0.000 A 
ATOM     20  C   UNL     1       3.859   3.911  19.696  0.00  0.00    +0.000 A 
ATOM     21  C   UNL     1       4.221   2.608  19.340  0.00  0.00    +0.000 A 
ATOM     22  C   UNL     1       3.509   1.949  18.348  0.00  0.00    +0.000 A 
ATOM     23  F   UNL     1       3.859   0.704  18.008  0.00  0.00    +0.000 F 
ATOM     24  C   UNL     1       2.444   2.561  17.707  0.00  0.00    +0.000 A 
ATOM     25  C   UNL     1       2.092   3.859  18.067  0.00  0.00    +0.000 A 
ATOM     26  F   UNL     1       1.066   4.427  17.412  0.00  0.00    +0.000 F 
ENDBRANCH  17  19
ENDBRANCH   4  14
TORSDOF 3
ENDMDL
