MODEL 1
REMARK VINA RESULT:      -7.6      0.000      0.000
REMARK  Name = 
REMARK  8 active torsions:
REMARK  status: ('A' for Active; 'I' for Inactive)
REMARK    1  A    between atoms: C_1  and  C_2
REMARK    2  A    between atoms: C_4  and  O_5
REMARK    3  A    between atoms: C_6  and  C_7
REMARK    4  A    between atoms: C_7  and  C_9
REMARK    5  A    between atoms: C_10  and  C_11
REMARK    6  A    between atoms: N_13  and  C_14
REMARK    7  A    between atoms: C_21  and  C_22
REMARK    8  A    between atoms: C_21  and  C_23
REMARK                            x       y       z     vdW  Elec       q    Type
REMARK                         _______ _______ _______ _____ _____    ______ ____
ROOT
ATOM      1  C   UNL     1       2.973   7.558  17.607  0.00  0.00    +0.000 C 
ATOM      2  C   UNL     1       2.193   7.943  18.632  0.00  0.00    +0.000 C 
ENDROOT
BRANCH   2   3
ATOM      3  C   UNL     1       1.534   9.233  18.673  0.00  0.00    +0.000 C 
ATOM      4  C   UNL     1       0.841   9.791  19.688  0.00  0.00    +0.000 C 
ATOM      5  N   UNL     1       0.155  11.020  19.621  0.00  0.00    +0.000 N 
ATOM      6  C   UNL     1      -0.033  11.911  18.496  0.00  0.00    +0.000 C 
ATOM      7  C   UNL     1      -0.546  11.259  20.810  0.00  0.00    +0.000 A 
ATOM      8  C   UNL     1      -1.408  12.298  21.128  0.00  0.00    +0.000 A 
ATOM      9  C   UNL     1      -2.027  12.307  22.384  0.00  0.00    +0.000 A 
ATOM     10  C   UNL     1      -1.771  11.293  23.315  0.00  0.00    +0.000 A 
ATOM     11  C   UNL     1      -0.894  10.255  23.004  0.00  0.00    +0.000 A 
ATOM     12  C   UNL     1      -0.298  10.246  21.745  0.00  0.00    +0.000 A 
ATOM     13  C   UNL     1       0.643   9.210  21.134  0.00  0.00    +0.000 C 
ATOM     14  C   UNL     1       1.967   9.198  21.911  0.00  0.00    +0.000 C 
ATOM     15  C   UNL     1      -0.052   7.839  21.175  0.00  0.00    +0.000 C 
ENDBRANCH   2   3
BRANCH   1  16
ATOM     16  C   UNL     1       3.459   6.148  17.535  0.00  0.00    +0.000 C 
ATOM     17  O   UNL     1       4.323   5.858  16.709  0.00  0.00    +0.000 OA
BRANCH  16  22
ATOM     18  C   UNL     1       1.431   2.543  21.618  0.00  0.00    +0.000 C 
ATOM     19  C   UNL     1       1.894   3.403  20.488  0.00  0.00    +0.000 A 
ATOM     20  C   UNL     1       1.253   3.543  19.325  0.00  0.00    +0.000 A 
ATOM     21  C   UNL     1       1.770   4.441  18.329  0.00  0.00    +0.000 A 
ATOM     22  C   UNL     1       2.927   5.120  18.501  0.00  0.00    +0.000 A 
ATOM     23  C   UNL     1       3.674   4.902  19.779  0.00  0.00    +0.000 A 
ATOM     24  O   UNL     1       4.775   5.389  20.008  0.00  0.00    +0.000 OA
ATOM     25  O   UNL     1       3.100   4.088  20.727  0.00  0.00    +0.000 OA
BRANCH  21  26
ATOM     26  O   UNL     1       0.963   4.577  17.220  0.00  0.00    +0.000 OA
ATOM     27  H   UNL     1       0.045   4.340  17.436  0.00  0.00    +0.000 HD
ENDBRANCH  21  26
ENDBRANCH  16  22
ENDBRANCH   1  16
TORSDOF 4
ENDMDL
MODEL 2
REMARK VINA RESULT:      -7.6      1.584      2.193
REMARK  Name = 
REMARK  8 active torsions:
REMARK  status: ('A' for Active; 'I' for Inactive)
REMARK    1  A    between atoms: C_1  and  C_2
REMARK    2  A    between atoms: C_4  and  O_5
REMARK    3  A    between atoms: C_6  and  C_7
REMARK    4  A    between atoms: C_7  and  C_9
REMARK    5  A    between atoms: C_10  and  C_11
REMARK    6  A    between atoms: N_13  and  C_14
REMARK    7  A    between atoms: C_21  and  C_22
REMARK    8  A    between atoms: C_21  and  C_23
REMARK                            x       y       z     vdW  Elec       q    Type
REMARK                         _______ _______ _______ _____ _____    ______ ____
ROOT
ATOM      1  C   UNL     1       1.739   8.103  17.682  0.00  0.00    +0.000 C 
ATOM      2  C   UNL     1       1.458   9.207  18.394  0.00  0.00    +0.000 C 
ENDROOT
BRANCH   2   3
ATOM      3  C   UNL     1       0.295  10.032  18.134  0.00  0.00    +0.000 C 
ATOM      4  C   UNL     1      -0.450  10.736  19.013  0.00  0.00    +0.000 C 
ATOM      5  N   UNL     1      -1.621  11.450  18.692  0.00  0.00    +0.000 N 
ATOM      6  C   UNL     1      -2.327  11.547  17.431  0.00  0.00    +0.000 C 
ATOM      7  C   UNL     1      -2.207  11.983  19.847  0.00  0.00    +0.000 A 
ATOM      8  C   UNL     1      -3.402  12.672  19.989  0.00  0.00    +0.000 A 
ATOM      9  C   UNL     1      -3.802  13.082  21.267  0.00  0.00    +0.000 A 
ATOM     10  C   UNL     1      -3.004  12.815  22.387  0.00  0.00    +0.000 A 
ATOM     11  C   UNL     1      -1.796  12.135  22.245  0.00  0.00    +0.000 A 
ATOM     12  C   UNL     1      -1.416  11.716  20.972  0.00  0.00    +0.000 A 
ATOM     13  C   UNL     1      -0.188  10.912  20.551  0.00  0.00    +0.000 C 
ATOM     14  C   UNL     1       1.079  11.741  20.806  0.00  0.00    +0.000 C 
ATOM     15  C   UNL     1      -0.174   9.596  21.345  0.00  0.00    +0.000 C 
ENDBRANCH   2   3
BRANCH   1  16
ATOM     16  C   UNL     1       2.837   7.193  18.126  0.00  0.00    +0.000 C 
ATOM     17  O   UNL     1       3.994   7.458  17.808  0.00  0.00    +0.000 OA
BRANCH  16  22
ATOM     18  C   UNL     1       2.068   2.416  21.346  0.00  0.00    +0.000 C 
ATOM     19  C   UNL     1       2.191   3.700  20.593  0.00  0.00    +0.000 A 
ATOM     20  C   UNL     1       2.001   4.912  21.120  0.00  0.00    +0.000 A 
ATOM     21  C   UNL     1       2.198   6.082  20.307  0.00  0.00    +0.000 A 
ATOM     22  C   UNL     1       2.519   6.003  18.995  0.00  0.00    +0.000 A 
ATOM     23  C   UNL     1       2.661   4.637  18.399  0.00  0.00    +0.000 A 
ATOM     24  O   UNL     1       2.858   4.441  17.204  0.00  0.00    +0.000 OA
ATOM     25  O   UNL     1       2.532   3.555  19.235  0.00  0.00    +0.000 OA
BRANCH  21  26
ATOM     26  O   UNL     1       2.076   7.271  20.992  0.00  0.00    +0.000 OA
ATOM     27  H   UNL     1       1.197   7.659  20.845  0.00  0.00    +0.000 HD
ENDBRANCH  21  26
ENDBRANCH  16  22
ENDBRANCH   1  16
TORSDOF 4
ENDMDL
MODEL 3
REMARK VINA RESULT:      -7.4      6.967      8.337
REMARK  Name = 
REMARK  8 active torsions:
REMARK  status: ('A' for Active; 'I' for Inactive)
REMARK    1  A    between atoms: C_1  and  C_2
REMARK    2  A    between atoms: C_4  and  O_5
REMARK    3  A    between atoms: C_6  and  C_7
REMARK    4  A    between atoms: C_7  and  C_9
REMARK    5  A    between atoms: C_10  and  C_11
REMARK    6  A    between atoms: N_13  and  C_14
REMARK    7  A    between atoms: C_21  and  C_22
REMARK    8  A    between atoms: C_21  and  C_23
REMARK                            x       y       z     vdW  Elec       q    Type
REMARK                         _______ _______ _______ _____ _____    ______ ____
ROOT
ATOM      1  C   UNL     1       7.591   8.353  17.643  0.00  0.00    +0.000 C 
ATOM      2  C   UNL     1       8.371   9.325  18.143  0.00  0.00    +0.000 C 
ENDROOT
BRANCH   2   3
ATOM      3  C   UNL     1       8.162  10.728  17.846  0.00  0.00    +0.000 C 
ATOM      4  C   UNL     1       8.889  11.791  18.252  0.00  0.00    +0.000 C 
ATOM      5  N   UNL     1       8.571  13.138  17.988  0.00  0.00    +0.000 N 
ATOM      6  C   UNL     1       7.415  13.700  17.320  0.00  0.00    +0.000 C 
ATOM      7  C   UNL     1       9.470  13.994  18.636  0.00  0.00    +0.000 A 
ATOM      8  C   UNL     1       9.468  15.379  18.711  0.00  0.00    +0.000 A 
ATOM      9  C   UNL     1      10.465  16.021  19.455  0.00  0.00    +0.000 A 
ATOM     10  C   UNL     1      11.461  15.281  20.105  0.00  0.00    +0.000 A 
ATOM     11  C   UNL     1      11.474  13.890  20.020  0.00  0.00    +0.000 A 
ATOM     12  C   UNL     1      10.468  13.261  19.292  0.00  0.00    +0.000 A 
ATOM     13  C   UNL     1      10.217  11.768  19.090  0.00  0.00    +0.000 C 
ATOM     14  C   UNL     1      11.371  11.159  18.281  0.00  0.00    +0.000 C 
ATOM     15  C   UNL     1      10.081  11.107  20.471  0.00  0.00    +0.000 C 
ENDBRANCH   2   3
BRANCH   1  16
ATOM     16  C   UNL     1       7.737   6.954  18.143  0.00  0.00    +0.000 C 
ATOM     17  O   UNL     1       8.627   6.702  18.954  0.00  0.00    +0.000 OA
BRANCH  16  22
ATOM     18  C   UNL     1       3.634   3.141  16.591  0.00  0.00    +0.000 C 
ATOM     19  C   UNL     1       4.755   4.078  16.900  0.00  0.00    +0.000 A 
ATOM     20  C   UNL     1       5.659   4.502  16.014  0.00  0.00    +0.000 A 
ATOM     21  C   UNL     1       6.665   5.447  16.417  0.00  0.00    +0.000 A 
ATOM     22  C   UNL     1       6.769   5.890  17.691  0.00  0.00    +0.000 A 
ATOM     23  C   UNL     1       5.794   5.354  18.692  0.00  0.00    +0.000 A 
ATOM     24  O   UNL     1       5.847   5.611  19.889  0.00  0.00    +0.000 OA
ATOM     25  O   UNL     1       4.809   4.509  18.239  0.00  0.00    +0.000 OA
BRANCH  21  26
ATOM     26  O   UNL     1       7.470   5.886  15.389  0.00  0.00    +0.000 OA
ATOM     27  H   UNL     1       8.084   6.570  15.706  0.00  0.00    +0.000 HD
ENDBRANCH  21  26
ENDBRANCH  16  22
ENDBRANCH   1  16
TORSDOF 4
ENDMDL
MODEL 4
REMARK VINA RESULT:      -7.4      7.029      8.485
REMARK  Name = 
REMARK  8 active torsions:
REMARK  status: ('A' for Active; 'I' for Inactive)
REMARK    1  A    between atoms: C_1  and  C_2
REMARK    2  A    between atoms: C_4  and  O_5
REMARK    3  A    between atoms: C_6  and  C_7
REMARK    4  A    between atoms: C_7  and  C_9
REMARK    5  A    between atoms: C_10  and  C_11
REMARK    6  A    between atoms: N_13  and  C_14
REMARK    7  A    between atoms: C_21  and  C_22
REMARK    8  A    between atoms: C_21  and  C_23
REMARK                            x       y       z     vdW  Elec       q    Type
REMARK                         _______ _______ _______ _____ _____    ______ ____
ROOT
ATOM      1  C   UNL     1       7.686   8.673  18.373  0.00  0.00    +0.000 C 
ATOM      2  C   UNL     1       8.864   9.240  18.683  0.00  0.00    +0.000 C 
ENDROOT
BRANCH   2   3
ATOM      3  C   UNL     1       8.999  10.250  19.714  0.00  0.00    +0.000 C 
ATOM      4  C   UNL     1       9.396  11.534  19.586  0.00  0.00    +0.000 C 
ATOM      5  N   UNL     1       9.583  12.434  20.654  0.00  0.00    +0.000 N 
ATOM      6  C   UNL     1       9.476  12.209  22.081  0.00  0.00    +0.000 C 
ATOM      7  C   UNL     1      10.097  13.651  20.190  0.00  0.00    +0.000 A 
ATOM      8  C   UNL     1      10.503  14.766  20.908  0.00  0.00    +0.000 A 
ATOM      9  C   UNL     1      11.023  15.868  20.218  0.00  0.00    +0.000 A 
ATOM     10  C   UNL     1      11.120  15.855  18.821  0.00  0.00    +0.000 A 
ATOM     11  C   UNL     1      10.701  14.742  18.095  0.00  0.00    +0.000 A 
ATOM     12  C   UNL     1      10.202  13.645  18.792  0.00  0.00    +0.000 A 
ATOM     13  C   UNL     1       9.735  12.294  18.254  0.00  0.00    +0.000 C 
ATOM     14  C   UNL     1       8.478  12.492  17.395  0.00  0.00    +0.000 C 
ATOM     15  C   UNL     1      10.883  11.670  17.445  0.00  0.00    +0.000 C 
ENDBRANCH   2   3
BRANCH   1  16
ATOM     16  C   UNL     1       7.648   7.504  17.444  0.00  0.00    +0.000 C 
ATOM     17  O   UNL     1       8.419   7.480  16.487  0.00  0.00    +0.000 OA
BRANCH  16  22
ATOM     18  C   UNL     1       3.970   3.272  18.973  0.00  0.00    +0.000 C 
ATOM     19  C   UNL     1       4.881   4.341  18.467  0.00  0.00    +0.000 A 
ATOM     20  C   UNL     1       4.689   5.035  17.342  0.00  0.00    +0.000 A 
ATOM     21  C   UNL     1       5.610   6.079  16.982  0.00  0.00    +0.000 A 
ATOM     22  C   UNL     1       6.709   6.357  17.720  0.00  0.00    +0.000 A 
ATOM     23  C   UNL     1       6.951   5.526  18.941  0.00  0.00    +0.000 A 
ATOM     24  O   UNL     1       7.959   5.624  19.633  0.00  0.00    +0.000 OA
ATOM     25  O   UNL     1       6.004   4.590  19.278  0.00  0.00    +0.000 OA
BRANCH  21  26
ATOM     26  O   UNL     1       5.245   6.789  15.859  0.00  0.00    +0.000 OA
ATOM     27  H   UNL     1       4.491   7.371  16.055  0.00  0.00    +0.000 HD
ENDBRANCH  21  26
ENDBRANCH  16  22
ENDBRANCH   1  16
TORSDOF 4
ENDMDL
MODEL 5
REMARK VINA RESULT:      -7.3      6.943      8.385
REMARK  Name = 
REMARK  8 active torsions:
REMARK  status: ('A' for Active; 'I' for Inactive)
REMARK    1  A    between atoms: C_1  and  C_2
REMARK    2  A    between atoms: C_4  and  O_5
REMARK    3  A    between atoms: C_6  and  C_7
REMARK    4  A    between atoms: C_7  and  C_9
REMARK    5  A    between atoms: C_10  and  C_11
REMARK    6  A    between atoms: N_13  and  C_14
REMARK    7  A    between atoms: C_21  and  C_22
REMARK    8  A    between atoms: C_21  and  C_23
REMARK                            x       y       z     vdW  Elec       q    Type
REMARK                         _______ _______ _______ _____ _____    ______ ____
ROOT
ATOM      1  C   UNL     1       7.487   8.467  17.624  0.00  0.00    +0.000 C 
ATOM      2  C   UNL     1       8.292   9.415  18.133  0.00  0.00    +0.000 C 
ENDROOT
BRANCH   2   3
ATOM      3  C   UNL     1       8.120  10.825  17.846  0.00  0.00    +0.000 C 
ATOM      4  C   UNL     1       8.899  11.861  18.224  0.00  0.00    +0.000 C 
ATOM      5  N   UNL     1       8.618  13.219  17.974  0.00  0.00    +0.000 N 
ATOM      6  C   UNL     1       7.457  13.822  17.350  0.00  0.00    +0.000 C 
ATOM      7  C   UNL     1       9.570  14.041  18.588  0.00  0.00    +0.000 A 
ATOM      8  C   UNL     1       9.619  15.426  18.664  0.00  0.00    +0.000 A 
ATOM      9  C   UNL     1      10.665  16.031  19.370  0.00  0.00    +0.000 A 
ATOM     10  C   UNL     1      11.659  15.256  19.981  0.00  0.00    +0.000 A 
ATOM     11  C   UNL     1      11.621  13.866  19.894  0.00  0.00    +0.000 A 
ATOM     12  C   UNL     1      10.566  13.273  19.204  0.00  0.00    +0.000 A 
ATOM     13  C   UNL     1      10.256  11.790  19.011  0.00  0.00    +0.000 C 
ATOM     14  C   UNL     1      11.357  11.143  18.158  0.00  0.00    +0.000 C 
ATOM     15  C   UNL     1      10.150  11.131  20.396  0.00  0.00    +0.000 C 
ENDBRANCH   2   3
BRANCH   1  16
ATOM     16  C   UNL     1       7.596   7.061  18.115  0.00  0.00    +0.000 C 
ATOM     17  O   UNL     1       8.639   6.698  18.656  0.00  0.00    +0.000 OA
BRANCH  16  22
ATOM     18  C   UNL     1       3.258   3.305  17.193  0.00  0.00    +0.000 C 
ATOM     19  C   UNL     1       4.349   4.260  17.547  0.00  0.00    +0.000 A 
ATOM     20  C   UNL     1       4.993   4.281  18.717  0.00  0.00    +0.000 A 
ATOM     21  C   UNL     1       6.065   5.217  18.924  0.00  0.00    +0.000 A 
ATOM     22  C   UNL     1       6.417   6.128  17.989  0.00  0.00    +0.000 A 
ATOM     23  C   UNL     1       5.642   6.142  16.709  0.00  0.00    +0.000 A 
ATOM     24  O   UNL     1       5.810   6.979  15.829  0.00  0.00    +0.000 OA
ATOM     25  O   UNL     1       4.676   5.181  16.534  0.00  0.00    +0.000 OA
BRANCH  21  26
ATOM     26  O   UNL     1       6.717   5.068  20.128  0.00  0.00    +0.000 OA
ATOM     27  H   UNL     1       7.580   4.640  19.997  0.00  0.00    +0.000 HD
ENDBRANCH  21  26
ENDBRANCH  16  22
ENDBRANCH   1  16
TORSDOF 4
ENDMDL
MODEL 6
REMARK VINA RESULT:      -7.3      1.595      1.987
REMARK  Name = 
REMARK  8 active torsions:
REMARK  status: ('A' for Active; 'I' for Inactive)
REMARK    1  A    between atoms: C_1  and  C_2
REMARK    2  A    between atoms: C_4  and  O_5
REMARK    3  A    between atoms: C_6  and  C_7
REMARK    4  A    between atoms: C_7  and  C_9
REMARK    5  A    between atoms: C_10  and  C_11
REMARK    6  A    between atoms: N_13  and  C_14
REMARK    7  A    between atoms: C_21  and  C_22
REMARK    8  A    between atoms: C_21  and  C_23
REMARK                            x       y       z     vdW  Elec       q    Type
REMARK                         _______ _______ _______ _____ _____    ______ ____
ROOT
ATOM      1  C   UNL     1       1.694   8.123  17.645  0.00  0.00    +0.000 C 
ATOM      2  C   UNL     1       1.453   9.280  18.286  0.00  0.00    +0.000 C 
ENDROOT
BRANCH   2   3
ATOM      3  C   UNL     1       0.258  10.067  18.057  0.00  0.00    +0.000 C 
ATOM      4  C   UNL     1      -0.471  10.767  18.952  0.00  0.00    +0.000 C 
ATOM      5  N   UNL     1      -1.674  11.441  18.665  0.00  0.00    +0.000 N 
ATOM      6  C   UNL     1      -2.431  11.495  17.432  0.00  0.00    +0.000 C 
ATOM      7  C   UNL     1      -2.229  11.979  19.833  0.00  0.00    +0.000 A 
ATOM      8  C   UNL     1      -3.438  12.637  20.011  0.00  0.00    +0.000 A 
ATOM      9  C   UNL     1      -3.799  13.059  21.296  0.00  0.00    +0.000 A 
ATOM     10  C   UNL     1      -2.951  12.836  22.388  0.00  0.00    +0.000 A 
ATOM     11  C   UNL     1      -1.730  12.187  22.210  0.00  0.00    +0.000 A 
ATOM     12  C   UNL     1      -1.388  11.755  20.931  0.00  0.00    +0.000 A 
ATOM     13  C   UNL     1      -0.155  10.978  20.476  0.00  0.00    +0.000 C 
ATOM     14  C   UNL     1       1.097  11.846  20.666  0.00  0.00    +0.000 C 
ATOM     15  C   UNL     1      -0.072   9.677  21.291  0.00  0.00    +0.000 C 
ENDBRANCH   2   3
BRANCH   1  16
ATOM     16  C   UNL     1       2.841   7.266  18.069  0.00  0.00    +0.000 C 
ATOM     17  O   UNL     1       3.983   7.608  17.766  0.00  0.00    +0.000 OA
BRANCH  16  22
ATOM     18  C   UNL     1       1.404   2.686  21.344  0.00  0.00    +0.000 C 
ATOM     19  C   UNL     1       1.854   3.792  20.449  0.00  0.00    +0.000 A 
ATOM     20  C   UNL     1       2.410   3.621  19.247  0.00  0.00    +0.000 A 
ATOM     21  C   UNL     1       2.757   4.767  18.451  0.00  0.00    +0.000 A 
ATOM     22  C   UNL     1       2.591   6.033  18.899  0.00  0.00    +0.000 A 
ATOM     23  C   UNL     1       2.031   6.212  20.275  0.00  0.00    +0.000 A 
ATOM     24  O   UNL     1       1.921   7.305  20.821  0.00  0.00    +0.000 OA
ATOM     25  O   UNL     1       1.650   5.086  20.965  0.00  0.00    +0.000 OA
BRANCH  21  26
ATOM     26  O   UNL     1       3.224   4.459  17.192  0.00  0.00    +0.000 OA
ATOM     27  H   UNL     1       3.706   5.213  16.814  0.00  0.00    +0.000 HD
ENDBRANCH  21  26
ENDBRANCH  16  22
ENDBRANCH   1  16
TORSDOF 4
ENDMDL
MODEL 7
REMARK VINA RESULT:      -7.2      7.046      8.641
REMARK  Name = 
REMARK  8 active torsions:
REMARK  status: ('A' for Active; 'I' for Inactive)
REMARK    1  A    between atoms: C_1  and  C_2
REMARK    2  A    between atoms: C_4  and  O_5
REMARK    3  A    between atoms: C_6  and  C_7
REMARK    4  A    between atoms: C_7  and  C_9
REMARK    5  A    between atoms: C_10  and  C_11
REMARK    6  A    between atoms: N_13  and  C_14
REMARK    7  A    between atoms: C_21  and  C_22
REMARK    8  A    between atoms: C_21  and  C_23
REMARK                            x       y       z     vdW  Elec       q    Type
REMARK                         _______ _______ _______ _____ _____    ______ ____
ROOT
ATOM      1  C   UNL     1       7.734   8.870  18.278  0.00  0.00    +0.000 C 
ATOM      2  C   UNL     1       8.916   9.261  18.784  0.00  0.00    +0.000 C 
ENDROOT
BRANCH   2   3
ATOM      3  C   UNL     1       9.035  10.320  19.767  0.00  0.00    +0.000 C 
ATOM      4  C   UNL     1       9.401  11.606  19.577  0.00  0.00    +0.000 C 
ATOM      5  N   UNL     1       9.574  12.557  20.601  0.00  0.00    +0.000 N 
ATOM      6  C   UNL     1       9.484  12.395  22.038  0.00  0.00    +0.000 C 
ATOM      7  C   UNL     1      10.056  13.764  20.077  0.00  0.00    +0.000 A 
ATOM      8  C   UNL     1      10.440  14.920  20.741  0.00  0.00    +0.000 A 
ATOM      9  C   UNL     1      10.928  16.001  19.996  0.00  0.00    +0.000 A 
ATOM     10  C   UNL     1      11.015  15.927  18.601  0.00  0.00    +0.000 A 
ATOM     11  C   UNL     1      10.616  14.772  17.930  0.00  0.00    +0.000 A 
ATOM     12  C   UNL     1      10.149  13.696  18.681  0.00  0.00    +0.000 A 
ATOM     13  C   UNL     1       9.711  12.312  18.209  0.00  0.00    +0.000 C 
ATOM     14  C   UNL     1       8.442  12.440  17.353  0.00  0.00    +0.000 C 
ATOM     15  C   UNL     1      10.867  11.679  17.418  0.00  0.00    +0.000 C 
ENDBRANCH   2   3
BRANCH   1  16
ATOM     16  C   UNL     1       7.662   7.648  17.423  0.00  0.00    +0.000 C 
ATOM     17  O   UNL     1       8.445   7.533  16.482  0.00  0.00    +0.000 OA
BRANCH  16  22
ATOM     18  C   UNL     1       3.943   3.256  18.235  0.00  0.00    +0.000 C 
ATOM     19  C   UNL     1       4.914   4.387  18.145  0.00  0.00    +0.000 A 
ATOM     20  C   UNL     1       5.866   4.647  19.045  0.00  0.00    +0.000 A 
ATOM     21  C   UNL     1       6.777   5.738  18.825  0.00  0.00    +0.000 A 
ATOM     22  C   UNL     1       6.675   6.558  17.754  0.00  0.00    +0.000 A 
ATOM     23  C   UNL     1       5.561   6.300  16.788  0.00  0.00    +0.000 A 
ATOM     24  O   UNL     1       5.313   7.029  15.835  0.00  0.00    +0.000 OA
ATOM     25  O   UNL     1       4.762   5.203  17.008  0.00  0.00    +0.000 OA
BRANCH  21  26
ATOM     26  O   UNL     1       7.776   5.836  19.768  0.00  0.00    +0.000 OA
ATOM     27  H   UNL     1       7.901   4.984  20.221  0.00  0.00    +0.000 HD
ENDBRANCH  21  26
ENDBRANCH  16  22
ENDBRANCH   1  16
TORSDOF 4
ENDMDL
MODEL 8
REMARK VINA RESULT:      -7.1      1.464      2.796
REMARK  Name = 
REMARK  8 active torsions:
REMARK  status: ('A' for Active; 'I' for Inactive)
REMARK    1  A    between atoms: C_1  and  C_2
REMARK    2  A    between atoms: C_4  and  O_5
REMARK    3  A    between atoms: C_6  and  C_7
REMARK    4  A    between atoms: C_7  and  C_9
REMARK    5  A    between atoms: C_10  and  C_11
REMARK    6  A    between atoms: N_13  and  C_14
REMARK    7  A    between atoms: C_21  and  C_22
REMARK    8  A    between atoms: C_21  and  C_23
REMARK                            x       y       z     vdW  Elec       q    Type
REMARK                         _______ _______ _______ _____ _____    ______ ____
ROOT
ATOM      1  C   UNL     1       1.890   7.429  17.790  0.00  0.00    +0.000 C 
ATOM      2  C   UNL     1       2.014   8.273  18.828  0.00  0.00    +0.000 C 
ENDROOT
BRANCH   2   3
ATOM      3  C   UNL     1       1.377   9.575  18.859  0.00  0.00    +0.000 C 
ATOM      4  C   UNL     1       0.655  10.134  19.854  0.00  0.00    +0.000 C 
ATOM      5  N   UNL     1      -0.005  11.376  19.775  0.00  0.00    +0.000 N 
ATOM      6  C   UNL     1      -0.135  12.283  18.653  0.00  0.00    +0.000 C 
ATOM      7  C   UNL     1      -0.746  11.616  20.939  0.00  0.00    +0.000 A 
ATOM      8  C   UNL     1      -1.601  12.667  21.236  0.00  0.00    +0.000 A 
ATOM      9  C   UNL     1      -2.267  12.674  22.468  0.00  0.00    +0.000 A 
ATOM     10  C   UNL     1      -2.064  11.645  23.397  0.00  0.00    +0.000 A 
ATOM     11  C   UNL     1      -1.195  10.595  23.106  0.00  0.00    +0.000 A 
ATOM     12  C   UNL     1      -0.552  10.588  21.871  0.00  0.00    +0.000 A 
ATOM     13  C   UNL     1       0.393   9.541  21.284  0.00  0.00    +0.000 C 
ATOM     14  C   UNL     1       1.686   9.497  22.111  0.00  0.00    +0.000 C 
ATOM     15  C   UNL     1      -0.327   8.183  21.284  0.00  0.00    +0.000 C 
ENDBRANCH   2   3
BRANCH   1  16
ATOM     16  C   UNL     1       2.405   6.032  17.906  0.00  0.00    +0.000 C 
ATOM     17  O   UNL     1       1.631   5.095  17.718  0.00  0.00    +0.000 OA
BRANCH  16  22
ATOM     18  C   UNL     1       8.098   5.609  18.995  0.00  0.00    +0.000 C 
ATOM     19  C   UNL     1       6.621   5.616  18.776  0.00  0.00    +0.000 A 
ATOM     20  C   UNL     1       5.730   5.027  19.578  0.00  0.00    +0.000 A 
ATOM     21  C   UNL     1       4.326   5.144  19.292  0.00  0.00    +0.000 A 
ATOM     22  C   UNL     1       3.865   5.792  18.197  0.00  0.00    +0.000 A 
ATOM     23  C   UNL     1       4.876   6.388  17.269  0.00  0.00    +0.000 A 
ATOM     24  O   UNL     1       4.582   6.917  16.202  0.00  0.00    +0.000 OA
ATOM     25  O   UNL     1       6.200   6.308  17.625  0.00  0.00    +0.000 OA
BRANCH  21  26
ATOM     26  O   UNL     1       3.507   4.584  20.248  0.00  0.00    +0.000 OA
ATOM     27  H   UNL     1       3.848   4.773  21.139  0.00  0.00    +0.000 HD
ENDBRANCH  21  26
ENDBRANCH  16  22
ENDBRANCH   1  16
TORSDOF 4
ENDMDL
MODEL 9
REMARK VINA RESULT:      -7.0      1.525      3.053
REMARK  Name = 
REMARK  8 active torsions:
REMARK  status: ('A' for Active; 'I' for Inactive)
REMARK    1  A    between atoms: C_1  and  C_2
REMARK    2  A    between atoms: C_4  and  O_5
REMARK    3  A    between atoms: C_6  and  C_7
REMARK    4  A    between atoms: C_7  and  C_9
REMARK    5  A    between atoms: C_10  and  C_11
REMARK    6  A    between atoms: N_13  and  C_14
REMARK    7  A    between atoms: C_21  and  C_22
REMARK    8  A    between atoms: C_21  and  C_23
REMARK                            x       y       z     vdW  Elec       q    Type
REMARK                         _______ _______ _______ _____ _____    ______ ____
ROOT
ATOM      1  C   UNL     1       2.598   6.881  19.962  0.00  0.00    +0.000 C 
ATOM      2  C   UNL     1       1.711   7.476  19.148  0.00  0.00    +0.000 C 
ENDROOT
BRANCH   2   3
ATOM      3  C   UNL     1       1.559   8.916  19.075  0.00  0.00    +0.000 C 
ATOM      4  C   UNL     1       0.976   9.745  19.967  0.00  0.00    +0.000 C 
ATOM      5  N   UNL     1       0.793  11.130  19.784  0.00  0.00    +0.000 N 
ATOM      6  C   UNL     1       1.096  11.958  18.635  0.00  0.00    +0.000 C 
ATOM      7  C   UNL     1       0.065  11.676  20.849  0.00  0.00    +0.000 A 
ATOM      8  C   UNL     1      -0.405  12.970  21.021  0.00  0.00    +0.000 A 
ATOM      9  C   UNL     1      -1.149  13.276  22.167  0.00  0.00    +0.000 A 
ATOM     10  C   UNL     1      -1.407  12.298  23.136  0.00  0.00    +0.000 A 
ATOM     11  C   UNL     1      -0.925  11.000  22.971  0.00  0.00    +0.000 A 
ATOM     12  C   UNL     1      -0.201  10.702  21.820  0.00  0.00    +0.000 A 
ATOM     13  C   UNL     1       0.382   9.364  21.370  0.00  0.00    +0.000 C 
ATOM     14  C   UNL     1       1.491   8.935  22.342  0.00  0.00    +0.000 C 
ATOM     15  C   UNL     1      -0.755   8.332  21.315  0.00  0.00    +0.000 C 
ENDBRANCH   2   3
BRANCH   1  16
ATOM     16  C   UNL     1       2.842   5.412  19.845  0.00  0.00    +0.000 C 
ATOM     17  O   UNL     1       2.289   4.652  20.638  0.00  0.00    +0.000 OA
BRANCH  16  22
ATOM     18  C   UNL     1       5.932   3.661  15.245  0.00  0.00    +0.000 C 
ATOM     19  C   UNL     1       5.234   4.086  16.494  0.00  0.00    +0.000 A 
ATOM     20  C   UNL     1       5.845   4.534  17.593  0.00  0.00    +0.000 A 
ATOM     21  C   UNL     1       5.063   4.964  18.720  0.00  0.00    +0.000 A 
ATOM     22  C   UNL     1       3.713   4.882  18.734  0.00  0.00    +0.000 A 
ATOM     23  C   UNL     1       3.042   4.313  17.524  0.00  0.00    +0.000 A 
ATOM     24  O   UNL     1       1.835   4.105  17.458  0.00  0.00    +0.000 OA
ATOM     25  O   UNL     1       3.830   3.983  16.448  0.00  0.00    +0.000 OA
BRANCH  21  26
ATOM     26  O   UNL     1       5.805   5.502  19.749  0.00  0.00    +0.000 OA
ATOM     27  H   UNL     1       6.144   4.799  20.328  0.00  0.00    +0.000 HD
ENDBRANCH  21  26
ENDBRANCH  16  22
ENDBRANCH   1  16
TORSDOF 4
ENDMDL
