MODEL 1
REMARK VINA RESULT:      -6.7      0.000      0.000
REMARK  Name = 
REMARK  10 active torsions:
REMARK  status: ('A' for Active; 'I' for Inactive)
REMARK    1  A    between atoms: C_1  and  O_2
REMARK    2  A    between atoms: O_2  and  C_3
REMARK    3  A    between atoms: C_8  and  O_9
REMARK    4  A    between atoms: O_9  and  C_10
REMARK    5  A    between atoms: C_10  and  C_11
REMARK    6  A    between atoms: C_11  and  C_12
REMARK    7  A    between atoms: C_12  and  C_13
REMARK    8  A    between atoms: C_13  and  O_14
REMARK    9  A    between atoms: O_14  and  N_15
REMARK   10  A    between atoms: C_20  and  C_21
REMARK                            x       y       z     vdW  Elec       q    Type
REMARK                         _______ _______ _______ _____ _____    ______ ____
ROOT
ATOM      1  C   UNL     1       2.876   7.042  18.479  0.00  0.00    +0.000 A 
ATOM      2  C   UNL     1       3.608   7.036  17.286  0.00  0.00    +0.000 A 
ATOM      3  C   UNL     1       4.613   6.088  17.073  0.00  0.00    +0.000 A 
ATOM      4  C   UNL     1       4.907   5.117  18.031  0.00  0.00    +0.000 A 
ATOM      5  C   UNL     1       4.179   5.126  19.227  0.00  0.00    +0.000 A 
ATOM      6  C   UNL     1       3.159   6.069  19.454  0.00  0.00    +0.000 A 
ATOM      7  C   UNL     1       6.021   4.129  17.813  0.00  0.00    +0.000 C 
ATOM      8  O   UNL     1       6.393   4.023  16.437  0.00  0.00    +0.000 OA
ATOM      9  C   UNL     1       6.686   5.295  15.861  0.00  0.00    +0.000 C 
ATOM     10  C   UNL     1       7.229   5.087  14.457  0.00  0.00    +0.000 C 
ATOM     11  C   UNL     1       5.428   6.154  15.841  0.00  0.00    +0.000 C 
ATOM     12  O   UNL     1       5.114   6.911  14.928  0.00  0.00    +0.000 OA
ENDROOT
BRANCH   1  14
ATOM     13  C   UNL     1       1.930   9.143  17.895  0.00  0.00    +0.000 C 
ATOM     14  O   UNL     1       1.953   8.013  18.763  0.00  0.00    +0.000 OA
ENDBRANCH   1  14
BRANCH   6  15
ATOM     15  O   UNL     1       2.563   5.918  20.680  0.00  0.00    +0.000 OA
BRANCH  15  16
ATOM     16  C   UNL     1       1.434   5.049  20.762  0.00  0.00    +0.000 C 
BRANCH  16  17
ATOM     17  C   UNL     1       1.862   3.749  21.445  0.00  0.00    +0.000 C 
BRANCH  17  18
ATOM     18  C   UNL     1       1.572   2.517  20.587  0.00  0.00    +0.000 C 
BRANCH  18  19
ATOM     19  C   UNL     1       0.764   2.866  19.340  0.00  0.00    +0.000 C 
BRANCH  19  20
ATOM     20  O   UNL     1       1.158   1.963  18.310  0.00  0.00    +0.000 OA
BRANCH  20  21
ATOM     21  N   UNL     1       2.331   2.376  17.638  0.00  0.00    +0.000 N 
ATOM     22  O   UNL     1       3.360   1.725  17.844  0.00  0.00    +0.000 OA
ATOM     23  O   UNL     1       2.153   3.361  16.926  0.00  0.00    +0.000 OA
ENDBRANCH  20  21
ENDBRANCH  19  20
ENDBRANCH  18  19
ENDBRANCH  17  18
ENDBRANCH  16  17
ENDBRANCH  15  16
ENDBRANCH   6  15
TORSDOF 8
ENDMDL
MODEL 2
REMARK VINA RESULT:      -6.6      4.677      7.862
REMARK  Name = 
REMARK  10 active torsions:
REMARK  status: ('A' for Active; 'I' for Inactive)
REMARK    1  A    between atoms: C_1  and  O_2
REMARK    2  A    between atoms: O_2  and  C_3
REMARK    3  A    between atoms: C_8  and  O_9
REMARK    4  A    between atoms: O_9  and  C_10
REMARK    5  A    between atoms: C_10  and  C_11
REMARK    6  A    between atoms: C_11  and  C_12
REMARK    7  A    between atoms: C_12  and  C_13
REMARK    8  A    between atoms: C_13  and  O_14
REMARK    9  A    between atoms: O_14  and  N_15
REMARK   10  A    between atoms: C_20  and  C_21
REMARK                            x       y       z     vdW  Elec       q    Type
REMARK                         _______ _______ _______ _____ _____    ______ ____
ROOT
ATOM      1  C   UNL     1       5.709   4.766  16.294  0.00  0.00    +0.000 A 
ATOM      2  C   UNL     1       4.744   3.828  16.680  0.00  0.00    +0.000 A 
ATOM      3  C   UNL     1       3.751   4.169  17.603  0.00  0.00    +0.000 A 
ATOM      4  C   UNL     1       3.683   5.449  18.153  0.00  0.00    +0.000 A 
ATOM      5  C   UNL     1       4.652   6.385  17.772  0.00  0.00    +0.000 A 
ATOM      6  C   UNL     1       5.654   6.061  16.839  0.00  0.00    +0.000 A 
ATOM      7  C   UNL     1       2.638   5.795  19.181  0.00  0.00    +0.000 C 
ATOM      8  O   UNL     1       1.543   4.876  19.172  0.00  0.00    +0.000 OA
ATOM      9  C   UNL     1       1.977   3.522  19.285  0.00  0.00    +0.000 C 
ATOM     10  C   UNL     1       0.758   2.626  19.434  0.00  0.00    +0.000 C 
ATOM     11  C   UNL     1       2.793   3.139  18.057  0.00  0.00    +0.000 C 
ATOM     12  O   UNL     1       2.745   2.046  17.501  0.00  0.00    +0.000 OA
ENDROOT
BRANCH   1  14
ATOM     13  C   UNL     1       6.439   4.235  14.094  0.00  0.00    +0.000 C 
ATOM     14  O   UNL     1       6.753   4.439  15.469  0.00  0.00    +0.000 OA
ENDBRANCH   1  14
BRANCH   6  15
ATOM     15  O   UNL     1       6.508   7.106  16.595  0.00  0.00    +0.000 OA
BRANCH  15  16
ATOM     16  C   UNL     1       7.622   7.266  17.474  0.00  0.00    +0.000 C 
BRANCH  16  17
ATOM     17  C   UNL     1       7.905   8.760  17.641  0.00  0.00    +0.000 C 
BRANCH  17  18
ATOM     18  C   UNL     1       8.888   9.044  18.776  0.00  0.00    +0.000 C 
BRANCH  18  19
ATOM     19  C   UNL     1       9.017  10.538  19.062  0.00  0.00    +0.000 C 
BRANCH  19  20
ATOM     20  O   UNL     1       9.930  11.078  18.111  0.00  0.00    +0.000 OA
BRANCH  20  21
ATOM     21  N   UNL     1      11.082  11.635  18.712  0.00  0.00    +0.000 N 
ATOM     22  O   UNL     1      11.103  11.699  19.944  0.00  0.00    +0.000 OA
ATOM     23  O   UNL     1      11.923  11.994  17.891  0.00  0.00    +0.000 OA
ENDBRANCH  20  21
ENDBRANCH  19  20
ENDBRANCH  18  19
ENDBRANCH  17  18
ENDBRANCH  16  17
ENDBRANCH  15  16
ENDBRANCH   6  15
TORSDOF 8
ENDMDL
MODEL 3
REMARK VINA RESULT:      -6.6      4.926      7.870
REMARK  Name = 
REMARK  10 active torsions:
REMARK  status: ('A' for Active; 'I' for Inactive)
REMARK    1  A    between atoms: C_1  and  O_2
REMARK    2  A    between atoms: O_2  and  C_3
REMARK    3  A    between atoms: C_8  and  O_9
REMARK    4  A    between atoms: O_9  and  C_10
REMARK    5  A    between atoms: C_10  and  C_11
REMARK    6  A    between atoms: C_11  and  C_12
REMARK    7  A    between atoms: C_12  and  C_13
REMARK    8  A    between atoms: C_13  and  O_14
REMARK    9  A    between atoms: O_14  and  N_15
REMARK   10  A    between atoms: C_20  and  C_21
REMARK                            x       y       z     vdW  Elec       q    Type
REMARK                         _______ _______ _______ _____ _____    ______ ____
ROOT
ATOM      1  C   UNL     1       5.776   5.476  15.764  0.00  0.00    +0.000 A 
ATOM      2  C   UNL     1       4.640   4.700  16.020  0.00  0.00    +0.000 A 
ATOM      3  C   UNL     1       4.075   4.665  17.298  0.00  0.00    +0.000 A 
ATOM      4  C   UNL     1       4.615   5.409  18.348  0.00  0.00    +0.000 A 
ATOM      5  C   UNL     1       5.755   6.181  18.094  0.00  0.00    +0.000 A 
ATOM      6  C   UNL     1       6.332   6.232  16.812  0.00  0.00    +0.000 A 
ATOM      7  C   UNL     1       4.028   5.331  19.732  0.00  0.00    +0.000 C 
ATOM      8  O   UNL     1       2.694   4.814  19.728  0.00  0.00    +0.000 OA
ATOM      9  C   UNL     1       2.603   3.570  19.037  0.00  0.00    +0.000 C 
ATOM     10  C   UNL     1       1.202   3.008  19.218  0.00  0.00    +0.000 C 
ATOM     11  C   UNL     1       2.925   3.774  17.563  0.00  0.00    +0.000 C 
ATOM     12  O   UNL     1       2.351   3.208  16.638  0.00  0.00    +0.000 OA
ENDROOT
BRANCH   1  14
ATOM     13  C   UNL     1       6.564   4.184  13.930  0.00  0.00    +0.000 C 
ATOM     14  O   UNL     1       6.414   5.458  14.552  0.00  0.00    +0.000 OA
ENDBRANCH   1  14
BRANCH   6  15
ATOM     15  O   UNL     1       7.439   7.040  16.762  0.00  0.00    +0.000 OA
BRANCH  15  16
ATOM     16  C   UNL     1       7.883   7.626  17.985  0.00  0.00    +0.000 C 
BRANCH  16  17
ATOM     17  C   UNL     1       8.073   9.129  17.770  0.00  0.00    +0.000 C 
BRANCH  17  18
ATOM     18  C   UNL     1       8.924   9.772  18.865  0.00  0.00    +0.000 C 
BRANCH  18  19
ATOM     19  C   UNL     1       9.668  11.006  18.361  0.00  0.00    +0.000 C 
BRANCH  19  20
ATOM     20  O   UNL     1       9.508  12.030  19.339  0.00  0.00    +0.000 OA
BRANCH  20  21
ATOM     21  N   UNL     1      10.446  11.934  20.392  0.00  0.00    +0.000 N 
ATOM     22  O   UNL     1      11.623  11.728  20.084  0.00  0.00    +0.000 OA
ATOM     23  O   UNL     1       9.934  12.070  21.501  0.00  0.00    +0.000 OA
ENDBRANCH  20  21
ENDBRANCH  19  20
ENDBRANCH  18  19
ENDBRANCH  17  18
ENDBRANCH  16  17
ENDBRANCH  15  16
ENDBRANCH   6  15
TORSDOF 8
ENDMDL
MODEL 4
REMARK VINA RESULT:      -6.5      4.852      7.942
REMARK  Name = 
REMARK  10 active torsions:
REMARK  status: ('A' for Active; 'I' for Inactive)
REMARK    1  A    between atoms: C_1  and  O_2
REMARK    2  A    between atoms: O_2  and  C_3
REMARK    3  A    between atoms: C_8  and  O_9
REMARK    4  A    between atoms: O_9  and  C_10
REMARK    5  A    between atoms: C_10  and  C_11
REMARK    6  A    between atoms: C_11  and  C_12
REMARK    7  A    between atoms: C_12  and  C_13
REMARK    8  A    between atoms: C_13  and  O_14
REMARK    9  A    between atoms: O_14  and  N_15
REMARK   10  A    between atoms: C_20  and  C_21
REMARK                            x       y       z     vdW  Elec       q    Type
REMARK                         _______ _______ _______ _____ _____    ______ ____
ROOT
ATOM      1  C   UNL     1       5.886   5.319  15.793  0.00  0.00    +0.000 A 
ATOM      2  C   UNL     1       4.715   4.592  16.032  0.00  0.00    +0.000 A 
ATOM      3  C   UNL     1       4.119   4.599  17.297  0.00  0.00    +0.000 A 
ATOM      4  C   UNL     1       4.663   5.336  18.349  0.00  0.00    +0.000 A 
ATOM      5  C   UNL     1       5.838   6.059  18.112  0.00  0.00    +0.000 A 
ATOM      6  C   UNL     1       6.447   6.069  16.843  0.00  0.00    +0.000 A 
ATOM      7  C   UNL     1       4.041   5.302  19.719  0.00  0.00    +0.000 C 
ATOM      8  O   UNL     1       2.689   4.838  19.691  0.00  0.00    +0.000 OA
ATOM      9  C   UNL     1       2.565   3.588  19.016  0.00  0.00    +0.000 C 
ATOM     10  C   UNL     1       1.139   3.084  19.171  0.00  0.00    +0.000 C 
ATOM     11  C   UNL     1       2.929   3.758  17.547  0.00  0.00    +0.000 C 
ATOM     12  O   UNL     1       2.355   3.200  16.616  0.00  0.00    +0.000 OA
ENDROOT
BRANCH   1  14
ATOM     13  C   UNL     1       6.397   4.059  13.843  0.00  0.00    +0.000 C 
ATOM     14  O   UNL     1       6.551   5.258  14.597  0.00  0.00    +0.000 OA
ENDBRANCH   1  14
BRANCH   6  15
ATOM     15  O   UNL     1       7.586   6.831  16.808  0.00  0.00    +0.000 OA
BRANCH  15  16
ATOM     16  C   UNL     1       7.963   7.508  18.007  0.00  0.00    +0.000 C 
BRANCH  16  17
ATOM     17  C   UNL     1       8.010   9.012  17.728  0.00  0.00    +0.000 C 
BRANCH  17  18
ATOM     18  C   UNL     1       8.887   9.763  18.729  0.00  0.00    +0.000 C 
BRANCH  18  19
ATOM     19  C   UNL     1       9.360  11.108  18.180  0.00  0.00    +0.000 C 
BRANCH  19  20
ATOM     20  O   UNL     1       9.583  11.969  19.294  0.00  0.00    +0.000 OA
BRANCH  20  21
ATOM     21  N   UNL     1       9.361  13.330  18.987  0.00  0.00    +0.000 N 
ATOM     22  O   UNL     1       8.507  13.927  19.649  0.00  0.00    +0.000 OA
ATOM     23  O   UNL     1      10.071  13.736  18.070  0.00  0.00    +0.000 OA
ENDBRANCH  20  21
ENDBRANCH  19  20
ENDBRANCH  18  19
ENDBRANCH  17  18
ENDBRANCH  16  17
ENDBRANCH  15  16
ENDBRANCH   6  15
TORSDOF 8
ENDMDL
MODEL 5
REMARK VINA RESULT:      -6.3      2.583      6.266
REMARK  Name = 
REMARK  10 active torsions:
REMARK  status: ('A' for Active; 'I' for Inactive)
REMARK    1  A    between atoms: C_1  and  O_2
REMARK    2  A    between atoms: O_2  and  C_3
REMARK    3  A    between atoms: C_8  and  O_9
REMARK    4  A    between atoms: O_9  and  C_10
REMARK    5  A    between atoms: C_10  and  C_11
REMARK    6  A    between atoms: C_11  and  C_12
REMARK    7  A    between atoms: C_12  and  C_13
REMARK    8  A    between atoms: C_13  and  O_14
REMARK    9  A    between atoms: O_14  and  N_15
REMARK   10  A    between atoms: C_20  and  C_21
REMARK                            x       y       z     vdW  Elec       q    Type
REMARK                         _______ _______ _______ _____ _____    ______ ____
ROOT
ATOM      1  C   UNL     1       2.082   5.853  20.407  0.00  0.00    +0.000 A 
ATOM      2  C   UNL     1       1.454   7.025  20.844  0.00  0.00    +0.000 A 
ATOM      3  C   UNL     1       1.408   8.155  20.024  0.00  0.00    +0.000 A 
ATOM      4  C   UNL     1       1.970   8.146  18.747  0.00  0.00    +0.000 A 
ATOM      5  C   UNL     1       2.603   6.976  18.311  0.00  0.00    +0.000 A 
ATOM      6  C   UNL     1       2.653   5.827  19.122  0.00  0.00    +0.000 A 
ATOM      7  C   UNL     1       1.955   9.382  17.888  0.00  0.00    +0.000 C 
ATOM      8  O   UNL     1       0.976  10.331  18.317  0.00  0.00    +0.000 OA
ATOM      9  C   UNL     1       1.104  10.645  19.702  0.00  0.00    +0.000 C 
ATOM     10  C   UNL     1       0.144  11.774  20.042  0.00  0.00    +0.000 C 
ATOM     11  C   UNL     1       0.812   9.407  20.540  0.00  0.00    +0.000 C 
ATOM     12  O   UNL     1       0.199   9.412  21.603  0.00  0.00    +0.000 OA
ENDROOT
BRANCH   1  14
ATOM     13  C   UNL     1       1.348   3.667  20.988  0.00  0.00    +0.000 C 
ATOM     14  O   UNL     1       2.233   4.760  21.219  0.00  0.00    +0.000 OA
ENDBRANCH   1  14
BRANCH   6  15
ATOM     15  O   UNL     1       3.314   4.786  18.523  0.00  0.00    +0.000 OA
BRANCH  15  16
ATOM     16  C   UNL     1       3.951   5.041  17.272  0.00  0.00    +0.000 C 
BRANCH  16  17
ATOM     17  C   UNL     1       5.058   4.006  17.063  0.00  0.00    +0.000 C 
BRANCH  17  18
ATOM     18  C   UNL     1       6.190   4.533  16.182  0.00  0.00    +0.000 C 
BRANCH  18  19
ATOM     19  C   UNL     1       7.506   4.650  16.948  0.00  0.00    +0.000 C 
BRANCH  19  20
ATOM     20  O   UNL     1       7.208   4.496  18.333  0.00  0.00    +0.000 OA
BRANCH  20  21
ATOM     21  N   UNL     1       7.635   5.595  19.111  0.00  0.00    +0.000 N 
ATOM     22  O   UNL     1       7.975   6.617  18.509  0.00  0.00    +0.000 OA
ATOM     23  O   UNL     1       7.611   5.364  20.318  0.00  0.00    +0.000 OA
ENDBRANCH  20  21
ENDBRANCH  19  20
ENDBRANCH  18  19
ENDBRANCH  17  18
ENDBRANCH  16  17
ENDBRANCH  15  16
ENDBRANCH   6  15
TORSDOF 8
ENDMDL
MODEL 6
REMARK VINA RESULT:      -6.3      3.292      6.504
REMARK  Name = 
REMARK  10 active torsions:
REMARK  status: ('A' for Active; 'I' for Inactive)
REMARK    1  A    between atoms: C_1  and  O_2
REMARK    2  A    between atoms: O_2  and  C_3
REMARK    3  A    between atoms: C_8  and  O_9
REMARK    4  A    between atoms: O_9  and  C_10
REMARK    5  A    between atoms: C_10  and  C_11
REMARK    6  A    between atoms: C_11  and  C_12
REMARK    7  A    between atoms: C_12  and  C_13
REMARK    8  A    between atoms: C_13  and  O_14
REMARK    9  A    between atoms: O_14  and  N_15
REMARK   10  A    between atoms: C_20  and  C_21
REMARK                            x       y       z     vdW  Elec       q    Type
REMARK                         _______ _______ _______ _____ _____    ______ ____
ROOT
ATOM      1  C   UNL     1       6.291   5.230  18.245  0.00  0.00    +0.000 A 
ATOM      2  C   UNL     1       5.229   5.094  19.146  0.00  0.00    +0.000 A 
ATOM      3  C   UNL     1       4.065   4.415  18.776  0.00  0.00    +0.000 A 
ATOM      4  C   UNL     1       3.932   3.845  17.510  0.00  0.00    +0.000 A 
ATOM      5  C   UNL     1       4.992   3.986  16.606  0.00  0.00    +0.000 A 
ATOM      6  C   UNL     1       6.174   4.660  16.965  0.00  0.00    +0.000 A 
ATOM      7  C   UNL     1       2.658   3.155  17.103  0.00  0.00    +0.000 C 
ATOM      8  O   UNL     1       1.857   2.784  18.228  0.00  0.00    +0.000 OA
ATOM      9  C   UNL     1       1.614   3.887  19.100  0.00  0.00    +0.000 C 
ATOM     10  C   UNL     1       0.628   3.456  20.174  0.00  0.00    +0.000 C 
ATOM     11  C   UNL     1       2.926   4.355  19.716  0.00  0.00    +0.000 C 
ATOM     12  O   UNL     1       3.056   4.734  20.876  0.00  0.00    +0.000 OA
ENDROOT
BRANCH   1  14
ATOM     13  C   UNL     1       8.026   5.719  19.796  0.00  0.00    +0.000 C 
ATOM     14  O   UNL     1       7.406   5.972  18.538  0.00  0.00    +0.000 OA
ENDBRANCH   1  14
BRANCH   6  15
ATOM     15  O   UNL     1       7.093   4.695  15.948  0.00  0.00    +0.000 OA
BRANCH  15  16
ATOM     16  C   UNL     1       6.628   5.068  14.651  0.00  0.00    +0.000 C 
BRANCH  16  17
ATOM     17  C   UNL     1       6.640   3.832  13.750  0.00  0.00    +0.000 C 
BRANCH  17  18
ATOM     18  C   UNL     1       5.336   3.665  12.971  0.00  0.00    +0.000 C 
BRANCH  18  19
ATOM     19  C   UNL     1       5.582   3.227  11.529  0.00  0.00    +0.000 C 
BRANCH  19  20
ATOM     20  O   UNL     1       5.297   1.833  11.452  0.00  0.00    +0.000 OA
BRANCH  20  21
ATOM     21  N   UNL     1       6.424   1.061  11.092  0.00  0.00    +0.000 N 
ATOM     22  O   UNL     1       7.494   1.658  10.939  0.00  0.00    +0.000 OA
ATOM     23  O   UNL     1       6.167  -0.134  10.972  0.00  0.00    +0.000 OA
ENDBRANCH  20  21
ENDBRANCH  19  20
ENDBRANCH  18  19
ENDBRANCH  17  18
ENDBRANCH  16  17
ENDBRANCH  15  16
ENDBRANCH   6  15
TORSDOF 8
ENDMDL
MODEL 7
REMARK VINA RESULT:      -6.3      2.140      5.958
REMARK  Name = 
REMARK  10 active torsions:
REMARK  status: ('A' for Active; 'I' for Inactive)
REMARK    1  A    between atoms: C_1  and  O_2
REMARK    2  A    between atoms: O_2  and  C_3
REMARK    3  A    between atoms: C_8  and  O_9
REMARK    4  A    between atoms: O_9  and  C_10
REMARK    5  A    between atoms: C_10  and  C_11
REMARK    6  A    between atoms: C_11  and  C_12
REMARK    7  A    between atoms: C_12  and  C_13
REMARK    8  A    between atoms: C_13  and  O_14
REMARK    9  A    between atoms: O_14  and  N_15
REMARK   10  A    between atoms: C_20  and  C_21
REMARK                            x       y       z     vdW  Elec       q    Type
REMARK                         _______ _______ _______ _____ _____    ______ ____
ROOT
ATOM      1  C   UNL     1       2.757   5.032  19.842  0.00  0.00    +0.000 A 
ATOM      2  C   UNL     1       1.967   6.033  20.419  0.00  0.00    +0.000 A 
ATOM      3  C   UNL     1       1.795   7.262  19.776  0.00  0.00    +0.000 A 
ATOM      4  C   UNL     1       2.390   7.522  18.542  0.00  0.00    +0.000 A 
ATOM      5  C   UNL     1       3.185   6.523  17.966  0.00  0.00    +0.000 A 
ATOM      6  C   UNL     1       3.363   5.278  18.597  0.00  0.00    +0.000 A 
ATOM      7  C   UNL     1       2.237   8.865  17.878  0.00  0.00    +0.000 C 
ATOM      8  O   UNL     1       1.128   9.604  18.396  0.00  0.00    +0.000 OA
ATOM      9  C   UNL     1       1.174   9.713  19.817  0.00  0.00    +0.000 C 
ATOM     10  C   UNL     1       0.064  10.645  20.275  0.00  0.00    +0.000 C 
ATOM     11  C   UNL     1       1.024   8.332  20.444  0.00  0.00    +0.000 C 
ATOM     12  O   UNL     1       0.386   8.095  21.465  0.00  0.00    +0.000 OA
ENDROOT
BRANCH   1  14
ATOM     13  C   UNL     1       2.172   3.512  21.575  0.00  0.00    +0.000 C 
ATOM     14  O   UNL     1       3.028   3.854  20.487  0.00  0.00    +0.000 OA
ENDBRANCH   1  14
BRANCH   6  15
ATOM     15  O   UNL     1       4.173   4.434  17.882  0.00  0.00    +0.000 OA
BRANCH  15  16
ATOM     16  C   UNL     1       5.388   4.007  18.498  0.00  0.00    +0.000 C 
BRANCH  16  17
ATOM     17  C   UNL     1       6.106   5.232  19.068  0.00  0.00    +0.000 C 
BRANCH  17  18
ATOM     18  C   UNL     1       7.410   5.537  18.331  0.00  0.00    +0.000 C 
BRANCH  18  19
ATOM     19  C   UNL     1       7.195   6.488  17.155  0.00  0.00    +0.000 C 
BRANCH  19  20
ATOM     20  O   UNL     1       7.443   5.752  15.960  0.00  0.00    +0.000 OA
BRANCH  20  21
ATOM     21  N   UNL     1       6.256   5.370  15.295  0.00  0.00    +0.000 N 
ATOM     22  O   UNL     1       6.200   4.219  14.854  0.00  0.00    +0.000 OA
ATOM     23  O   UNL     1       5.424   6.273  15.244  0.00  0.00    +0.000 OA
ENDBRANCH  20  21
ENDBRANCH  19  20
ENDBRANCH  18  19
ENDBRANCH  17  18
ENDBRANCH  16  17
ENDBRANCH  15  16
ENDBRANCH   6  15
TORSDOF 8
ENDMDL
MODEL 8
REMARK VINA RESULT:      -6.2      3.290      6.413
REMARK  Name = 
REMARK  10 active torsions:
REMARK  status: ('A' for Active; 'I' for Inactive)
REMARK    1  A    between atoms: C_1  and  O_2
REMARK    2  A    between atoms: O_2  and  C_3
REMARK    3  A    between atoms: C_8  and  O_9
REMARK    4  A    between atoms: O_9  and  C_10
REMARK    5  A    between atoms: C_10  and  C_11
REMARK    6  A    between atoms: C_11  and  C_12
REMARK    7  A    between atoms: C_12  and  C_13
REMARK    8  A    between atoms: C_13  and  O_14
REMARK    9  A    between atoms: O_14  and  N_15
REMARK   10  A    between atoms: C_20  and  C_21
REMARK                            x       y       z     vdW  Elec       q    Type
REMARK                         _______ _______ _______ _____ _____    ______ ____
ROOT
ATOM      1  C   UNL     1       4.990   5.908  17.292  0.00  0.00    +0.000 A 
ATOM      2  C   UNL     1       4.298   5.663  18.483  0.00  0.00    +0.000 A 
ATOM      3  C   UNL     1       3.547   4.495  18.642  0.00  0.00    +0.000 A 
ATOM      4  C   UNL     1       3.475   3.539  17.629  0.00  0.00    +0.000 A 
ATOM      5  C   UNL     1       4.162   3.786  16.435  0.00  0.00    +0.000 A 
ATOM      6  C   UNL     1       4.928   4.953  16.261  0.00  0.00    +0.000 A 
ATOM      7  C   UNL     1       2.627   2.305  17.790  0.00  0.00    +0.000 C 
ATOM      8  O   UNL     1       2.311   2.037  19.159  0.00  0.00    +0.000 OA
ATOM      9  C   UNL     1       1.737   3.170  19.809  0.00  0.00    +0.000 C 
ATOM     10  C   UNL     1       1.280   2.760  21.200  0.00  0.00    +0.000 C 
ATOM     11  C   UNL     1       2.759   4.297  19.877  0.00  0.00    +0.000 C 
ATOM     12  O   UNL     1       2.901   5.054  20.833  0.00  0.00    +0.000 OA
ENDROOT
BRANCH   1  14
ATOM     13  C   UNL     1       7.005   7.151  17.517  0.00  0.00    +0.000 C 
ATOM     14  O   UNL     1       5.655   7.085  17.064  0.00  0.00    +0.000 OA
ENDBRANCH   1  14
BRANCH   6  15
ATOM     15  O   UNL     1       5.524   5.017  15.028  0.00  0.00    +0.000 OA
BRANCH  15  16
ATOM     16  C   UNL     1       6.154   3.834  14.538  0.00  0.00    +0.000 C 
BRANCH  16  17
ATOM     17  C   UNL     1       6.701   4.112  13.137  0.00  0.00    +0.000 C 
BRANCH  17  18
ATOM     18  C   UNL     1       6.104   3.181  12.082  0.00  0.00    +0.000 C 
BRANCH  18  19
ATOM     19  C   UNL     1       4.591   3.352  11.958  0.00  0.00    +0.000 C 
BRANCH  19  20
ATOM     20  O   UNL     1       4.339   4.042  10.737  0.00  0.00    +0.000 OA
BRANCH  20  21
ATOM     21  N   UNL     1       3.196   3.561  10.061  0.00  0.00    +0.000 N 
ATOM     22  O   UNL     1       2.562   2.649  10.599  0.00  0.00    +0.000 OA
ATOM     23  O   UNL     1       2.994   4.137   8.994  0.00  0.00    +0.000 OA
ENDBRANCH  20  21
ENDBRANCH  19  20
ENDBRANCH  18  19
ENDBRANCH  17  18
ENDBRANCH  16  17
ENDBRANCH  15  16
ENDBRANCH   6  15
TORSDOF 8
ENDMDL
MODEL 9
REMARK VINA RESULT:      -6.2      4.478      7.397
REMARK  Name = 
REMARK  10 active torsions:
REMARK  status: ('A' for Active; 'I' for Inactive)
REMARK    1  A    between atoms: C_1  and  O_2
REMARK    2  A    between atoms: O_2  and  C_3
REMARK    3  A    between atoms: C_8  and  O_9
REMARK    4  A    between atoms: O_9  and  C_10
REMARK    5  A    between atoms: C_10  and  C_11
REMARK    6  A    between atoms: C_11  and  C_12
REMARK    7  A    between atoms: C_12  and  C_13
REMARK    8  A    between atoms: C_13  and  O_14
REMARK    9  A    between atoms: O_14  and  N_15
REMARK   10  A    between atoms: C_20  and  C_21
REMARK                            x       y       z     vdW  Elec       q    Type
REMARK                         _______ _______ _______ _____ _____    ______ ____
ROOT
ATOM      1  C   UNL     1       3.709   6.794  17.971  0.00  0.00    +0.000 A 
ATOM      2  C   UNL     1       2.802   6.213  18.865  0.00  0.00    +0.000 A 
ATOM      3  C   UNL     1       3.045   4.947  19.403  0.00  0.00    +0.000 A 
ATOM      4  C   UNL     1       4.199   4.233  19.080  0.00  0.00    +0.000 A 
ATOM      5  C   UNL     1       5.104   4.811  18.181  0.00  0.00    +0.000 A 
ATOM      6  C   UNL     1       4.878   6.087  17.635  0.00  0.00    +0.000 A 
ATOM      7  C   UNL     1       4.432   2.851  19.628  0.00  0.00    +0.000 C 
ATOM      8  O   UNL     1       3.629   2.580  20.780  0.00  0.00    +0.000 OA
ATOM      9  C   UNL     1       2.246   2.835  20.541  0.00  0.00    +0.000 C 
ATOM     10  C   UNL     1       1.445   2.370  21.746  0.00  0.00    +0.000 C 
ATOM     11  C   UNL     1       2.033   4.321  20.280  0.00  0.00    +0.000 C 
ATOM     12  O   UNL     1       1.073   4.969  20.684  0.00  0.00    +0.000 OA
ENDROOT
BRANCH   1  14
ATOM     13  C   UNL     1       2.317   8.714  17.801  0.00  0.00    +0.000 C 
ATOM     14  O   UNL     1       3.456   7.988  17.348  0.00  0.00    +0.000 OA
ENDBRANCH   1  14
BRANCH   6  15
ATOM     15  O   UNL     1       5.873   6.481  16.778  0.00  0.00    +0.000 OA
BRANCH  15  16
ATOM     16  C   UNL     1       7.158   6.748  17.338  0.00  0.00    +0.000 C 
BRANCH  16  17
ATOM     17  C   UNL     1       7.322   8.261  17.493  0.00  0.00    +0.000 C 
BRANCH  17  18
ATOM     18  C   UNL     1       8.487   8.630  18.411  0.00  0.00    +0.000 C 
BRANCH  18  19
ATOM     19  C   UNL     1       8.853  10.109  18.306  0.00  0.00    +0.000 C 
BRANCH  19  20
ATOM     20  O   UNL     1       9.670  10.427  19.429  0.00  0.00    +0.000 OA
BRANCH  20  21
ATOM     21  N   UNL     1      10.735  11.298  19.104  0.00  0.00    +0.000 N 
ATOM     22  O   UNL     1      10.930  11.530  17.908  0.00  0.00    +0.000 OA
ATOM     23  O   UNL     1      11.337  11.707  20.094  0.00  0.00    +0.000 OA
ENDBRANCH  20  21
ENDBRANCH  19  20
ENDBRANCH  18  19
ENDBRANCH  17  18
ENDBRANCH  16  17
ENDBRANCH  15  16
ENDBRANCH   6  15
TORSDOF 8
ENDMDL
