MODEL 1
REMARK VINA RESULT:      -9.0      0.000      0.000
REMARK  Name = 
REMARK  8 active torsions:
REMARK  status: ('A' for Active; 'I' for Inactive)
REMARK    1  A    between atoms: C_1  and  C_2
REMARK    2  A    between atoms: C_4  and  C_5
REMARK    3  A    between atoms: C_10  and  N_11
REMARK    4  A    between atoms: C_12  and  C_14
REMARK    5  A    between atoms: C_14  and  C_15
REMARK    6  A    between atoms: C_21  and  C_22
REMARK    7  A    between atoms: C_22  and  N_23
REMARK    8  A    between atoms: C_24  and  C_26
REMARK                            x       y       z     vdW  Elec       q    Type
REMARK                         _______ _______ _______ _____ _____    ______ ____
ROOT
ATOM      1  C   UNL     1       2.131   9.324  17.606  0.00  0.00    +0.000 C 
ATOM      2  C   UNL     1       2.027   8.510  18.828  0.00  0.00    +0.000 A 
ATOM      3  O   UNL     1       2.641   7.291  18.807  0.00  0.00    +0.000 OA
ATOM      4  C   UNL     1       2.281   6.699  19.992  0.00  0.00    +0.000 A 
ATOM      5  N   UNL     1       1.544   7.474  20.767  0.00  0.00    +0.000 NA
ATOM      6  C   UNL     1       1.371   8.637  20.039  0.00  0.00    +0.000 A 
ENDROOT
BRANCH   4   7
ATOM      7  C   UNL     1       2.643   5.290  20.146  0.00  0.00    +0.000 A 
ATOM      8  C   UNL     1       1.771   4.493  20.920  0.00  0.00    +0.000 A 
ATOM      9  C   UNL     1       1.989   3.126  21.088  0.00  0.00    +0.000 A 
ATOM     10  C   UNL     1       3.104   2.538  20.513  0.00  0.00    +0.000 A 
ATOM     11  C   UNL     1       3.984   3.305  19.755  0.00  0.00    +0.000 A 
ATOM     12  C   UNL     1       3.756   4.671  19.527  0.00  0.00    +0.000 A 
BRANCH  12  13
ATOM     13  N   UNL     1       4.646   5.418  18.705  0.00  0.00    +0.000 N 
ATOM     14  C   UNL     1       6.000   5.610  18.923  0.00  0.00    +0.000 C 
ATOM     15  O   UNL     1       6.675   5.095  19.811  0.00  0.00    +0.000 OA
ATOM     16  H   UNL     1       4.283   5.692  17.796  0.00  0.00    +0.000 HD
BRANCH  14  17
ATOM     17  C   UNL     1       6.662   6.532  17.916  0.00  0.00    +0.000 C 
BRANCH  17  18
ATOM     18  C   UNL     1       6.724   5.927  16.521  0.00  0.00    +0.000 C 
ATOM     19  C   UNL     1       7.032   4.429  16.510  0.00  0.00    +0.000 C 
ATOM     20  C   UNL     1       6.631   3.995  15.108  0.00  0.00    +0.000 C 
ATOM     21  C   UNL     1       5.497   4.931  14.691  0.00  0.00    +0.000 C 
ATOM     22  C   UNL     1       5.385   5.988  15.788  0.00  0.00    +0.000 C 
ENDBRANCH  17  18
ENDBRANCH  14  17
ENDBRANCH  12  13
ENDBRANCH   4   7
BRANCH   6  23
ATOM     23  C   UNL     1       0.501   9.739  20.529  0.00  0.00    +0.000 C 
BRANCH  23  24
ATOM     24  N   UNL     1      -0.771   9.730  19.847  0.00  0.00    +0.000 N 
ATOM     25  C   UNL     1      -1.096  10.635  18.863  0.00  0.00    +0.000 C 
ATOM     26  O   UNL     1      -0.351  11.543  18.514  0.00  0.00    +0.000 OA
ATOM     27  H   UNL     1      -1.519   9.135  20.193  0.00  0.00    +0.000 HD
BRANCH  25  28
ATOM     28  C   UNL     1      -2.429  10.333  18.165  0.00  0.00    +0.000 C 
ATOM     29  C   UNL     1      -2.258  10.081  16.676  0.00  0.00    +0.000 C 
ATOM     30  C   UNL     1      -3.624  10.423  16.140  0.00  0.00    +0.000 C 
ATOM     31  C   UNL     1      -4.038  11.578  17.027  0.00  0.00    +0.000 C 
ATOM     32  O   UNL     1      -3.397  11.387  18.297  0.00  0.00    +0.000 OA
ENDBRANCH  25  28
ENDBRANCH  23  24
ENDBRANCH   6  23
TORSDOF 7
ENDMDL
MODEL 2
REMARK VINA RESULT:      -8.6      2.708      8.241
REMARK  Name = 
REMARK  8 active torsions:
REMARK  status: ('A' for Active; 'I' for Inactive)
REMARK    1  A    between atoms: C_1  and  C_2
REMARK    2  A    between atoms: C_4  and  C_5
REMARK    3  A    between atoms: C_10  and  N_11
REMARK    4  A    between atoms: C_12  and  C_14
REMARK    5  A    between atoms: C_14  and  C_15
REMARK    6  A    between atoms: C_21  and  C_22
REMARK    7  A    between atoms: C_22  and  N_23
REMARK    8  A    between atoms: C_24  and  C_26
REMARK                            x       y       z     vdW  Elec       q    Type
REMARK                         _______ _______ _______ _____ _____    ______ ____
ROOT
ATOM      1  C   UNL     1       6.701   7.368  17.419  0.00  0.00    +0.000 C 
ATOM      2  C   UNL     1       5.943   6.109  17.494  0.00  0.00    +0.000 A 
ATOM      3  O   UNL     1       4.879   6.083  18.349  0.00  0.00    +0.000 OA
ATOM      4  C   UNL     1       4.444   4.782  18.325  0.00  0.00    +0.000 A 
ATOM      5  N   UNL     1       5.115   4.015  17.483  0.00  0.00    +0.000 NA
ATOM      6  C   UNL     1       6.078   4.848  16.943  0.00  0.00    +0.000 A 
ENDROOT
BRANCH   4   7
ATOM      7  C   UNL     1       3.426   4.422  19.313  0.00  0.00    +0.000 A 
ATOM      8  C   UNL     1       3.584   3.180  19.963  0.00  0.00    +0.000 A 
ATOM      9  C   UNL     1       2.704   2.761  20.960  0.00  0.00    +0.000 A 
ATOM     10  C   UNL     1       1.626   3.563  21.299  0.00  0.00    +0.000 A 
ATOM     11  C   UNL     1       1.442   4.788  20.663  0.00  0.00    +0.000 A 
ATOM     12  C   UNL     1       2.346   5.255  19.695  0.00  0.00    +0.000 A 
BRANCH  12  13
ATOM     13  N   UNL     1       2.159   6.534  19.100  0.00  0.00    +0.000 N 
ATOM     14  C   UNL     1       1.888   7.718  19.766  0.00  0.00    +0.000 C 
ATOM     15  O   UNL     1       1.852   7.877  20.983  0.00  0.00    +0.000 OA
ATOM     16  H   UNL     1       2.412   6.606  18.119  0.00  0.00    +0.000 HD
BRANCH  14  17
ATOM     17  C   UNL     1       1.650   8.901  18.846  0.00  0.00    +0.000 C 
BRANCH  17  18
ATOM     18  C   UNL     1       0.465   9.753  19.283  0.00  0.00    +0.000 C 
ATOM     19  C   UNL     1       0.861  11.112  19.858  0.00  0.00    +0.000 C 
ATOM     20  C   UNL     1      -0.438  11.906  19.818  0.00  0.00    +0.000 C 
ATOM     21  C   UNL     1      -1.226  11.352  18.631  0.00  0.00    +0.000 C 
ATOM     22  C   UNL     1      -0.444  10.144  18.120  0.00  0.00    +0.000 C 
ENDBRANCH  17  18
ENDBRANCH  14  17
ENDBRANCH  12  13
ENDBRANCH   4   7
BRANCH   6  23
ATOM     23  C   UNL     1       7.117   4.333  16.011  0.00  0.00    +0.000 C 
BRANCH  23  24
ATOM     24  N   UNL     1       6.551   4.061  14.712  0.00  0.00    +0.000 N 
ATOM     25  C   UNL     1       7.041   4.619  13.553  0.00  0.00    +0.000 C 
ATOM     26  O   UNL     1       7.968   5.419  13.535  0.00  0.00    +0.000 OA
ATOM     27  H   UNL     1       5.670   3.559  14.645  0.00  0.00    +0.000 HD
BRANCH  25  28
ATOM     28  C   UNL     1       6.394   4.060  12.279  0.00  0.00    +0.000 C 
ATOM     29  C   UNL     1       4.905   3.808  12.448  0.00  0.00    +0.000 C 
ATOM     30  C   UNL     1       4.643   2.756  11.402  0.00  0.00    +0.000 C 
ATOM     31  C   UNL     1       5.915   1.937  11.443  0.00  0.00    +0.000 C 
ATOM     32  O   UNL     1       6.974   2.821  11.838  0.00  0.00    +0.000 OA
ENDBRANCH  25  28
ENDBRANCH  23  24
ENDBRANCH   6  23
TORSDOF 7
ENDMDL
MODEL 3
REMARK VINA RESULT:      -8.4      2.555      5.021
REMARK  Name = 
REMARK  8 active torsions:
REMARK  status: ('A' for Active; 'I' for Inactive)
REMARK    1  A    between atoms: C_1  and  C_2
REMARK    2  A    between atoms: C_4  and  C_5
REMARK    3  A    between atoms: C_10  and  N_11
REMARK    4  A    between atoms: C_12  and  C_14
REMARK    5  A    between atoms: C_14  and  C_15
REMARK    6  A    between atoms: C_21  and  C_22
REMARK    7  A    between atoms: C_22  and  N_23
REMARK    8  A    between atoms: C_24  and  C_26
REMARK                            x       y       z     vdW  Elec       q    Type
REMARK                         _______ _______ _______ _____ _____    ______ ____
ROOT
ATOM      1  C   UNL     1       1.528   9.234  17.835  0.00  0.00    +0.000 C 
ATOM      2  C   UNL     1       2.389   8.118  18.257  0.00  0.00    +0.000 A 
ATOM      3  O   UNL     1       3.331   7.698  17.361  0.00  0.00    +0.000 OA
ATOM      4  C   UNL     1       3.890   6.586  17.940  0.00  0.00    +0.000 A 
ATOM      5  N   UNL     1       3.413   6.319  19.143  0.00  0.00    +0.000 NA
ATOM      6  C   UNL     1       2.452   7.289  19.361  0.00  0.00    +0.000 A 
ENDROOT
BRANCH   4   7
ATOM      7  C   UNL     1       4.802   5.810  17.100  0.00  0.00    +0.000 A 
ATOM      8  C   UNL     1       5.991   6.452  16.692  0.00  0.00    +0.000 A 
ATOM      9  C   UNL     1       6.956   5.790  15.935  0.00  0.00    +0.000 A 
ATOM     10  C   UNL     1       6.732   4.480  15.540  0.00  0.00    +0.000 A 
ATOM     11  C   UNL     1       5.562   3.828  15.921  0.00  0.00    +0.000 A 
ATOM     12  C   UNL     1       4.601   4.458  16.728  0.00  0.00    +0.000 A 
BRANCH  12  13
ATOM     13  N   UNL     1       3.439   3.748  17.143  0.00  0.00    +0.000 N 
ATOM     14  C   UNL     1       3.404   2.472  17.679  0.00  0.00    +0.000 C 
ATOM     15  O   UNL     1       4.374   1.777  17.970  0.00  0.00    +0.000 OA
ATOM     16  H   UNL     1       2.584   4.295  17.199  0.00  0.00    +0.000 HD
BRANCH  14  17
ATOM     17  C   UNL     1       2.003   1.951  17.938  0.00  0.00    +0.000 C 
BRANCH  17  18
ATOM     18  C   UNL     1       1.512   2.265  19.344  0.00  0.00    +0.000 C 
ATOM     19  C   UNL     1       2.611   2.226  20.406  0.00  0.00    +0.000 C 
ATOM     20  C   UNL     1       1.991   2.960  21.586  0.00  0.00    +0.000 C 
ATOM     21  C   UNL     1       1.022   3.976  20.981  0.00  0.00    +0.000 C 
ATOM     22  C   UNL     1       0.979   3.690  19.482  0.00  0.00    +0.000 C 
ENDBRANCH  17  18
ENDBRANCH  14  17
ENDBRANCH  12  13
ENDBRANCH   4   7
BRANCH   6  23
ATOM     23  C   UNL     1       1.598   7.277  20.580  0.00  0.00    +0.000 C 
BRANCH  23  24
ATOM     24  N   UNL     1       1.280   8.621  20.996  0.00  0.00    +0.000 N 
ATOM     25  C   UNL     1       0.098   8.949  21.621  0.00  0.00    +0.000 C 
ATOM     26  O   UNL     1      -0.793   8.137  21.837  0.00  0.00    +0.000 OA
ATOM     27  H   UNL     1       1.873   9.390  20.697  0.00  0.00    +0.000 HD
BRANCH  25  28
ATOM     28  C   UNL     1       0.048  10.398  22.122  0.00  0.00    +0.000 C 
ATOM     29  C   UNL     1      -1.085  10.631  23.108  0.00  0.00    +0.000 C 
ATOM     30  C   UNL     1      -1.322  12.112  22.972  0.00  0.00    +0.000 C 
ATOM     31  C   UNL     1      -1.074  12.344  21.497  0.00  0.00    +0.000 C 
ATOM     32  O   UNL     1      -0.117  11.363  21.070  0.00  0.00    +0.000 OA
ENDBRANCH  25  28
ENDBRANCH  23  24
ENDBRANCH   6  23
TORSDOF 7
ENDMDL
MODEL 4
REMARK VINA RESULT:      -8.4      2.285      2.995
REMARK  Name = 
REMARK  8 active torsions:
REMARK  status: ('A' for Active; 'I' for Inactive)
REMARK    1  A    between atoms: C_1  and  C_2
REMARK    2  A    between atoms: C_4  and  C_5
REMARK    3  A    between atoms: C_10  and  N_11
REMARK    4  A    between atoms: C_12  and  C_14
REMARK    5  A    between atoms: C_14  and  C_15
REMARK    6  A    between atoms: C_21  and  C_22
REMARK    7  A    between atoms: C_22  and  N_23
REMARK    8  A    between atoms: C_24  and  C_26
REMARK                            x       y       z     vdW  Elec       q    Type
REMARK                         _______ _______ _______ _____ _____    ______ ____
ROOT
ATOM      1  C   UNL     1       1.692   9.255  17.650  0.00  0.00    +0.000 C 
ATOM      2  C   UNL     1       1.787   8.468  18.890  0.00  0.00    +0.000 A 
ATOM      3  O   UNL     1       2.373   7.239  18.792  0.00  0.00    +0.000 OA
ATOM      4  C   UNL     1       2.212   6.676  20.034  0.00  0.00    +0.000 A 
ATOM      5  N   UNL     1       1.627   7.479  20.905  0.00  0.00    +0.000 NA
ATOM      6  C   UNL     1       1.348   8.629  20.191  0.00  0.00    +0.000 A 
ENDROOT
BRANCH   4   7
ATOM      7  C   UNL     1       2.576   5.264  20.156  0.00  0.00    +0.000 A 
ATOM      8  C   UNL     1       1.727   4.457  20.943  0.00  0.00    +0.000 A 
ATOM      9  C   UNL     1       1.947   3.088  21.084  0.00  0.00    +0.000 A 
ATOM     10  C   UNL     1       3.045   2.507  20.469  0.00  0.00    +0.000 A 
ATOM     11  C   UNL     1       3.903   3.284  19.696  0.00  0.00    +0.000 A 
ATOM     12  C   UNL     1       3.670   4.654  19.496  0.00  0.00    +0.000 A 
BRANCH  12  13
ATOM     13  N   UNL     1       4.536   5.412  18.659  0.00  0.00    +0.000 N 
ATOM     14  C   UNL     1       5.886   5.642  18.867  0.00  0.00    +0.000 C 
ATOM     15  O   UNL     1       6.578   5.156  19.757  0.00  0.00    +0.000 OA
ATOM     16  H   UNL     1       4.162   5.665  17.749  0.00  0.00    +0.000 HD
BRANCH  14  17
ATOM     17  C   UNL     1       6.519   6.568  17.845  0.00  0.00    +0.000 C 
BRANCH  17  18
ATOM     18  C   UNL     1       6.651   5.921  16.472  0.00  0.00    +0.000 C 
ATOM     19  C   UNL     1       6.964   4.425  16.522  0.00  0.00    +0.000 C 
ATOM     20  C   UNL     1       6.634   3.947  15.116  0.00  0.00    +0.000 C 
ATOM     21  C   UNL     1       5.518   4.866  14.616  0.00  0.00    +0.000 C 
ATOM     22  C   UNL     1       5.349   5.954  15.674  0.00  0.00    +0.000 C 
ENDBRANCH  17  18
ENDBRANCH  14  17
ENDBRANCH  12  13
ENDBRANCH   4   7
BRANCH   6  23
ATOM     23  C   UNL     1       0.588   9.755  20.796  0.00  0.00    +0.000 C 
BRANCH  23  24
ATOM     24  N   UNL     1       0.949  11.008  20.179  0.00  0.00    +0.000 N 
ATOM     25  C   UNL     1       0.792  12.222  20.808  0.00  0.00    +0.000 C 
ATOM     26  O   UNL     1       0.297  12.341  21.922  0.00  0.00    +0.000 OA
ATOM     27  H   UNL     1       1.193  11.027  19.193  0.00  0.00    +0.000 HD
BRANCH  25  28
ATOM     28  C   UNL     1       1.397  13.400  20.032  0.00  0.00    +0.000 C 
ATOM     29  C   UNL     1       2.019  12.967  18.715  0.00  0.00    +0.000 C 
ATOM     30  C   UNL     1       3.023  14.063  18.465  0.00  0.00    +0.000 C 
ATOM     31  C   UNL     1       3.504  14.383  19.864  0.00  0.00    +0.000 C 
ATOM     32  O   UNL     1       2.419  14.101  20.760  0.00  0.00    +0.000 OA
ENDBRANCH  25  28
ENDBRANCH  23  24
ENDBRANCH   6  23
TORSDOF 7
ENDMDL
MODEL 5
REMARK VINA RESULT:      -8.4      1.158      1.785
REMARK  Name = 
REMARK  8 active torsions:
REMARK  status: ('A' for Active; 'I' for Inactive)
REMARK    1  A    between atoms: C_1  and  C_2
REMARK    2  A    between atoms: C_4  and  C_5
REMARK    3  A    between atoms: C_10  and  N_11
REMARK    4  A    between atoms: C_12  and  C_14
REMARK    5  A    between atoms: C_14  and  C_15
REMARK    6  A    between atoms: C_21  and  C_22
REMARK    7  A    between atoms: C_22  and  N_23
REMARK    8  A    between atoms: C_24  and  C_26
REMARK                            x       y       z     vdW  Elec       q    Type
REMARK                         _______ _______ _______ _____ _____    ______ ____
ROOT
ATOM      1  C   UNL     1       2.298   9.075  17.622  0.00  0.00    +0.000 C 
ATOM      2  C   UNL     1       2.086   8.279  18.842  0.00  0.00    +0.000 A 
ATOM      3  O   UNL     1       2.549   6.995  18.825  0.00  0.00    +0.000 OA
ATOM      4  C   UNL     1       2.110   6.451  20.006  0.00  0.00    +0.000 A 
ATOM      5  N   UNL     1       1.464   7.308  20.775  0.00  0.00    +0.000 NA
ATOM      6  C   UNL     1       1.439   8.483  20.047  0.00  0.00    +0.000 A 
ENDROOT
BRANCH   4   7
ATOM      7  C   UNL     1       2.298   5.008  20.161  0.00  0.00    +0.000 A 
ATOM      8  C   UNL     1       1.380   4.335  20.996  0.00  0.00    +0.000 A 
ATOM      9  C   UNL     1       1.431   2.954  21.173  0.00  0.00    +0.000 A 
ATOM     10  C   UNL     1       2.427   2.222  20.546  0.00  0.00    +0.000 A 
ATOM     11  C   UNL     1       3.352   2.865  19.726  0.00  0.00    +0.000 A 
ATOM     12  C   UNL     1       3.286   4.247  19.491  0.00  0.00    +0.000 A 
BRANCH  12  13
ATOM     13  N   UNL     1       4.215   4.867  18.607  0.00  0.00    +0.000 N 
ATOM     14  C   UNL     1       4.647   4.370  17.389  0.00  0.00    +0.000 C 
ATOM     15  O   UNL     1       4.234   3.359  16.827  0.00  0.00    +0.000 OA
ATOM     16  H   UNL     1       4.449   5.833  18.820  0.00  0.00    +0.000 HD
BRANCH  14  17
ATOM     17  C   UNL     1       5.712   5.219  16.720  0.00  0.00    +0.000 C 
BRANCH  17  18
ATOM     18  C   UNL     1       6.377   6.191  17.686  0.00  0.00    +0.000 C 
ATOM     19  C   UNL     1       7.659   5.651  18.320  0.00  0.00    +0.000 C 
ATOM     20  C   UNL     1       8.331   6.898  18.876  0.00  0.00    +0.000 C 
ATOM     21  C   UNL     1       7.904   8.045  17.959  0.00  0.00    +0.000 C 
ATOM     22  C   UNL     1       6.865   7.466  17.002  0.00  0.00    +0.000 C 
ENDBRANCH  17  18
ENDBRANCH  14  17
ENDBRANCH  12  13
ENDBRANCH   4   7
BRANCH   6  23
ATOM     23  C   UNL     1       0.702   9.682  20.530  0.00  0.00    +0.000 C 
BRANCH  23  24
ATOM     24  N   UNL     1      -0.613   9.749  19.939  0.00  0.00    +0.000 N 
ATOM     25  C   UNL     1      -0.925  10.605  18.908  0.00  0.00    +0.000 C 
ATOM     26  O   UNL     1      -0.126  11.405  18.436  0.00  0.00    +0.000 OA
ATOM     27  H   UNL     1      -1.385   9.259  20.383  0.00  0.00    +0.000 HD
BRANCH  25  28
ATOM     28  C   UNL     1      -2.329  10.385  18.330  0.00  0.00    +0.000 C 
ATOM     29  C   UNL     1      -2.292   9.890  16.893  0.00  0.00    +0.000 C 
ATOM     30  C   UNL     1      -3.636  10.331  16.374  0.00  0.00    +0.000 C 
ATOM     31  C   UNL     1      -3.839  11.652  17.084  0.00  0.00    +0.000 C 
ATOM     32  O   UNL     1      -3.144  11.569  18.337  0.00  0.00    +0.000 OA
ENDBRANCH  25  28
ENDBRANCH  23  24
ENDBRANCH   6  23
TORSDOF 7
ENDMDL
MODEL 6
REMARK VINA RESULT:      -8.4      1.703      4.272
REMARK  Name = 
REMARK  8 active torsions:
REMARK  status: ('A' for Active; 'I' for Inactive)
REMARK    1  A    between atoms: C_1  and  C_2
REMARK    2  A    between atoms: C_4  and  C_5
REMARK    3  A    between atoms: C_10  and  N_11
REMARK    4  A    between atoms: C_12  and  C_14
REMARK    5  A    between atoms: C_14  and  C_15
REMARK    6  A    between atoms: C_21  and  C_22
REMARK    7  A    between atoms: C_22  and  N_23
REMARK    8  A    between atoms: C_24  and  C_26
REMARK                            x       y       z     vdW  Elec       q    Type
REMARK                         _______ _______ _______ _____ _____    ______ ____
ROOT
ATOM      1  C   UNL     1       1.521   7.629  20.656  0.00  0.00    +0.000 C 
ATOM      2  C   UNL     1       2.139   7.712  19.323  0.00  0.00    +0.000 A 
ATOM      3  O   UNL     1       3.016   6.719  18.992  0.00  0.00    +0.000 OA
ATOM      4  C   UNL     1       3.536   7.104  17.781  0.00  0.00    +0.000 A 
ATOM      5  N   UNL     1       3.011   8.222  17.311  0.00  0.00    +0.000 NA
ATOM      6  C   UNL     1       2.116   8.624  18.285  0.00  0.00    +0.000 A 
ENDROOT
BRANCH   4   7
ATOM      7  C   UNL     1       4.661   6.314  17.280  0.00  0.00    +0.000 A 
ATOM      8  C   UNL     1       5.850   7.016  16.990  0.00  0.00    +0.000 A 
ATOM      9  C   UNL     1       7.001   6.357  16.559  0.00  0.00    +0.000 A 
ATOM     10  C   UNL     1       6.971   4.984  16.376  0.00  0.00    +0.000 A 
ATOM     11  C   UNL     1       5.807   4.270  16.645  0.00  0.00    +0.000 A 
ATOM     12  C   UNL     1       4.653   4.905  17.131  0.00  0.00    +0.000 A 
BRANCH  12  13
ATOM     13  N   UNL     1       3.494   4.141  17.446  0.00  0.00    +0.000 N 
ATOM     14  C   UNL     1       3.432   2.765  17.590  0.00  0.00    +0.000 C 
ATOM     15  O   UNL     1       4.381   1.986  17.560  0.00  0.00    +0.000 OA
ATOM     16  H   UNL     1       2.684   4.673  17.751  0.00  0.00    +0.000 HD
BRANCH  14  17
ATOM     17  C   UNL     1       2.032   2.235  17.837  0.00  0.00    +0.000 C 
BRANCH  17  18
ATOM     18  C   UNL     1       1.604   2.368  19.292  0.00  0.00    +0.000 C 
ATOM     19  C   UNL     1       2.754   2.227  20.289  0.00  0.00    +0.000 C 
ATOM     20  C   UNL     1       2.178   2.801  21.577  0.00  0.00    +0.000 C 
ATOM     21  C   UNL     1       1.164   3.860  21.143  0.00  0.00    +0.000 C 
ATOM     22  C   UNL     1       1.054   3.754  19.623  0.00  0.00    +0.000 C 
ENDBRANCH  17  18
ENDBRANCH  14  17
ENDBRANCH  12  13
ENDBRANCH   4   7
BRANCH   6  23
ATOM     23  C   UNL     1       1.382   9.914  18.181  0.00  0.00    +0.000 C 
BRANCH  23  24
ATOM     24  N   UNL     1      -0.001   9.691  17.831  0.00  0.00    +0.000 N 
ATOM     25  C   UNL     1      -0.983  10.633  18.031  0.00  0.00    +0.000 C 
ATOM     26  O   UNL     1      -0.772  11.720  18.556  0.00  0.00    +0.000 OA
ATOM     27  H   UNL     1      -0.303   8.758  17.563  0.00  0.00    +0.000 HD
BRANCH  25  28
ATOM     28  C   UNL     1      -2.341  10.244  17.433  0.00  0.00    +0.000 C 
ATOM     29  C   UNL     1      -2.454  10.614  15.964  0.00  0.00    +0.000 C 
ATOM     30  C   UNL     1      -3.945  10.727  15.781  0.00  0.00    +0.000 C 
ATOM     31  C   UNL     1      -4.389  11.308  17.106  0.00  0.00    +0.000 C 
ATOM     32  O   UNL     1      -3.457  10.856  18.100  0.00  0.00    +0.000 OA
ENDBRANCH  25  28
ENDBRANCH  23  24
ENDBRANCH   6  23
TORSDOF 7
ENDMDL
MODEL 7
REMARK VINA RESULT:      -8.4      1.402      2.104
REMARK  Name = 
REMARK  8 active torsions:
REMARK  status: ('A' for Active; 'I' for Inactive)
REMARK    1  A    between atoms: C_1  and  C_2
REMARK    2  A    between atoms: C_4  and  C_5
REMARK    3  A    between atoms: C_10  and  N_11
REMARK    4  A    between atoms: C_12  and  C_14
REMARK    5  A    between atoms: C_14  and  C_15
REMARK    6  A    between atoms: C_21  and  C_22
REMARK    7  A    between atoms: C_22  and  N_23
REMARK    8  A    between atoms: C_24  and  C_26
REMARK                            x       y       z     vdW  Elec       q    Type
REMARK                         _______ _______ _______ _____ _____    ______ ____
ROOT
ATOM      1  C   UNL     1       1.999   9.456  17.759  0.00  0.00    +0.000 C 
ATOM      2  C   UNL     1       1.891   8.569  18.928  0.00  0.00    +0.000 A 
ATOM      3  O   UNL     1       2.308   7.280  18.759  0.00  0.00    +0.000 OA
ATOM      4  C   UNL     1       1.979   6.650  19.934  0.00  0.00    +0.000 A 
ATOM      5  N   UNL     1       1.446   7.457  20.834  0.00  0.00    +0.000 NA
ATOM      6  C   UNL     1       1.382   8.688  20.208  0.00  0.00    +0.000 A 
ENDROOT
BRANCH   4   7
ATOM      7  C   UNL     1       2.135   5.196  19.954  0.00  0.00    +0.000 A 
ATOM      8  C   UNL     1       1.190   4.467  20.707  0.00  0.00    +0.000 A 
ATOM      9  C   UNL     1       1.211   3.074  20.752  0.00  0.00    +0.000 A 
ATOM     10  C   UNL     1       2.202   2.384  20.072  0.00  0.00    +0.000 A 
ATOM     11  C   UNL     1       3.153   3.082  19.331  0.00  0.00    +0.000 A 
ATOM     12  C   UNL     1       3.119   4.481  19.228  0.00  0.00    +0.000 A 
BRANCH  12  13
ATOM     13  N   UNL     1       4.074   5.162  18.421  0.00  0.00    +0.000 N 
ATOM     14  C   UNL     1       4.460   4.816  17.137  0.00  0.00    +0.000 C 
ATOM     15  O   UNL     1       3.979   3.921  16.448  0.00  0.00    +0.000 OA
ATOM     16  H   UNL     1       4.370   6.073  18.761  0.00  0.00    +0.000 HD
BRANCH  14  17
ATOM     17  C   UNL     1       5.569   5.685  16.572  0.00  0.00    +0.000 C 
BRANCH  17  18
ATOM     18  C   UNL     1       6.332   6.436  17.655  0.00  0.00    +0.000 C 
ATOM     19  C   UNL     1       7.467   5.627  18.283  0.00  0.00    +0.000 C 
ATOM     20  C   UNL     1       8.308   6.684  18.986  0.00  0.00    +0.000 C 
ATOM     21  C   UNL     1       8.132   7.965  18.170  0.00  0.00    +0.000 C 
ATOM     22  C   UNL     1       7.066   7.664  17.119  0.00  0.00    +0.000 C 
ENDBRANCH  17  18
ENDBRANCH  14  17
ENDBRANCH  12  13
ENDBRANCH   4   7
BRANCH   6  23
ATOM     23  C   UNL     1       0.740   9.860  20.861  0.00  0.00    +0.000 C 
BRANCH  23  24
ATOM     24  N   UNL     1      -0.380  10.332  20.083  0.00  0.00    +0.000 N 
ATOM     25  C   UNL     1      -0.383  11.548  19.440  0.00  0.00    +0.000 C 
ATOM     26  O   UNL     1       0.545  12.345  19.508  0.00  0.00    +0.000 OA
ATOM     27  H   UNL     1      -1.261   9.826  20.120  0.00  0.00    +0.000 HD
BRANCH  25  28
ATOM     28  C   UNL     1      -1.606  11.766  18.540  0.00  0.00    +0.000 C 
ATOM     29  C   UNL     1      -2.868  12.051  19.337  0.00  0.00    +0.000 C 
ATOM     30  C   UNL     1      -3.949  11.621  18.380  0.00  0.00    +0.000 C 
ATOM     31  C   UNL     1      -3.319  10.427  17.697  0.00  0.00    +0.000 C 
ATOM     32  O   UNL     1      -1.900  10.644  17.691  0.00  0.00    +0.000 OA
ENDBRANCH  25  28
ENDBRANCH  23  24
ENDBRANCH   6  23
TORSDOF 7
ENDMDL
MODEL 8
REMARK VINA RESULT:      -8.4      1.502      2.391
REMARK  Name = 
REMARK  8 active torsions:
REMARK  status: ('A' for Active; 'I' for Inactive)
REMARK    1  A    between atoms: C_1  and  C_2
REMARK    2  A    between atoms: C_4  and  C_5
REMARK    3  A    between atoms: C_10  and  N_11
REMARK    4  A    between atoms: C_12  and  C_14
REMARK    5  A    between atoms: C_14  and  C_15
REMARK    6  A    between atoms: C_21  and  C_22
REMARK    7  A    between atoms: C_22  and  N_23
REMARK    8  A    between atoms: C_24  and  C_26
REMARK                            x       y       z     vdW  Elec       q    Type
REMARK                         _______ _______ _______ _____ _____    ______ ____
ROOT
ATOM      1  C   UNL     1       0.805   9.475  21.594  0.00  0.00    +0.000 C 
ATOM      2  C   UNL     1       1.259   8.525  20.566  0.00  0.00    +0.000 A 
ATOM      3  O   UNL     1       1.466   7.238  20.970  0.00  0.00    +0.000 OA
ATOM      4  C   UNL     1       2.002   6.610  19.873  0.00  0.00    +0.000 A 
ATOM      5  N   UNL     1       2.090   7.389  18.809  0.00  0.00    +0.000 NA
ATOM      6  C   UNL     1       1.619   8.618  19.234  0.00  0.00    +0.000 A 
ENDROOT
BRANCH   4   7
ATOM      7  C   UNL     1       2.510   5.255  20.087  0.00  0.00    +0.000 A 
ATOM      8  C   UNL     1       1.836   4.470  21.048  0.00  0.00    +0.000 A 
ATOM      9  C   UNL     1       2.200   3.148  21.295  0.00  0.00    +0.000 A 
ATOM     10  C   UNL     1       3.270   2.596  20.609  0.00  0.00    +0.000 A 
ATOM     11  C   UNL     1       3.958   3.353  19.664  0.00  0.00    +0.000 A 
ATOM     12  C   UNL     1       3.575   4.669  19.361  0.00  0.00    +0.000 A 
BRANCH  12  13
ATOM     13  N   UNL     1       4.265   5.400  18.354  0.00  0.00    +0.000 N 
ATOM     14  C   UNL     1       4.547   4.965  17.069  0.00  0.00    +0.000 C 
ATOM     15  O   UNL     1       4.170   3.914  16.558  0.00  0.00    +0.000 OA
ATOM     16  H   UNL     1       4.415   6.386  18.548  0.00  0.00    +0.000 HD
BRANCH  14  17
ATOM     17  C   UNL     1       5.379   5.939  16.257  0.00  0.00    +0.000 C 
BRANCH  17  18
ATOM     18  C   UNL     1       6.744   6.203  16.879  0.00  0.00    +0.000 C 
ATOM     19  C   UNL     1       6.905   7.616  17.439  0.00  0.00    +0.000 C 
ATOM     20  C   UNL     1       8.123   7.503  18.344  0.00  0.00    +0.000 C 
ATOM     21  C   UNL     1       8.126   6.062  18.858  0.00  0.00    +0.000 C 
ATOM     22  C   UNL     1       7.013   5.335  18.107  0.00  0.00    +0.000 C 
ENDBRANCH  17  18
ENDBRANCH  14  17
ENDBRANCH  12  13
ENDBRANCH   4   7
BRANCH   6  23
ATOM     23  C   UNL     1       1.649   9.811  18.347  0.00  0.00    +0.000 C 
BRANCH  23  24
ATOM     24  N   UNL     1       0.317  10.320  18.127  0.00  0.00    +0.000 N 
ATOM     25  C   UNL     1      -0.106  11.539  18.606  0.00  0.00    +0.000 C 
ATOM     26  O   UNL     1       0.599  12.270  19.291  0.00  0.00    +0.000 OA
ATOM     27  H   UNL     1      -0.392   9.709  17.731  0.00  0.00    +0.000 HD
BRANCH  25  28
ATOM     28  C   UNL     1      -1.499  11.946  18.110  0.00  0.00    +0.000 C 
ATOM     29  C   UNL     1      -2.543  11.902  19.214  0.00  0.00    +0.000 C 
ATOM     30  C   UNL     1      -3.818  11.720  18.434  0.00  0.00    +0.000 C 
ATOM     31  C   UNL     1      -3.375  10.828  17.295  0.00  0.00    +0.000 C 
ATOM     32  O   UNL     1      -1.992  11.119  17.043  0.00  0.00    +0.000 OA
ENDBRANCH  25  28
ENDBRANCH  23  24
ENDBRANCH   6  23
TORSDOF 7
ENDMDL
MODEL 9
REMARK VINA RESULT:      -8.3      1.747      2.570
REMARK  Name = 
REMARK  8 active torsions:
REMARK  status: ('A' for Active; 'I' for Inactive)
REMARK    1  A    between atoms: C_1  and  C_2
REMARK    2  A    between atoms: C_4  and  C_5
REMARK    3  A    between atoms: C_10  and  N_11
REMARK    4  A    between atoms: C_12  and  C_14
REMARK    5  A    between atoms: C_14  and  C_15
REMARK    6  A    between atoms: C_21  and  C_22
REMARK    7  A    between atoms: C_22  and  N_23
REMARK    8  A    between atoms: C_24  and  C_26
REMARK                            x       y       z     vdW  Elec       q    Type
REMARK                         _______ _______ _______ _____ _____    ______ ____
ROOT
ATOM      1  C   UNL     1       1.542   8.407  21.495  0.00  0.00    +0.000 C 
ATOM      2  C   UNL     1       1.726   7.677  20.230  0.00  0.00    +0.000 A 
ATOM      3  O   UNL     1       1.807   6.317  20.315  0.00  0.00    +0.000 OA
ATOM      4  C   UNL     1       2.107   5.906  19.039  0.00  0.00    +0.000 A 
ATOM      5  N   UNL     1       2.161   6.895  18.165  0.00  0.00    +0.000 NA
ATOM      6  C   UNL     1       1.920   8.035  18.909  0.00  0.00    +0.000 A 
ENDROOT
BRANCH   4   7
ATOM      7  C   UNL     1       2.450   4.493  18.879  0.00  0.00    +0.000 A 
ATOM      8  C   UNL     1       1.614   3.560  19.530  0.00  0.00    +0.000 A 
ATOM      9  C   UNL     1       1.815   2.187  19.402  0.00  0.00    +0.000 A 
ATOM     10  C   UNL     1       2.881   1.721  18.648  0.00  0.00    +0.000 A 
ATOM     11  C   UNL     1       3.726   2.621  18.006  0.00  0.00    +0.000 A 
ATOM     12  C   UNL     1       3.511   4.007  18.076  0.00  0.00    +0.000 A 
BRANCH  12  13
ATOM     13  N   UNL     1       4.362   4.900  17.367  0.00  0.00    +0.000 N 
ATOM     14  C   UNL     1       5.275   4.557  16.384  0.00  0.00    +0.000 C 
ATOM     15  O   UNL     1       5.439   3.442  15.898  0.00  0.00    +0.000 OA
ATOM     16  H   UNL     1       4.158   5.889  17.481  0.00  0.00    +0.000 HD
BRANCH  14  17
ATOM     17  C   UNL     1       6.103   5.725  15.879  0.00  0.00    +0.000 C 
BRANCH  17  18
ATOM     18  C   UNL     1       7.259   6.069  16.809  0.00  0.00    +0.000 C 
ATOM     19  C   UNL     1       7.211   7.497  17.351  0.00  0.00    +0.000 C 
ATOM     20  C   UNL     1       8.172   7.461  18.530  0.00  0.00    +0.000 C 
ATOM     21  C   UNL     1       8.116   6.031  19.069  0.00  0.00    +0.000 C 
ATOM     22  C   UNL     1       7.257   5.235  18.089  0.00  0.00    +0.000 C 
ENDBRANCH  17  18
ENDBRANCH  14  17
ENDBRANCH  12  13
ENDBRANCH   4   7
BRANCH   6  23
ATOM     23  C   UNL     1       1.996   9.390  18.302  0.00  0.00    +0.000 C 
BRANCH  23  24
ATOM     24  N   UNL     1       0.704   9.807  17.813  0.00  0.00    +0.000 N 
ATOM     25  C   UNL     1      -0.170  10.562  18.562  0.00  0.00    +0.000 C 
ATOM     26  O   UNL     1       0.061  10.907  19.714  0.00  0.00    +0.000 OA
ATOM     27  H   UNL     1       0.349   9.417  16.944  0.00  0.00    +0.000 HD
BRANCH  25  28
ATOM     28  C   UNL     1      -1.406  11.027  17.782  0.00  0.00    +0.000 C 
ATOM     29  C   UNL     1      -2.446  11.677  18.679  0.00  0.00    +0.000 C 
ATOM     30  C   UNL     1      -3.713  11.477  17.889  0.00  0.00    +0.000 C 
ATOM     31  C   UNL     1      -3.489  10.120  17.259  0.00  0.00    +0.000 C 
ATOM     32  O   UNL     1      -2.074   9.965  17.079  0.00  0.00    +0.000 OA
ENDBRANCH  25  28
ENDBRANCH  23  24
ENDBRANCH   6  23
TORSDOF 7
ENDMDL
