MODEL 1
REMARK VINA RESULT:      -7.1      0.000      0.000
REMARK  Name = 
REMARK  2 active torsions:
REMARK  status: ('A' for Active; 'I' for Inactive)
REMARK    1  A    between atoms: C_2  and  C_3
REMARK    2  A    between atoms: C_4  and  N_5
REMARK                            x       y       z     vdW  Elec       q    Type
REMARK                         _______ _______ _______ _____ _____    ______ ____
ROOT
ATOM      1  C   UNL     1       5.849   5.247  17.451  0.00  0.00    +0.000 A 
ATOM      2  C   UNL     1       4.888   4.349  17.136  0.00  0.00    +0.000 A 
ATOM      3  N   UNL     1       4.814   3.799  15.875  0.00  0.00    +0.000 NA
ATOM      4  C   UNL     1       5.648   4.182  14.960  0.00  0.00    +0.000 A 
ATOM      5  C   UNL     1       5.517   3.631  13.578  0.00  0.00    +0.000 A 
ATOM      6  C   UNL     1       6.386   3.992  12.623  0.00  0.00    +0.000 A 
ATOM      7  C   UNL     1       7.458   4.902  12.925  0.00  0.00    +0.000 A 
ATOM      8  C   UNL     1       7.570   5.412  14.157  0.00  0.00    +0.000 A 
ATOM      9  N   UNL     1       6.676   5.084  15.172  0.00  0.00    +0.000 N 
ATOM     10  C   UNL     1       6.863   5.616  16.436  0.00  0.00    +0.000 A 
ATOM     11  O   UNL     1       7.833   6.315  16.732  0.00  0.00    +0.000 OA
ENDROOT
BRANCH   2  12
ATOM     12  N   UNL     1       3.928   3.944  18.077  0.00  0.00    +0.000 N 
ATOM     13  C   UNL     1       4.070   2.685  18.819  0.00  0.00    +0.000 C 
ATOM     14  C   UNL     1       2.886   1.756  18.574  0.00  0.00    +0.000 C 
ATOM     15  C   UNL     1       1.557   2.461  18.832  0.00  0.00    +0.000 C 
ATOM     16  C   UNL     1       1.469   3.749  18.021  0.00  0.00    +0.000 C 
ATOM     17  C   UNL     1       2.662   4.659  18.292  0.00  0.00    +0.000 C 
ENDBRANCH   2  12
BRANCH   1  19
ATOM     18  O   UNL     1       6.674   5.351  19.699  0.00  0.00    +0.000 OA
ATOM     19  C   UNL     1       5.934   5.788  18.825  0.00  0.00    +0.000 C 
ENDBRANCH   1  19
TORSDOF 2
ENDMDL
MODEL 2
REMARK VINA RESULT:      -6.7      2.500      6.081
REMARK  Name = 
REMARK  2 active torsions:
REMARK  status: ('A' for Active; 'I' for Inactive)
REMARK    1  A    between atoms: C_2  and  C_3
REMARK    2  A    between atoms: C_4  and  N_5
REMARK                            x       y       z     vdW  Elec       q    Type
REMARK                         _______ _______ _______ _____ _____    ______ ____
ROOT
ATOM      1  C   UNL     1       4.449   4.008  17.003  0.00  0.00    +0.000 A 
ATOM      2  C   UNL     1       4.976   4.895  17.880  0.00  0.00    +0.000 A 
ATOM      3  N   UNL     1       4.332   5.195  19.060  0.00  0.00    +0.000 NA
ATOM      4  C   UNL     1       3.181   4.658  19.316  0.00  0.00    +0.000 A 
ATOM      5  C   UNL     1       2.460   5.043  20.566  0.00  0.00    +0.000 A 
ATOM      6  C   UNL     1       1.281   4.479  20.864  0.00  0.00    +0.000 A 
ATOM      7  C   UNL     1       0.709   3.491  19.991  0.00  0.00    +0.000 A 
ATOM      8  C   UNL     1       1.342   3.155  18.861  0.00  0.00    +0.000 A 
ATOM      9  N   UNL     1       2.556   3.733  18.500  0.00  0.00    +0.000 N 
ATOM     10  C   UNL     1       3.181   3.320  17.336  0.00  0.00    +0.000 A 
ATOM     11  O   UNL     1       2.752   2.405  16.633  0.00  0.00    +0.000 OA
ENDROOT
BRANCH   2  12
ATOM     12  N   UNL     1       6.194   5.544  17.621  0.00  0.00    +0.000 N 
ATOM     13  C   UNL     1       7.444   5.099  18.248  0.00  0.00    +0.000 C 
ATOM     14  C   UNL     1       8.080   6.211  19.076  0.00  0.00    +0.000 C 
ATOM     15  C   UNL     1       8.236   7.494  18.266  0.00  0.00    +0.000 C 
ATOM     16  C   UNL     1       6.901   7.908  17.657  0.00  0.00    +0.000 C 
ATOM     17  C   UNL     1       6.293   6.779  16.830  0.00  0.00    +0.000 C 
ENDBRANCH   2  12
BRANCH   1  19
ATOM     18  O   UNL     1       5.149   4.331  14.734  0.00  0.00    +0.000 OA
ATOM     19  C   UNL     1       5.183   3.669  15.765  0.00  0.00    +0.000 C 
ENDBRANCH   1  19
TORSDOF 2
ENDMDL
MODEL 3
REMARK VINA RESULT:      -6.7      2.000      2.582
REMARK  Name = 
REMARK  2 active torsions:
REMARK  status: ('A' for Active; 'I' for Inactive)
REMARK    1  A    between atoms: C_2  and  C_3
REMARK    2  A    between atoms: C_4  and  N_5
REMARK                            x       y       z     vdW  Elec       q    Type
REMARK                         _______ _______ _______ _____ _____    ______ ____
ROOT
ATOM      1  C   UNL     1       3.798   5.225  18.389  0.00  0.00    +0.000 A 
ATOM      2  C   UNL     1       3.704   3.884  18.228  0.00  0.00    +0.000 A 
ATOM      3  N   UNL     1       4.347   3.246  17.191  0.00  0.00    +0.000 NA
ATOM      4  C   UNL     1       5.015   3.942  16.326  0.00  0.00    +0.000 A 
ATOM      5  C   UNL     1       5.651   3.248  15.168  0.00  0.00    +0.000 A 
ATOM      6  C   UNL     1       6.370   3.945  14.276  0.00  0.00    +0.000 A 
ATOM      7  C   UNL     1       6.545   5.364  14.436  0.00  0.00    +0.000 A 
ATOM      8  C   UNL     1       5.963   5.994  15.463  0.00  0.00    +0.000 A 
ATOM      9  N   UNL     1       5.187   5.313  16.398  0.00  0.00    +0.000 N 
ATOM     10  C   UNL     1       4.638   6.013  17.459  0.00  0.00    +0.000 A 
ATOM     11  O   UNL     1       4.863   7.206  17.662  0.00  0.00    +0.000 OA
ENDROOT
BRANCH   2  12
ATOM     12  N   UNL     1       2.947   3.093  19.108  0.00  0.00    +0.000 N 
ATOM     13  C   UNL     1       1.511   2.874  18.895  0.00  0.00    +0.000 C 
ATOM     14  C   UNL     1       0.690   3.361  20.084  0.00  0.00    +0.000 C 
ATOM     15  C   UNL     1       1.201   2.773  21.396  0.00  0.00    +0.000 C 
ATOM     16  C   UNL     1       2.692   3.049  21.561  0.00  0.00    +0.000 C 
ATOM     17  C   UNL     1       3.486   2.546  20.361  0.00  0.00    +0.000 C 
ENDBRANCH   2  12
BRANCH   1  19
ATOM     18  O   UNL     1       2.121   6.563  19.457  0.00  0.00    +0.000 OA
ATOM     19  C   UNL     1       3.135   5.880  19.538  0.00  0.00    +0.000 C 
ENDBRANCH   1  19
TORSDOF 2
ENDMDL
MODEL 4
REMARK VINA RESULT:      -6.7      2.658      5.804
REMARK  Name = 
REMARK  2 active torsions:
REMARK  status: ('A' for Active; 'I' for Inactive)
REMARK    1  A    between atoms: C_2  and  C_3
REMARK    2  A    between atoms: C_4  and  N_5
REMARK                            x       y       z     vdW  Elec       q    Type
REMARK                         _______ _______ _______ _____ _____    ______ ____
ROOT
ATOM      1  C   UNL     1       3.761   4.573  19.026  0.00  0.00    +0.000 A 
ATOM      2  C   UNL     1       4.262   5.198  17.935  0.00  0.00    +0.000 A 
ATOM      3  N   UNL     1       3.904   6.494  17.632  0.00  0.00    +0.000 NA
ATOM      4  C   UNL     1       3.037   7.108  18.374  0.00  0.00    +0.000 A 
ATOM      5  C   UNL     1       2.604   8.487  17.997  0.00  0.00    +0.000 A 
ATOM      6  C   UNL     1       1.730   9.152  18.765  0.00  0.00    +0.000 A 
ATOM      7  C   UNL     1       1.213   8.549  19.963  0.00  0.00    +0.000 A 
ATOM      8  C   UNL     1       1.584   7.308  20.297  0.00  0.00    +0.000 A 
ATOM      9  N   UNL     1       2.470   6.571  19.515  0.00  0.00    +0.000 N 
ATOM     10  C   UNL     1       2.844   5.304  19.929  0.00  0.00    +0.000 A 
ATOM     11  O   UNL     1       2.487   4.817  21.002  0.00  0.00    +0.000 OA
ENDROOT
BRANCH   2  12
ATOM     12  N   UNL     1       5.162   4.555  17.071  0.00  0.00    +0.000 N 
ATOM     13  C   UNL     1       6.613   4.672  17.255  0.00  0.00    +0.000 C 
ATOM     14  C   UNL     1       7.285   5.271  16.024  0.00  0.00    +0.000 C 
ATOM     15  C   UNL     1       6.898   4.523  14.752  0.00  0.00    +0.000 C 
ATOM     16  C   UNL     1       5.380   4.451  14.615  0.00  0.00    +0.000 C 
ATOM     17  C   UNL     1       4.738   3.842  15.857  0.00  0.00    +0.000 C 
ENDBRANCH   2  12
BRANCH   1  19
ATOM     18  O   UNL     1       5.199   2.924  20.004  0.00  0.00    +0.000 OA
ATOM     19  C   UNL     1       4.197   3.198  19.354  0.00  0.00    +0.000 C 
ENDBRANCH   1  19
TORSDOF 2
ENDMDL
MODEL 5
REMARK VINA RESULT:      -6.6      0.688      1.421
REMARK  Name = 
REMARK  2 active torsions:
REMARK  status: ('A' for Active; 'I' for Inactive)
REMARK    1  A    between atoms: C_2  and  C_3
REMARK    2  A    between atoms: C_4  and  N_5
REMARK                            x       y       z     vdW  Elec       q    Type
REMARK                         _______ _______ _______ _____ _____    ______ ____
ROOT
ATOM      1  C   UNL     1       5.643   5.105  17.250  0.00  0.00    +0.000 A 
ATOM      2  C   UNL     1       4.730   4.198  16.831  0.00  0.00    +0.000 A 
ATOM      3  N   UNL     1       4.771   3.686  15.553  0.00  0.00    +0.000 NA
ATOM      4  C   UNL     1       5.668   4.113  14.721  0.00  0.00    +0.000 A 
ATOM      5  C   UNL     1       5.661   3.602  13.318  0.00  0.00    +0.000 A 
ATOM      6  C   UNL     1       6.596   4.010  12.448  0.00  0.00    +0.000 A 
ATOM      7  C   UNL     1       7.620   4.930  12.862  0.00  0.00    +0.000 A 
ATOM      8  C   UNL     1       7.621   5.404  14.114  0.00  0.00    +0.000 A 
ATOM      9  N   UNL     1       6.655   5.027  15.042  0.00  0.00    +0.000 N 
ATOM     10  C   UNL     1       6.727   5.524  16.333  0.00  0.00    +0.000 A 
ATOM     11  O   UNL     1       7.654   6.232  16.727  0.00  0.00    +0.000 OA
ENDROOT
BRANCH   2  12
ATOM     12  N   UNL     1       3.706   3.745  17.679  0.00  0.00    +0.000 N 
ATOM     13  C   UNL     1       2.465   4.509  17.852  0.00  0.00    +0.000 C 
ATOM     14  C   UNL     1       2.248   4.898  19.311  0.00  0.00    +0.000 C 
ATOM     15  C   UNL     1       2.345   3.687  20.235  0.00  0.00    +0.000 C 
ATOM     16  C   UNL     1       3.661   2.950  20.014  0.00  0.00    +0.000 C 
ATOM     17  C   UNL     1       3.846   2.569  18.549  0.00  0.00    +0.000 C 
ENDBRANCH   2  12
BRANCH   1  19
ATOM     18  O   UNL     1       6.303   5.176  19.553  0.00  0.00    +0.000 OA
ATOM     19  C   UNL     1       5.604   5.604  18.642  0.00  0.00    +0.000 C 
ENDBRANCH   1  19
TORSDOF 2
ENDMDL
MODEL 6
REMARK VINA RESULT:      -6.4      3.169      3.895
REMARK  Name = 
REMARK  2 active torsions:
REMARK  status: ('A' for Active; 'I' for Inactive)
REMARK    1  A    between atoms: C_2  and  C_3
REMARK    2  A    between atoms: C_4  and  N_5
REMARK                            x       y       z     vdW  Elec       q    Type
REMARK                         _______ _______ _______ _____ _____    ______ ____
ROOT
ATOM      1  C   UNL     1       3.540   5.373  18.225  0.00  0.00    +0.000 A 
ATOM      2  C   UNL     1       4.086   4.698  19.264  0.00  0.00    +0.000 A 
ATOM      3  N   UNL     1       5.395   4.908  19.638  0.00  0.00    +0.000 NA
ATOM      4  C   UNL     1       6.131   5.728  18.957  0.00  0.00    +0.000 A 
ATOM      5  C   UNL     1       7.568   5.896  19.329  0.00  0.00    +0.000 A 
ATOM      6  C   UNL     1       8.341   6.760  18.656  0.00  0.00    +0.000 A 
ATOM      7  C   UNL     1       7.791   7.540  17.581  0.00  0.00    +0.000 A 
ATOM      8  C   UNL     1       6.509   7.381  17.232  0.00  0.00    +0.000 A 
ATOM      9  N   UNL     1       5.677   6.477  17.887  0.00  0.00    +0.000 N 
ATOM     10  C   UNL     1       4.350   6.381  17.504  0.00  0.00    +0.000 A 
ATOM     11  O   UNL     1       3.843   7.114  16.655  0.00  0.00    +0.000 OA
ENDROOT
BRANCH   2  12
ATOM     12  N   UNL     1       3.343   3.759  19.998  0.00  0.00    +0.000 N 
ATOM     13  C   UNL     1       3.322   2.340  19.622  0.00  0.00    +0.000 C 
ATOM     14  C   UNL     1       1.905   1.862  19.325  0.00  0.00    +0.000 C 
ATOM     15  C   UNL     1       0.949   2.198  20.466  0.00  0.00    +0.000 C 
ATOM     16  C   UNL     1       1.009   3.686  20.794  0.00  0.00    +0.000 C 
ATOM     17  C   UNL     1       2.437   4.132  21.093  0.00  0.00    +0.000 C 
ENDBRANCH   2  12
BRANCH   1  19
ATOM     18  O   UNL     1       1.707   4.258  17.157  0.00  0.00    +0.000 OA
ATOM     19  C   UNL     1       2.118   5.163  17.873  0.00  0.00    +0.000 C 
ENDBRANCH   1  19
TORSDOF 2
ENDMDL
MODEL 7
REMARK VINA RESULT:      -6.4      2.547      6.032
REMARK  Name = 
REMARK  2 active torsions:
REMARK  status: ('A' for Active; 'I' for Inactive)
REMARK    1  A    between atoms: C_2  and  C_3
REMARK    2  A    between atoms: C_4  and  N_5
REMARK                            x       y       z     vdW  Elec       q    Type
REMARK                         _______ _______ _______ _____ _____    ______ ____
ROOT
ATOM      1  C   UNL     1       3.661   6.442  18.416  0.00  0.00    +0.000 A 
ATOM      2  C   UNL     1       4.460   5.453  17.951  0.00  0.00    +0.000 A 
ATOM      3  N   UNL     1       4.435   4.196  18.514  0.00  0.00    +0.000 NA
ATOM      4  C   UNL     1       3.671   3.967  19.535  0.00  0.00    +0.000 A 
ATOM      5  C   UNL     1       3.703   2.621  20.181  0.00  0.00    +0.000 A 
ATOM      6  C   UNL     1       2.901   2.353  21.221  0.00  0.00    +0.000 A 
ATOM      7  C   UNL     1       1.995   3.355  21.715  0.00  0.00    +0.000 A 
ATOM      8  C   UNL     1       1.975   4.568  21.151  0.00  0.00    +0.000 A 
ATOM      9  N   UNL     1       2.808   4.897  20.085  0.00  0.00    +0.000 N 
ATOM     10  C   UNL     1       2.717   6.158  19.521  0.00  0.00    +0.000 A 
ATOM     11  O   UNL     1       1.878   6.989  19.868  0.00  0.00    +0.000 OA
ENDROOT
BRANCH   2  12
ATOM     12  N   UNL     1       5.344   5.668  16.881  0.00  0.00    +0.000 N 
ATOM     13  C   UNL     1       4.880   5.637  15.489  0.00  0.00    +0.000 C 
ATOM     14  C   UNL     1       5.611   4.571  14.680  0.00  0.00    +0.000 C 
ATOM     15  C   UNL     1       7.125   4.710  14.808  0.00  0.00    +0.000 C 
ATOM     16  C   UNL     1       7.540   4.719  16.276  0.00  0.00    +0.000 C 
ATOM     17  C   UNL     1       6.797   5.799  17.056  0.00  0.00    +0.000 C 
ENDBRANCH   2  12
BRANCH   1  19
ATOM     18  O   UNL     1       2.712   8.274  17.196  0.00  0.00    +0.000 OA
ATOM     19  C   UNL     1       3.674   7.770  17.763  0.00  0.00    +0.000 C 
ENDBRANCH   1  19
TORSDOF 2
ENDMDL
MODEL 8
REMARK VINA RESULT:      -6.2      4.178      6.013
REMARK  Name = 
REMARK  2 active torsions:
REMARK  status: ('A' for Active; 'I' for Inactive)
REMARK    1  A    between atoms: C_2  and  C_3
REMARK    2  A    between atoms: C_4  and  N_5
REMARK                            x       y       z     vdW  Elec       q    Type
REMARK                         _______ _______ _______ _____ _____    ______ ____
ROOT
ATOM      1  C   UNL     1       2.077   5.740  20.088  0.00  0.00    +0.000 A 
ATOM      2  C   UNL     1       2.734   5.676  18.907  0.00  0.00    +0.000 A 
ATOM      3  N   UNL     1       2.869   6.790  18.107  0.00  0.00    +0.000 NA
ATOM      4  C   UNL     1       2.317   7.906  18.466  0.00  0.00    +0.000 A 
ATOM      5  C   UNL     1       2.410   9.088  17.559  0.00  0.00    +0.000 A 
ATOM      6  C   UNL     1       1.870  10.260  17.923  0.00  0.00    +0.000 A 
ATOM      7  C   UNL     1       1.210  10.391  19.193  0.00  0.00    +0.000 A 
ATOM      8  C   UNL     1       1.109   9.331  20.003  0.00  0.00    +0.000 A 
ATOM      9  N   UNL     1       1.633   8.088  19.654  0.00  0.00    +0.000 N 
ATOM     10  C   UNL     1       1.527   7.036  20.548  0.00  0.00    +0.000 A 
ATOM     11  O   UNL     1       1.054   7.161  21.678  0.00  0.00    +0.000 OA
ENDROOT
BRANCH   2  12
ATOM     12  N   UNL     1       3.302   4.476  18.450  0.00  0.00    +0.000 N 
ATOM     13  C   UNL     1       2.620   3.638  17.457  0.00  0.00    +0.000 C 
ATOM     14  C   UNL     1       2.353   2.237  17.997  0.00  0.00    +0.000 C 
ATOM     15  C   UNL     1       3.623   1.599  18.553  0.00  0.00    +0.000 C 
ATOM     16  C   UNL     1       4.271   2.512  19.587  0.00  0.00    +0.000 C 
ATOM     17  C   UNL     1       4.531   3.903  19.016  0.00  0.00    +0.000 C 
ENDBRANCH   2  12
BRANCH   1  19
ATOM     18  O   UNL     1       1.070   3.728  20.915  0.00  0.00    +0.000 OA
ATOM     19  C   UNL     1       1.987   4.541  20.950  0.00  0.00    +0.000 C 
ENDBRANCH   1  19
TORSDOF 2
ENDMDL
MODEL 9
REMARK VINA RESULT:      -6.2      2.017      5.853
REMARK  Name = 
REMARK  2 active torsions:
REMARK  status: ('A' for Active; 'I' for Inactive)
REMARK    1  A    between atoms: C_2  and  C_3
REMARK    2  A    between atoms: C_4  and  N_5
REMARK                            x       y       z     vdW  Elec       q    Type
REMARK                         _______ _______ _______ _____ _____    ______ ____
ROOT
ATOM      1  C   UNL     1       4.218   5.532  17.892  0.00  0.00    +0.000 A 
ATOM      2  C   UNL     1       4.787   4.315  17.733  0.00  0.00    +0.000 A 
ATOM      3  N   UNL     1       4.483   3.271  18.580  0.00  0.00    +0.000 NA
ATOM      4  C   UNL     1       3.675   3.468  19.573  0.00  0.00    +0.000 A 
ATOM      5  C   UNL     1       3.406   2.350  20.525  0.00  0.00    +0.000 A 
ATOM      6  C   UNL     1       2.552   2.523  21.545  0.00  0.00    +0.000 A 
ATOM      7  C   UNL     1       1.881   3.782  21.722  0.00  0.00    +0.000 A 
ATOM      8  C   UNL     1       2.131   4.793  20.882  0.00  0.00    +0.000 A 
ATOM      9  N   UNL     1       3.029   4.665  19.825  0.00  0.00    +0.000 N 
ATOM     10  C   UNL     1       3.222   5.736  18.969  0.00  0.00    +0.000 A 
ATOM     11  O   UNL     1       2.579   6.783  19.049  0.00  0.00    +0.000 OA
ENDROOT
BRANCH   2  12
ATOM     12  N   UNL     1       5.710   4.067  16.704  0.00  0.00    +0.000 N 
ATOM     13  C   UNL     1       7.111   4.489  16.816  0.00  0.00    +0.000 C 
ATOM     14  C   UNL     1       7.500   5.440  15.690  0.00  0.00    +0.000 C 
ATOM     15  C   UNL     1       7.153   4.861  14.321  0.00  0.00    +0.000 C 
ATOM     16  C   UNL     1       5.683   4.458  14.267  0.00  0.00    +0.000 C 
ATOM     17  C   UNL     1       5.327   3.502  15.402  0.00  0.00    +0.000 C 
ENDBRANCH   2  12
BRANCH   1  19
ATOM     18  O   UNL     1       5.340   7.515  17.149  0.00  0.00    +0.000 OA
ATOM     19  C   UNL     1       4.527   6.622  16.941  0.00  0.00    +0.000 C 
ENDBRANCH   1  19
TORSDOF 2
ENDMDL
