MODEL 1
REMARK VINA RESULT:      -8.4      0.000      0.000
REMARK  Name = 
REMARK  9 active torsions:
REMARK  status: ('A' for Active; 'I' for Inactive)
REMARK    1  A    between atoms: N_1  and  C_2
REMARK    2  A    between atoms: C_2  and  C_3
REMARK    3  A    between atoms: C_3  and  N_4
REMARK    4  A    between atoms: C_3  and  C_24
REMARK    5  A    between atoms: C_5  and  C_7
REMARK    6  A    between atoms: C_10  and  C_11
REMARK    7  A    between atoms: C_15  and  C_16
REMARK    8  A    between atoms: C_26  and  C_27
REMARK    9  A    between atoms: C_27  and  O_28
REMARK                            x       y       z     vdW  Elec       q    Type
REMARK                         _______ _______ _______ _____ _____    ______ ____
ROOT
ATOM      1  C   UNK     1       3.581   5.222  19.698  0.00  0.00    +0.000 A 
ATOM      2  C   UNK     1       2.452   4.507  20.062  0.00  0.00    +0.000 A 
ATOM      3  C   UNK     1       1.466   5.424  20.481  0.00  0.00    +0.000 A 
ATOM      4  C   UNK     1       1.976   6.705  20.363  0.00  0.00    +0.000 A 
ATOM      5  N   UNK     1       3.258   6.560  19.863  0.00  0.00    +0.000 N 
ATOM      6  H   UNK     1       3.908   7.311  19.684  0.00  0.00    +0.000 HD
ENDROOT
BRANCH   4   7
ATOM      7  C   UNK     1       1.335   7.982  20.693  0.00  0.00    +0.000 A 
ATOM      8  C   UNK     1       1.243   8.981  19.712  0.00  0.00    +0.000 A 
ATOM      9  C   UNK     1       0.712  10.236  20.013  0.00  0.00    +0.000 A 
ATOM     10  F   UNK     1       0.663  11.151  19.037  0.00  0.00    +0.000 F 
ATOM     11  C   UNK     1       0.259  10.540  21.288  0.00  0.00    +0.000 A 
ATOM     12  C   UNK     1       0.335   9.542  22.254  0.00  0.00    +0.000 A 
ATOM     13  F   UNK     1      -0.089   9.794  23.500  0.00  0.00    +0.000 F 
ATOM     14  C   UNK     1       0.860   8.275  21.972  0.00  0.00    +0.000 A 
BRANCH  11  15
ATOM     15  C   UNK     1      -0.282  11.885  21.639  0.00  0.00    +0.000 C 
ATOM     16  F   UNK     1      -0.711  12.006  22.926  0.00  0.00    +0.000 F 
ATOM     17  F   UNK     1       0.639  12.878  21.473  0.00  0.00    +0.000 F 
ATOM     18  F   UNK     1      -1.352  12.235  20.870  0.00  0.00    +0.000 F 
ENDBRANCH  11  15
ENDBRANCH   4   7
BRANCH   1  20
ATOM     19  N   UNK     1       5.559   5.664  18.447  0.00  0.00    +0.000 N 
ATOM     20  C   UNK     1       4.890   4.778  19.257  0.00  0.00    +0.000 C 
ATOM     21  O   UNK     1       5.343   3.675  19.554  0.00  0.00    +0.000 OA
ATOM     22  H   UNK     1       5.190   6.591  18.295  0.00  0.00    +0.000 HD
BRANCH  19  23
ATOM     23  C   UNK     1       6.869   5.386  17.874  0.00  0.00    +0.000 C 
BRANCH  23  24
ATOM     24  C   UNK     1       6.698   5.040  16.404  0.00  0.00    +0.000 A 
ATOM     25  N   UNK     1       7.500   5.410  15.418  0.00  0.00    +0.000 NA
ATOM     26  C   UNK     1       7.036   4.886  14.206  0.00  0.00    +0.000 A 
ATOM     27  C   UNK     1       5.883   4.132  14.307  0.00  0.00    +0.000 A 
ATOM     28  S   UNK     1       5.359   4.061  15.929  0.00  0.00    +0.000 S 
BRANCH  26  29
ATOM     29  C   UNK     1       7.778   5.177  12.937  0.00  0.00    +0.000 C 
BRANCH  29  30
ATOM     30  O   UNK     1       8.920   5.999  13.159  0.00  0.00    +0.000 OA
ATOM     31  H   UNK     1       8.588   6.757  13.677  0.00  0.00    +0.000 HD
ENDBRANCH  29  30
ENDBRANCH  26  29
ENDBRANCH  23  24
BRANCH  23  32
ATOM     32  C   UNK     1       7.852   6.581  18.021  0.00  0.00    +0.000 C 
BRANCH  32  33
ATOM     33  N   UNK     1       7.496   7.775  17.244  0.00  0.00    +0.000 NA
ATOM     34  H   UNK     1       6.551   8.074  17.484  0.00  0.00    +0.000 HD
ATOM     35  H   UNK     1       7.496   7.559  16.245  0.00  0.00    +0.000 HD
ENDBRANCH  32  33
ENDBRANCH  23  32
ENDBRANCH  19  23
ENDBRANCH   1  20
TORSDOF 9
ENDMDL
MODEL 2
REMARK VINA RESULT:      -8.1      0.611      1.777
REMARK  Name = 
REMARK  9 active torsions:
REMARK  status: ('A' for Active; 'I' for Inactive)
REMARK    1  A    between atoms: N_1  and  C_2
REMARK    2  A    between atoms: C_2  and  C_3
REMARK    3  A    between atoms: C_3  and  N_4
REMARK    4  A    between atoms: C_3  and  C_24
REMARK    5  A    between atoms: C_5  and  C_7
REMARK    6  A    between atoms: C_10  and  C_11
REMARK    7  A    between atoms: C_15  and  C_16
REMARK    8  A    between atoms: C_26  and  C_27
REMARK    9  A    between atoms: C_27  and  O_28
REMARK                            x       y       z     vdW  Elec       q    Type
REMARK                         _______ _______ _______ _____ _____    ______ ____
ROOT
ATOM      1  C   UNK     1       3.577   5.257  19.730  0.00  0.00    +0.000 A 
ATOM      2  C   UNK     1       2.475   4.545  20.173  0.00  0.00    +0.000 A 
ATOM      3  C   UNK     1       1.493   5.468  20.592  0.00  0.00    +0.000 A 
ATOM      4  C   UNK     1       1.980   6.748  20.395  0.00  0.00    +0.000 A 
ATOM      5  N   UNK     1       3.242   6.597  19.849  0.00  0.00    +0.000 N 
ATOM      6  H   UNK     1       3.874   7.347  19.608  0.00  0.00    +0.000 HD
ENDROOT
BRANCH   4   7
ATOM      7  C   UNK     1       1.336   8.031  20.694  0.00  0.00    +0.000 A 
ATOM      8  C   UNK     1       0.864   8.281  21.992  0.00  0.00    +0.000 A 
ATOM      9  C   UNK     1       0.175   9.458  22.291  0.00  0.00    +0.000 A 
ATOM     10  F   UNK     1      -0.261   9.631  23.545  0.00  0.00    +0.000 F 
ATOM     11  C   UNK     1      -0.065  10.419  21.321  0.00  0.00    +0.000 A 
ATOM     12  C   UNK     1       0.420  10.177  20.040  0.00  0.00    +0.000 A 
ATOM     13  F   UNK     1       0.206  11.078  19.071  0.00  0.00    +0.000 F 
ATOM     14  C   UNK     1       1.115   9.005  19.718  0.00  0.00    +0.000 A 
BRANCH  11  15
ATOM     15  C   UNK     1      -0.827  11.668  21.613  0.00  0.00    +0.000 C 
ATOM     16  F   UNK     1      -1.458  12.212  20.535  0.00  0.00    +0.000 F 
ATOM     17  F   UNK     1      -1.805  11.478  22.544  0.00  0.00    +0.000 F 
ATOM     18  F   UNK     1      -0.032  12.662  22.102  0.00  0.00    +0.000 F 
ENDBRANCH  11  15
ENDBRANCH   4   7
BRANCH   1  20
ATOM     19  N   UNK     1       5.540   5.711  18.459  0.00  0.00    +0.000 N 
ATOM     20  C   UNK     1       4.873   4.810  19.253  0.00  0.00    +0.000 C 
ATOM     21  O   UNK     1       5.316   3.693  19.510  0.00  0.00    +0.000 OA
ATOM     22  H   UNK     1       5.181   6.647  18.341  0.00  0.00    +0.000 HD
BRANCH  19  23
ATOM     23  C   UNK     1       6.836   5.434  17.857  0.00  0.00    +0.000 C 
BRANCH  23  24
ATOM     24  C   UNK     1       6.633   5.087  16.391  0.00  0.00    +0.000 A 
ATOM     25  N   UNK     1       7.460   5.378  15.399  0.00  0.00    +0.000 NA
ATOM     26  C   UNK     1       6.949   4.883  14.194  0.00  0.00    +0.000 A 
ATOM     27  C   UNK     1       5.737   4.230  14.305  0.00  0.00    +0.000 A 
ATOM     28  S   UNK     1       5.214   4.220  15.930  0.00  0.00    +0.000 S 
BRANCH  26  29
ATOM     29  C   UNK     1       7.709   5.096  12.920  0.00  0.00    +0.000 C 
BRANCH  29  30
ATOM     30  O   UNK     1       7.270   4.228  11.880  0.00  0.00    +0.000 OA
ATOM     31  H   UNK     1       8.087   3.837  11.517  0.00  0.00    +0.000 HD
ENDBRANCH  29  30
ENDBRANCH  26  29
ENDBRANCH  23  24
BRANCH  23  32
ATOM     32  C   UNK     1       7.823   6.629  17.981  0.00  0.00    +0.000 C 
BRANCH  32  33
ATOM     33  N   UNK     1       7.485   7.798  17.158  0.00  0.00    +0.000 NA
ATOM     34  H   UNK     1       6.510   7.745  16.866  0.00  0.00    +0.000 HD
ATOM     35  H   UNK     1       8.052   7.805  16.307  0.00  0.00    +0.000 HD
ENDBRANCH  32  33
ENDBRANCH  23  32
ENDBRANCH  19  23
ENDBRANCH   1  20
TORSDOF 9
ENDMDL
MODEL 3
REMARK VINA RESULT:      -7.9      0.857      1.122
REMARK  Name = 
REMARK  9 active torsions:
REMARK  status: ('A' for Active; 'I' for Inactive)
REMARK    1  A    between atoms: N_1  and  C_2
REMARK    2  A    between atoms: C_2  and  C_3
REMARK    3  A    between atoms: C_3  and  N_4
REMARK    4  A    between atoms: C_3  and  C_24
REMARK    5  A    between atoms: C_5  and  C_7
REMARK    6  A    between atoms: C_10  and  C_11
REMARK    7  A    between atoms: C_15  and  C_16
REMARK    8  A    between atoms: C_26  and  C_27
REMARK    9  A    between atoms: C_27  and  O_28
REMARK                            x       y       z     vdW  Elec       q    Type
REMARK                         _______ _______ _______ _____ _____    ______ ____
ROOT
ATOM      1  C   UNK     1       3.380   4.870  19.833  0.00  0.00    +0.000 A 
ATOM      2  C   UNK     1       2.211   4.283  20.287  0.00  0.00    +0.000 A 
ATOM      3  C   UNK     1       1.311   5.310  20.642  0.00  0.00    +0.000 A 
ATOM      4  C   UNK     1       1.915   6.530  20.394  0.00  0.00    +0.000 A 
ATOM      5  N   UNK     1       3.167   6.239  19.880  0.00  0.00    +0.000 N 
ATOM      6  H   UNK     1       3.868   6.916  19.617  0.00  0.00    +0.000 HD
ENDROOT
BRANCH   4   7
ATOM      7  C   UNK     1       1.386   7.879  20.618  0.00  0.00    +0.000 A 
ATOM      8  C   UNK     1       1.398   8.809  19.567  0.00  0.00    +0.000 A 
ATOM      9  C   UNK     1       0.976  10.124  19.767  0.00  0.00    +0.000 A 
ATOM     10  F   UNK     1       1.024  10.967  18.728  0.00  0.00    +0.000 F 
ATOM     11  C   UNK     1       0.532  10.558  21.008  0.00  0.00    +0.000 A 
ATOM     12  C   UNK     1       0.504   9.630  22.043  0.00  0.00    +0.000 A 
ATOM     13  F   UNK     1       0.085  10.008  23.259  0.00  0.00    +0.000 F 
ATOM     14  C   UNK     1       0.919   8.304  21.863  0.00  0.00    +0.000 A 
BRANCH  11  15
ATOM     15  C   UNK     1       0.108  11.967  21.250  0.00  0.00    +0.000 C 
ATOM     16  F   UNK     1       1.101  12.890  21.110  0.00  0.00    +0.000 F 
ATOM     17  F   UNK     1      -0.879  12.370  20.400  0.00  0.00    +0.000 F 
ATOM     18  F   UNK     1      -0.381  12.156  22.508  0.00  0.00    +0.000 F 
ENDBRANCH  11  15
ENDBRANCH   4   7
BRANCH   1  20
ATOM     19  N   UNK     1       5.403   5.087  18.594  0.00  0.00    +0.000 N 
ATOM     20  C   UNK     1       4.637   4.284  19.404  0.00  0.00    +0.000 C 
ATOM     21  O   UNK     1       4.967   3.141  19.713  0.00  0.00    +0.000 OA
ATOM     22  H   UNK     1       5.137   6.047  18.433  0.00  0.00    +0.000 HD
BRANCH  19  23
ATOM     23  C   UNK     1       6.679   4.666  18.034  0.00  0.00    +0.000 C 
BRANCH  23  24
ATOM     24  C   UNK     1       6.561   4.626  16.519  0.00  0.00    +0.000 A 
ATOM     25  N   UNK     1       7.485   5.015  15.654  0.00  0.00    +0.000 NA
ATOM     26  C   UNK     1       7.028   4.810  14.347  0.00  0.00    +0.000 A 
ATOM     27  C   UNK     1       5.759   4.272  14.256  0.00  0.00    +0.000 A 
ATOM     28  S   UNK     1       5.112   4.007  15.813  0.00  0.00    +0.000 S 
BRANCH  26  29
ATOM     29  C   UNK     1       7.900   5.184  13.187  0.00  0.00    +0.000 C 
BRANCH  29  30
ATOM     30  O   UNK     1       7.449   4.605  11.967  0.00  0.00    +0.000 OA
ATOM     31  H   UNK     1       8.110   3.918  11.755  0.00  0.00    +0.000 HD
ENDBRANCH  29  30
ENDBRANCH  26  29
ENDBRANCH  23  24
BRANCH  23  32
ATOM     32  C   UNK     1       7.851   5.601  18.443  0.00  0.00    +0.000 C 
BRANCH  32  33
ATOM     33  N   UNK     1       8.205   5.562  19.868  0.00  0.00    +0.000 NA
ATOM     34  H   UNK     1       9.219   5.560  19.973  0.00  0.00    +0.000 HD
ATOM     35  H   UNK     1       7.860   4.699  20.294  0.00  0.00    +0.000 HD
ENDBRANCH  32  33
ENDBRANCH  23  32
ENDBRANCH  19  23
ENDBRANCH   1  20
TORSDOF 9
ENDMDL
MODEL 4
REMARK VINA RESULT:      -7.8      1.569      2.012
REMARK  Name = 
REMARK  9 active torsions:
REMARK  status: ('A' for Active; 'I' for Inactive)
REMARK    1  A    between atoms: N_1  and  C_2
REMARK    2  A    between atoms: C_2  and  C_3
REMARK    3  A    between atoms: C_3  and  N_4
REMARK    4  A    between atoms: C_3  and  C_24
REMARK    5  A    between atoms: C_5  and  C_7
REMARK    6  A    between atoms: C_10  and  C_11
REMARK    7  A    between atoms: C_15  and  C_16
REMARK    8  A    between atoms: C_26  and  C_27
REMARK    9  A    between atoms: C_27  and  O_28
REMARK                            x       y       z     vdW  Elec       q    Type
REMARK                         _______ _______ _______ _____ _____    ______ ____
ROOT
ATOM      1  C   UNK     1       3.044   7.312  18.558  0.00  0.00    +0.000 A 
ATOM      2  C   UNK     1       2.576   8.013  17.459  0.00  0.00    +0.000 A 
ATOM      3  C   UNK     1       1.603   8.931  17.905  0.00  0.00    +0.000 A 
ATOM      4  C   UNK     1       1.478   8.810  19.277  0.00  0.00    +0.000 A 
ATOM      5  N   UNK     1       2.381   7.833  19.658  0.00  0.00    +0.000 N 
ATOM      6  H   UNK     1       2.519   7.492  20.598  0.00  0.00    +0.000 HD
ENDROOT
BRANCH   4   7
ATOM      7  C   UNK     1       0.584   9.536  20.186  0.00  0.00    +0.000 A 
ATOM      8  C   UNK     1      -0.159  10.623  19.702  0.00  0.00    +0.000 A 
ATOM      9  C   UNK     1      -0.958  11.385  20.556  0.00  0.00    +0.000 A 
ATOM     10  F   UNK     1      -1.632  12.417  20.035  0.00  0.00    +0.000 F 
ATOM     11  C   UNK     1      -1.044  11.096  21.910  0.00  0.00    +0.000 A 
ATOM     12  C   UNK     1      -0.321  10.007  22.384  0.00  0.00    +0.000 A 
ATOM     13  F   UNK     1      -0.373   9.695  23.687  0.00  0.00    +0.000 F 
ATOM     14  C   UNK     1       0.484   9.227  21.544  0.00  0.00    +0.000 A 
BRANCH  11  15
ATOM     15  C   UNK     1      -1.866  11.918  22.845  0.00  0.00    +0.000 C 
ATOM     16  F   UNK     1      -2.488  11.208  23.827  0.00  0.00    +0.000 F 
ATOM     17  F   UNK     1      -1.129  12.862  23.496  0.00  0.00    +0.000 F 
ATOM     18  F   UNK     1      -2.862  12.595  22.207  0.00  0.00    +0.000 F 
ENDBRANCH  11  15
ENDBRANCH   4   7
BRANCH   1  20
ATOM     19  N   UNK     1       4.960   6.203  17.679  0.00  0.00    +0.000 N 
ATOM     20  C   UNK     1       3.996   6.220  18.658  0.00  0.00    +0.000 C 
ATOM     21  O   UNK     1       3.916   5.358  19.530  0.00  0.00    +0.000 OA
ATOM     22  H   UNK     1       5.042   6.974  17.033  0.00  0.00    +0.000 HD
BRANCH  19  23
ATOM     23  C   UNK     1       5.983   5.170  17.588  0.00  0.00    +0.000 C 
BRANCH  23  24
ATOM     24  C   UNK     1       6.218   4.840  16.123  0.00  0.00    +0.000 A 
ATOM     25  N   UNK     1       7.148   5.371  15.344  0.00  0.00    +0.000 NA
ATOM     26  C   UNK     1       7.074   4.809  14.065  0.00  0.00    +0.000 A 
ATOM     27  C   UNK     1       6.078   3.864  13.906  0.00  0.00    +0.000 A 
ATOM     28  S   UNK     1       5.215   3.658  15.364  0.00  0.00    +0.000 S 
BRANCH  26  29
ATOM     29  C   UNK     1       8.025   5.258  12.998  0.00  0.00    +0.000 C 
BRANCH  29  30
ATOM     30  O   UNK     1       9.008   6.158  13.500  0.00  0.00    +0.000 OA
ATOM     31  H   UNK     1       9.787   5.600  13.688  0.00  0.00    +0.000 HD
ENDBRANCH  29  30
ENDBRANCH  26  29
ENDBRANCH  23  24
BRANCH  23  32
ATOM     32  C   UNK     1       7.323   5.594  18.252  0.00  0.00    +0.000 C 
BRANCH  32  33
ATOM     33  N   UNK     1       7.363   5.447  19.713  0.00  0.00    +0.000 NA
ATOM     34  H   UNK     1       6.419   5.313  20.073  0.00  0.00    +0.000 HD
ATOM     35  H   UNK     1       7.728   6.300  20.143  0.00  0.00    +0.000 HD
ENDBRANCH  32  33
ENDBRANCH  23  32
ENDBRANCH  19  23
ENDBRANCH   1  20
TORSDOF 9
ENDMDL
MODEL 5
REMARK VINA RESULT:      -7.8      1.997      2.727
REMARK  Name = 
REMARK  9 active torsions:
REMARK  status: ('A' for Active; 'I' for Inactive)
REMARK    1  A    between atoms: N_1  and  C_2
REMARK    2  A    between atoms: C_2  and  C_3
REMARK    3  A    between atoms: C_3  and  N_4
REMARK    4  A    between atoms: C_3  and  C_24
REMARK    5  A    between atoms: C_5  and  C_7
REMARK    6  A    between atoms: C_10  and  C_11
REMARK    7  A    between atoms: C_15  and  C_16
REMARK    8  A    between atoms: C_26  and  C_27
REMARK    9  A    between atoms: C_27  and  O_28
REMARK                            x       y       z     vdW  Elec       q    Type
REMARK                         _______ _______ _______ _____ _____    ______ ____
ROOT
ATOM      1  C   UNK     1       2.517   7.321  18.692  0.00  0.00    +0.000 A 
ATOM      2  C   UNK     1       2.534   8.310  17.722  0.00  0.00    +0.000 A 
ATOM      3  C   UNK     1       1.750   9.389  18.180  0.00  0.00    +0.000 A 
ATOM      4  C   UNK     1       1.261   9.077  19.436  0.00  0.00    +0.000 A 
ATOM      5  N   UNK     1       1.758   7.822  19.739  0.00  0.00    +0.000 N 
ATOM      6  H   UNK     1       1.566   7.299  20.580  0.00  0.00    +0.000 HD
ENDROOT
BRANCH   4   7
ATOM      7  C   UNK     1       0.387   9.872  20.305  0.00  0.00    +0.000 A 
ATOM      8  C   UNK     1      -0.252  11.009  19.788  0.00  0.00    +0.000 A 
ATOM      9  C   UNK     1      -1.026  11.832  20.607  0.00  0.00    +0.000 A 
ATOM     10  F   UNK     1      -1.599  12.910  20.057  0.00  0.00    +0.000 F 
ATOM     11  C   UNK     1      -1.191  11.557  21.956  0.00  0.00    +0.000 A 
ATOM     12  C   UNK     1      -0.572  10.419  22.463  0.00  0.00    +0.000 A 
ATOM     13  F   UNK     1      -0.703  10.118  23.762  0.00  0.00    +0.000 F 
ATOM     14  C   UNK     1       0.206   9.578  21.658  0.00  0.00    +0.000 A 
BRANCH  11  15
ATOM     15  C   UNK     1      -1.987  12.442  22.855  0.00  0.00    +0.000 C 
ATOM     16  F   UNK     1      -1.243  13.250  23.661  0.00  0.00    +0.000 F 
ATOM     17  F   UNK     1      -2.810  13.283  22.166  0.00  0.00    +0.000 F 
ATOM     18  F   UNK     1      -2.794  11.739  23.700  0.00  0.00    +0.000 F 
ENDBRANCH  11  15
ENDBRANCH   4   7
BRANCH   1  20
ATOM     19  N   UNK     1       3.989   5.738  17.691  0.00  0.00    +0.000 N 
ATOM     20  C   UNK     1       3.101   5.993  18.709  0.00  0.00    +0.000 C 
ATOM     21  O   UNK     1       2.791   5.150  19.548  0.00  0.00    +0.000 OA
ATOM     22  H   UNK     1       4.279   6.481  17.073  0.00  0.00    +0.000 HD
BRANCH  19  23
ATOM     23  C   UNK     1       4.652   4.453  17.517  0.00  0.00    +0.000 C 
BRANCH  23  24
ATOM     24  C   UNK     1       5.489   4.501  16.248  0.00  0.00    +0.000 A 
ATOM     25  N   UNK     1       5.218   3.878  15.112  0.00  0.00    +0.000 NA
ATOM     26  C   UNK     1       6.202   4.174  14.162  0.00  0.00    +0.000 A 
ATOM     27  C   UNK     1       7.202   5.015  14.609  0.00  0.00    +0.000 A 
ATOM     28  S   UNK     1       6.926   5.456  16.235  0.00  0.00    +0.000 S 
BRANCH  26  29
ATOM     29  C   UNK     1       6.117   3.575  12.791  0.00  0.00    +0.000 C 
BRANCH  29  30
ATOM     30  O   UNK     1       7.095   4.113  11.908  0.00  0.00    +0.000 OA
ATOM     31  H   UNK     1       6.639   4.837  11.438  0.00  0.00    +0.000 HD
ENDBRANCH  29  30
ENDBRANCH  26  29
ENDBRANCH  23  24
BRANCH  23  32
ATOM     32  C   UNK     1       5.553   4.076  18.725  0.00  0.00    +0.000 C 
BRANCH  32  33
ATOM     33  N   UNK     1       5.062   2.954  19.537  0.00  0.00    +0.000 NA
ATOM     34  H   UNK     1       5.623   2.123  19.354  0.00  0.00    +0.000 HD
ATOM     35  H   UNK     1       4.099   2.727  19.279  0.00  0.00    +0.000 HD
ENDBRANCH  32  33
ENDBRANCH  23  32
ENDBRANCH  19  23
ENDBRANCH   1  20
TORSDOF 9
ENDMDL
MODEL 6
REMARK VINA RESULT:      -7.8      0.851      1.899
REMARK  Name = 
REMARK  9 active torsions:
REMARK  status: ('A' for Active; 'I' for Inactive)
REMARK    1  A    between atoms: N_1  and  C_2
REMARK    2  A    between atoms: C_2  and  C_3
REMARK    3  A    between atoms: C_3  and  N_4
REMARK    4  A    between atoms: C_3  and  C_24
REMARK    5  A    between atoms: C_5  and  C_7
REMARK    6  A    between atoms: C_10  and  C_11
REMARK    7  A    between atoms: C_15  and  C_16
REMARK    8  A    between atoms: C_26  and  C_27
REMARK    9  A    between atoms: C_27  and  O_28
REMARK                            x       y       z     vdW  Elec       q    Type
REMARK                         _______ _______ _______ _____ _____    ______ ____
ROOT
ATOM      1  C   UNK     1       3.174   5.035  19.862  0.00  0.00    +0.000 A 
ATOM      2  C   UNK     1       2.061   4.475  20.466  0.00  0.00    +0.000 A 
ATOM      3  C   UNK     1       1.220   5.524  20.897  0.00  0.00    +0.000 A 
ATOM      4  C   UNK     1       1.803   6.729  20.547  0.00  0.00    +0.000 A 
ATOM      5  N   UNK     1       2.983   6.408  19.897  0.00  0.00    +0.000 N 
ATOM      6  H   UNK     1       3.655   7.068  19.535  0.00  0.00    +0.000 HD
ENDROOT
BRANCH   4   7
ATOM      7  C   UNK     1       1.319   8.090  20.796  0.00  0.00    +0.000 A 
ATOM      8  C   UNK     1       0.835   8.429  22.068  0.00  0.00    +0.000 A 
ATOM      9  C   UNK     1       0.293   9.691  22.318  0.00  0.00    +0.000 A 
ATOM     10  F   UNK     1      -0.164   9.948  23.550  0.00  0.00    +0.000 F 
ATOM     11  C   UNK     1       0.213  10.651  21.321  0.00  0.00    +0.000 A 
ATOM     12  C   UNK     1       0.710  10.319  20.064  0.00  0.00    +0.000 A 
ATOM     13  F   UNK     1       0.649  11.216  19.071  0.00  0.00    +0.000 F 
ATOM     14  C   UNK     1       1.261   9.060  19.793  0.00  0.00    +0.000 A 
BRANCH  11  15
ATOM     15  C   UNK     1      -0.392  11.993  21.558  0.00  0.00    +0.000 C 
ATOM     16  F   UNK     1       0.424  13.044  21.266  0.00  0.00    +0.000 F 
ATOM     17  F   UNK     1      -1.519  12.197  20.817  0.00  0.00    +0.000 F 
ATOM     18  F   UNK     1      -0.761  12.177  22.858  0.00  0.00    +0.000 F 
ENDBRANCH  11  15
ENDBRANCH   4   7
BRANCH   1  20
ATOM     19  N   UNK     1       5.362   5.302  18.958  0.00  0.00    +0.000 N 
ATOM     20  C   UNK     1       4.365   4.422  19.304  0.00  0.00    +0.000 C 
ATOM     21  O   UNK     1       4.454   3.210  19.119  0.00  0.00    +0.000 OA
ATOM     22  H   UNK     1       5.285   6.278  19.203  0.00  0.00    +0.000 HD
BRANCH  19  23
ATOM     23  C   UNK     1       6.619   4.885  18.352  0.00  0.00    +0.000 C 
BRANCH  23  24
ATOM     24  C   UNK     1       6.506   5.026  16.843  0.00  0.00    +0.000 A 
ATOM     25  N   UNK     1       7.467   4.785  15.964  0.00  0.00    +0.000 NA
ATOM     26  C   UNK     1       6.989   5.004  14.667  0.00  0.00    +0.000 A 
ATOM     27  C   UNK     1       5.672   5.414  14.598  0.00  0.00    +0.000 A 
ATOM     28  S   UNK     1       5.002   5.529  16.164  0.00  0.00    +0.000 S 
BRANCH  26  29
ATOM     29  C   UNK     1       7.901   4.803  13.495  0.00  0.00    +0.000 C 
BRANCH  29  30
ATOM     30  O   UNK     1       8.737   5.933  13.264  0.00  0.00    +0.000 OA
ATOM     31  H   UNK     1       9.643   5.572  13.233  0.00  0.00    +0.000 HD
ENDBRANCH  29  30
ENDBRANCH  26  29
ENDBRANCH  23  24
BRANCH  23  32
ATOM     32  C   UNK     1       7.834   5.706  18.867  0.00  0.00    +0.000 C 
BRANCH  32  33
ATOM     33  N   UNK     1       8.161   5.504  20.285  0.00  0.00    +0.000 NA
ATOM     34  H   UNK     1       8.838   6.204  20.586  0.00  0.00    +0.000 HD
ATOM     35  H   UNK     1       8.597   4.590  20.420  0.00  0.00    +0.000 HD
ENDBRANCH  32  33
ENDBRANCH  23  32
ENDBRANCH  19  23
ENDBRANCH   1  20
TORSDOF 9
ENDMDL
MODEL 7
REMARK VINA RESULT:      -7.8      2.132      3.204
REMARK  Name = 
REMARK  9 active torsions:
REMARK  status: ('A' for Active; 'I' for Inactive)
REMARK    1  A    between atoms: N_1  and  C_2
REMARK    2  A    between atoms: C_2  and  C_3
REMARK    3  A    between atoms: C_3  and  N_4
REMARK    4  A    between atoms: C_3  and  C_24
REMARK    5  A    between atoms: C_5  and  C_7
REMARK    6  A    between atoms: C_10  and  C_11
REMARK    7  A    between atoms: C_15  and  C_16
REMARK    8  A    between atoms: C_26  and  C_27
REMARK    9  A    between atoms: C_27  and  O_28
REMARK                            x       y       z     vdW  Elec       q    Type
REMARK                         _______ _______ _______ _____ _____    ______ ____
ROOT
ATOM      1  C   UNK     1       2.519   7.356  18.638  0.00  0.00    +0.000 A 
ATOM      2  C   UNK     1       2.532   8.325  17.649  0.00  0.00    +0.000 A 
ATOM      3  C   UNK     1       1.792   9.434  18.111  0.00  0.00    +0.000 A 
ATOM      4  C   UNK     1       1.335   9.159  19.387  0.00  0.00    +0.000 A 
ATOM      5  N   UNK     1       1.808   7.896  19.698  0.00  0.00    +0.000 N 
ATOM      6  H   UNK     1       1.629   7.394  20.555  0.00  0.00    +0.000 HD
ENDROOT
BRANCH   4   7
ATOM      7  C   UNK     1       0.511   9.994  20.268  0.00  0.00    +0.000 A 
ATOM      8  C   UNK     1       0.367   9.640  21.618  0.00  0.00    +0.000 A 
ATOM      9  C   UNK     1      -0.472  10.366  22.464  0.00  0.00    +0.000 A 
ATOM     10  F   UNK     1      -0.577   9.971  23.739  0.00  0.00    +0.000 F 
ATOM     11  C   UNK     1      -1.192  11.458  22.003  0.00  0.00    +0.000 A 
ATOM     12  C   UNK     1      -1.034  11.818  20.669  0.00  0.00    +0.000 A 
ATOM     13  F   UNK     1      -1.713  12.865  20.181  0.00  0.00    +0.000 F 
ATOM     14  C   UNK     1      -0.194  11.106  19.803  0.00  0.00    +0.000 A 
BRANCH  11  15
ATOM     15  C   UNK     1      -2.119  12.226  22.883  0.00  0.00    +0.000 C 
ATOM     16  F   UNK     1      -3.093  12.910  22.221  0.00  0.00    +0.000 F 
ATOM     17  F   UNK     1      -2.780  11.429  23.770  0.00  0.00    +0.000 F 
ATOM     18  F   UNK     1      -1.471  13.163  23.633  0.00  0.00    +0.000 F 
ENDBRANCH  11  15
ENDBRANCH   4   7
BRANCH   1  20
ATOM     19  N   UNK     1       3.972   5.738  17.664  0.00  0.00    +0.000 N 
ATOM     20  C   UNK     1       3.067   6.012  18.662  0.00  0.00    +0.000 C 
ATOM     21  O   UNK     1       2.715   5.175  19.490  0.00  0.00    +0.000 OA
ATOM     22  H   UNK     1       4.297   6.475  17.057  0.00  0.00    +0.000 HD
BRANCH  19  23
ATOM     23  C   UNK     1       4.605   4.437  17.500  0.00  0.00    +0.000 C 
BRANCH  23  24
ATOM     24  C   UNK     1       5.511   4.483  16.280  0.00  0.00    +0.000 A 
ATOM     25  N   UNK     1       5.205   4.055  15.065  0.00  0.00    +0.000 NA
ATOM     26  C   UNK     1       6.279   4.280  14.197  0.00  0.00    +0.000 A 
ATOM     27  C   UNK     1       7.381   4.872  14.784  0.00  0.00    +0.000 A 
ATOM     28  S   UNK     1       7.089   5.163  16.440  0.00  0.00    +0.000 S 
BRANCH  26  29
ATOM     29  C   UNK     1       6.173   3.870  12.760  0.00  0.00    +0.000 C 
BRANCH  29  30
ATOM     30  O   UNK     1       5.984   2.466  12.614  0.00  0.00    +0.000 OA
ATOM     31  H   UNK     1       6.598   2.062  13.256  0.00  0.00    +0.000 HD
ENDBRANCH  29  30
ENDBRANCH  26  29
ENDBRANCH  23  24
BRANCH  23  32
ATOM     32  C   UNK     1       5.427   4.009  18.747  0.00  0.00    +0.000 C 
BRANCH  32  33
ATOM     33  N   UNK     1       4.909   2.830  19.454  0.00  0.00    +0.000 NA
ATOM     34  H   UNK     1       4.190   3.113  20.119  0.00  0.00    +0.000 HD
ATOM     35  H   UNK     1       5.656   2.386  19.994  0.00  0.00    +0.000 HD
ENDBRANCH  32  33
ENDBRANCH  23  32
ENDBRANCH  19  23
ENDBRANCH   1  20
TORSDOF 9
ENDMDL
MODEL 8
REMARK VINA RESULT:      -7.7      1.599      2.528
REMARK  Name = 
REMARK  9 active torsions:
REMARK  status: ('A' for Active; 'I' for Inactive)
REMARK    1  A    between atoms: N_1  and  C_2
REMARK    2  A    between atoms: C_2  and  C_3
REMARK    3  A    between atoms: C_3  and  N_4
REMARK    4  A    between atoms: C_3  and  C_24
REMARK    5  A    between atoms: C_5  and  C_7
REMARK    6  A    between atoms: C_10  and  C_11
REMARK    7  A    between atoms: C_15  and  C_16
REMARK    8  A    between atoms: C_26  and  C_27
REMARK    9  A    between atoms: C_27  and  O_28
REMARK                            x       y       z     vdW  Elec       q    Type
REMARK                         _______ _______ _______ _____ _____    ______ ____
ROOT
ATOM      1  C   UNK     1       2.898   7.456  18.514  0.00  0.00    +0.000 A 
ATOM      2  C   UNK     1       2.396   8.124  17.409  0.00  0.00    +0.000 A 
ATOM      3  C   UNK     1       1.472   9.089  17.862  0.00  0.00    +0.000 A 
ATOM      4  C   UNK     1       1.413   9.030  19.243  0.00  0.00    +0.000 A 
ATOM      5  N   UNK     1       2.306   8.043  19.621  0.00  0.00    +0.000 N 
ATOM      6  H   UNK     1       2.482   7.738  20.567  0.00  0.00    +0.000 HD
ENDROOT
BRANCH   4   7
ATOM      7  C   UNK     1       0.587   9.820  20.162  0.00  0.00    +0.000 A 
ATOM      8  C   UNK     1       0.481   9.429  21.505  0.00  0.00    +0.000 A 
ATOM      9  C   UNK     1      -0.358  10.111  22.387  0.00  0.00    +0.000 A 
ATOM     10  F   UNK     1      -0.425   9.681  23.653  0.00  0.00    +0.000 F 
ATOM     11  C   UNK     1      -1.115  11.195  21.970  0.00  0.00    +0.000 A 
ATOM     12  C   UNK     1      -0.995  11.592  20.642  0.00  0.00    +0.000 A 
ATOM     13  F   UNK     1      -1.711  12.633  20.195  0.00  0.00    +0.000 F 
ATOM     14  C   UNK     1      -0.156  10.925  19.741  0.00  0.00    +0.000 A 
BRANCH  11  15
ATOM     15  C   UNK     1      -2.043  11.916  22.889  0.00  0.00    +0.000 C 
ATOM     16  F   UNK     1      -2.600  11.138  23.857  0.00  0.00    +0.000 F 
ATOM     17  F   UNK     1      -1.430  12.936  23.555  0.00  0.00    +0.000 F 
ATOM     18  F   UNK     1      -3.096  12.479  22.231  0.00  0.00    +0.000 F 
ENDBRANCH  11  15
ENDBRANCH   4   7
BRANCH   1  20
ATOM     19  N   UNK     1       5.022   6.525  17.967  0.00  0.00    +0.000 N 
ATOM     20  C   UNK     1       3.823   6.342  18.615  0.00  0.00    +0.000 C 
ATOM     21  O   UNK     1       3.536   5.301  19.201  0.00  0.00    +0.000 OA
ATOM     22  H   UNK     1       5.252   7.423  17.570  0.00  0.00    +0.000 HD
BRANCH  19  23
ATOM     23  C   UNK     1       6.066   5.510  17.924  0.00  0.00    +0.000 C 
BRANCH  23  24
ATOM     24  C   UNK     1       6.223   5.030  16.490  0.00  0.00    +0.000 A 
ATOM     25  N   UNK     1       7.033   5.548  15.579  0.00  0.00    +0.000 NA
ATOM     26  C   UNK     1       6.921   4.831  14.383  0.00  0.00    +0.000 A 
ATOM     27  C   UNK     1       6.019   3.785  14.418  0.00  0.00    +0.000 A 
ATOM     28  S   UNK     1       5.294   3.676  15.959  0.00  0.00    +0.000 S 
BRANCH  26  29
ATOM     29  C   UNK     1       7.739   5.236  13.194  0.00  0.00    +0.000 C 
BRANCH  29  30
ATOM     30  O   UNK     1       8.857   6.039  13.559  0.00  0.00    +0.000 OA
ATOM     31  H   UNK     1       9.388   6.116  12.744  0.00  0.00    +0.000 HD
ENDBRANCH  29  30
ENDBRANCH  26  29
ENDBRANCH  23  24
BRANCH  23  32
ATOM     32  C   UNK     1       7.430   6.032  18.455  0.00  0.00    +0.000 C 
BRANCH  32  33
ATOM     33  N   UNK     1       7.793   5.558  19.797  0.00  0.00    +0.000 NA
ATOM     34  H   UNK     1       7.137   5.928  20.484  0.00  0.00    +0.000 HD
ATOM     35  H   UNK     1       8.720   5.903  20.055  0.00  0.00    +0.000 HD
ENDBRANCH  32  33
ENDBRANCH  23  32
ENDBRANCH  19  23
ENDBRANCH   1  20
TORSDOF 9
ENDMDL
MODEL 9
REMARK VINA RESULT:      -7.6      6.404      9.619
REMARK  Name = 
REMARK  9 active torsions:
REMARK  status: ('A' for Active; 'I' for Inactive)
REMARK    1  A    between atoms: N_1  and  C_2
REMARK    2  A    between atoms: C_2  and  C_3
REMARK    3  A    between atoms: C_3  and  N_4
REMARK    4  A    between atoms: C_3  and  C_24
REMARK    5  A    between atoms: C_5  and  C_7
REMARK    6  A    between atoms: C_10  and  C_11
REMARK    7  A    between atoms: C_15  and  C_16
REMARK    8  A    between atoms: C_26  and  C_27
REMARK    9  A    between atoms: C_27  and  O_28
REMARK                            x       y       z     vdW  Elec       q    Type
REMARK                         _______ _______ _______ _____ _____    ______ ____
ROOT
ATOM      1  C   UNK     1       1.030   9.556  19.696  0.00  0.00    +0.000 A 
ATOM      2  C   UNK     1       1.107   8.719  20.796  0.00  0.00    +0.000 A 
ATOM      3  C   UNK     1       1.849   7.576  20.428  0.00  0.00    +0.000 A 
ATOM      4  C   UNK     1       2.243   7.712  19.109  0.00  0.00    +0.000 A 
ATOM      5  N   UNK     1       1.753   8.936  18.688  0.00  0.00    +0.000 N 
ATOM      6  H   UNK     1       1.851   9.322  17.761  0.00  0.00    +0.000 HD
ENDROOT
BRANCH   4   7
ATOM      7  C   UNK     1       3.014   6.779  18.280  0.00  0.00    +0.000 A 
ATOM      8  C   UNK     1       2.738   5.405  18.348  0.00  0.00    +0.000 A 
ATOM      9  C   UNK     1       3.504   4.483  17.634  0.00  0.00    +0.000 A 
ATOM     10  F   UNK     1       3.198   3.185  17.750  0.00  0.00    +0.000 F 
ATOM     11  C   UNK     1       4.562   4.890  16.834  0.00  0.00    +0.000 A 
ATOM     12  C   UNK     1       4.822   6.254  16.755  0.00  0.00    +0.000 A 
ATOM     13  F   UNK     1       5.837   6.691  15.997  0.00  0.00    +0.000 F 
ATOM     14  C   UNK     1       4.064   7.197  17.460  0.00  0.00    +0.000 A 
BRANCH  11  15
ATOM     15  C   UNK     1       5.413   3.918  16.089  0.00  0.00    +0.000 C 
ATOM     16  F   UNK     1       5.090   2.610  16.291  0.00  0.00    +0.000 F 
ATOM     17  F   UNK     1       5.353   4.098  14.739  0.00  0.00    +0.000 F 
ATOM     18  F   UNK     1       6.731   4.016  16.422  0.00  0.00    +0.000 F 
ENDBRANCH  11  15
ENDBRANCH   4   7
BRANCH   1  20
ATOM     19  N   UNK     1      -0.957  10.712  19.074  0.00  0.00    +0.000 N 
ATOM     20  C   UNK     1       0.343  10.820  19.506  0.00  0.00    +0.000 C 
ATOM     21  O   UNK     1       0.898  11.902  19.681  0.00  0.00    +0.000 OA
ATOM     22  H   UNK     1      -1.402   9.808  19.023  0.00  0.00    +0.000 HD
BRANCH  19  23
ATOM     23  C   UNK     1      -1.801  11.866  18.793  0.00  0.00    +0.000 C 
BRANCH  23  24
ATOM     24  C   UNK     1      -2.752  11.514  17.660  0.00  0.00    +0.000 A 
ATOM     25  N   UNK     1      -2.408  11.038  16.473  0.00  0.00    +0.000 NA
ATOM     26  C   UNK     1      -3.554  10.815  15.701  0.00  0.00    +0.000 A 
ATOM     27  C   UNK     1      -4.743  11.138  16.326  0.00  0.00    +0.000 A 
ATOM     28  S   UNK     1      -4.448  11.723  17.902  0.00  0.00    +0.000 S 
BRANCH  26  29
ATOM     29  C   UNK     1      -3.419  10.282  14.307  0.00  0.00    +0.000 C 
BRANCH  29  30
ATOM     30  O   UNK     1      -4.649   9.764  13.809  0.00  0.00    +0.000 OA
ATOM     31  H   UNK     1      -4.463   9.522  12.882  0.00  0.00    +0.000 HD
ENDBRANCH  29  30
ENDBRANCH  26  29
ENDBRANCH  23  24
BRANCH  23  32
ATOM     32  C   UNK     1      -2.613  12.330  20.034  0.00  0.00    +0.000 C 
BRANCH  32  33
ATOM     33  N   UNK     1      -2.543  13.770  20.316  0.00  0.00    +0.000 NA
ATOM     34  H   UNK     1      -3.484  14.151  20.406  0.00  0.00    +0.000 HD
ATOM     35  H   UNK     1      -2.095  14.260  19.539  0.00  0.00    +0.000 HD
ENDBRANCH  32  33
ENDBRANCH  23  32
ENDBRANCH  19  23
ENDBRANCH   1  20
TORSDOF 9
ENDMDL
