MODEL 1
REMARK VINA RESULT:      -6.5      0.000      0.000
REMARK  Name = 
REMARK  7 active torsions:
REMARK  status: ('A' for Active; 'I' for Inactive)
REMARK    1  A    between atoms: C_1  and  O_2
REMARK    2  A    between atoms: O_2  and  C_3
REMARK    3  A    between atoms: C_3  and  C_4
REMARK    4  A    between atoms: C_4  and  N_5
REMARK    5  A    between atoms: N_8  and  C_9
REMARK    6  A    between atoms: N_12  and  C_13
REMARK    7  A    between atoms: C_16  and  C_17
REMARK                            x       y       z     vdW  Elec       q    Type
REMARK                         _______ _______ _______ _____ _____    ______ ____
ROOT
ATOM      1  C   UNL     1      -0.853  11.651  22.474  0.00  0.00    +0.000 C 
ATOM      2  C   UNL     1       0.150  12.000  21.359  0.00  0.00    +0.000 C 
ATOM      3  C   UNL     1       0.232  10.921  20.299  0.00  0.00    +0.000 C 
ATOM      4  N   UNL     1       0.642   9.680  20.943  0.00  0.00    +0.000 N 
ATOM      5  C   UNL     1      -0.267   9.169  21.978  0.00  0.00    +0.000 C 
ATOM      6  C   UNL     1      -0.491  10.252  23.044  0.00  0.00    +0.000 C 
ENDROOT
BRANCH   1  10
ATOM      7  N   UNL     1      -3.479  14.661  22.760  0.00  0.00    +0.000 NA
ATOM      8  C   UNL     1      -3.159  13.705  23.843  0.00  0.00    +0.000 C 
ATOM      9  C   UNL     1      -3.100  12.210  23.443  0.00  0.00    +0.000 C 
ATOM     10  N   UNL     1      -2.285  11.945  22.250  0.00  0.00    +0.000 NA
ATOM     11  C   UNL     1      -2.706  12.821  21.164  0.00  0.00    +0.000 C 
ATOM     12  C   UNL     1      -2.753  14.322  21.516  0.00  0.00    +0.000 C 
BRANCH   7  13
ATOM     13  C   UNL     1      -4.921  14.744  22.480  0.00  0.00    +0.000 C 
BRANCH  13  14
ATOM     14  C   UNL     1      -5.787  14.826  23.741  0.00  0.00    +0.000 C 
BRANCH  14  16
ATOM     15  C   UNL     1      -6.699  13.038  22.532  0.00  0.00    +0.000 C 
ATOM     16  O   UNL     1      -6.617  13.665  23.804  0.00  0.00    +0.000 OA
ENDBRANCH  14  16
ENDBRANCH  13  14
ENDBRANCH   7  13
ENDBRANCH   1  10
BRANCH   4  17
ATOM     17  C   UNL     1       1.262   8.744  20.117  0.00  0.00    +0.000 A 
ATOM     18  C   UNL     1       1.629   7.506  20.656  0.00  0.00    +0.000 A 
ATOM     19  C   UNL     1       2.379   6.591  19.915  0.00  0.00    +0.000 A 
ATOM     20  C   UNL     1       2.756   6.881  18.599  0.00  0.00    +0.000 A 
ATOM     21  C   UNL     1       2.398   8.116  18.053  0.00  0.00    +0.000 A 
ATOM     22  C   UNL     1       1.649   9.026  18.800  0.00  0.00    +0.000 A 
BRANCH  20  23
ATOM     23  C   UNL     1       3.486   5.890  17.821  0.00  0.00    +0.000 A 
ATOM     24  C   UNL     1       4.610   6.185  17.067  0.00  0.00    +0.000 A 
ATOM     25  S   UNL     1       5.151   4.780  16.248  0.00  0.00    +0.000 S 
ATOM     26  C   UNL     1       3.858   3.901  16.948  0.00  0.00    +0.000 A 
ATOM     27  N   UNL     1       3.053   4.574  17.738  0.00  0.00    +0.000 NA
ENDBRANCH  20  23
ENDBRANCH   4  17
TORSDOF 6
ENDMDL
MODEL 2
REMARK VINA RESULT:      -6.5      7.819     10.485
REMARK  Name = 
REMARK  7 active torsions:
REMARK  status: ('A' for Active; 'I' for Inactive)
REMARK    1  A    between atoms: C_1  and  O_2
REMARK    2  A    between atoms: O_2  and  C_3
REMARK    3  A    between atoms: C_3  and  C_4
REMARK    4  A    between atoms: C_4  and  N_5
REMARK    5  A    between atoms: N_8  and  C_9
REMARK    6  A    between atoms: N_12  and  C_13
REMARK    7  A    between atoms: C_16  and  C_17
REMARK                            x       y       z     vdW  Elec       q    Type
REMARK                         _______ _______ _______ _____ _____    ______ ____
ROOT
ATOM      1  C   UNL     1       6.262   4.663  17.463  0.00  0.00    +0.000 C 
ATOM      2  C   UNL     1       7.703   4.885  17.962  0.00  0.00    +0.000 C 
ATOM      3  C   UNL     1       7.870   6.212  18.672  0.00  0.00    +0.000 C 
ATOM      4  N   UNL     1       7.515   7.275  17.741  0.00  0.00    +0.000 N 
ATOM      5  C   UNL     1       6.134   7.248  17.242  0.00  0.00    +0.000 C 
ATOM      6  C   UNL     1       5.846   5.884  16.598  0.00  0.00    +0.000 C 
ENDROOT
BRANCH   1  10
ATOM      7  N   UNL     1       2.345   4.856  18.272  0.00  0.00    +0.000 NA
ATOM      8  C   UNL     1       3.374   5.762  18.826  0.00  0.00    +0.000 C 
ATOM      9  C   UNL     1       4.667   5.091  19.352  0.00  0.00    +0.000 C 
ATOM     10  N   UNL     1       5.263   4.131  18.415  0.00  0.00    +0.000 NA
ATOM     11  C   UNL     1       4.250   3.178  17.979  0.00  0.00    +0.000 C 
ATOM     12  C   UNL     1       2.957   3.808  17.424  0.00  0.00    +0.000 C 
BRANCH   7  13
ATOM     13  C   UNL     1       1.519   4.225  19.313  0.00  0.00    +0.000 C 
BRANCH  13  14
ATOM     14  C   UNL     1       1.547   4.968  20.652  0.00  0.00    +0.000 C 
BRANCH  14  16
ATOM     15  C   UNL     1       1.633   2.771  21.463  0.00  0.00    +0.000 C 
ATOM     16  O   UNL     1       2.096   4.101  21.646  0.00  0.00    +0.000 OA
ENDBRANCH  14  16
ENDBRANCH  13  14
ENDBRANCH   7  13
ENDBRANCH   1  10
BRANCH   4  17
ATOM     17  C   UNL     1       8.077   8.523  18.002  0.00  0.00    +0.000 A 
ATOM     18  C   UNL     1       8.946   8.659  19.089  0.00  0.00    +0.000 A 
ATOM     19  C   UNL     1       9.423   9.911  19.480  0.00  0.00    +0.000 A 
ATOM     20  C   UNL     1       9.064  11.062  18.769  0.00  0.00    +0.000 A 
ATOM     21  C   UNL     1       8.192  10.938  17.684  0.00  0.00    +0.000 A 
ATOM     22  C   UNL     1       7.720   9.683  17.300  0.00  0.00    +0.000 A 
BRANCH  20  23
ATOM     23  C   UNL     1       9.617  12.352  19.154  0.00  0.00    +0.000 A 
ATOM     24  C   UNL     1      10.112  12.627  20.419  0.00  0.00    +0.000 A 
ATOM     25  S   UNL     1      10.618  14.262  20.507  0.00  0.00    +0.000 S 
ATOM     26  C   UNL     1      10.140  14.475  18.875  0.00  0.00    +0.000 A 
ATOM     27  N   UNL     1       9.628  13.425  18.274  0.00  0.00    +0.000 NA
ENDBRANCH  20  23
ENDBRANCH   4  17
TORSDOF 6
ENDMDL
MODEL 3
REMARK VINA RESULT:      -6.5      5.131     10.839
REMARK  Name = 
REMARK  7 active torsions:
REMARK  status: ('A' for Active; 'I' for Inactive)
REMARK    1  A    between atoms: C_1  and  O_2
REMARK    2  A    between atoms: O_2  and  C_3
REMARK    3  A    between atoms: C_3  and  C_4
REMARK    4  A    between atoms: C_4  and  N_5
REMARK    5  A    between atoms: N_8  and  C_9
REMARK    6  A    between atoms: N_12  and  C_13
REMARK    7  A    between atoms: C_16  and  C_17
REMARK                            x       y       z     vdW  Elec       q    Type
REMARK                         _______ _______ _______ _____ _____    ______ ____
ROOT
ATOM      1  C   UNL     1       2.659   3.774  18.736  0.00  0.00    +0.000 C 
ATOM      2  C   UNL     1       1.834   4.796  17.931  0.00  0.00    +0.000 C 
ATOM      3  C   UNL     1       2.122   6.224  18.343  0.00  0.00    +0.000 C 
ATOM      4  N   UNL     1       1.808   6.362  19.759  0.00  0.00    +0.000 N 
ATOM      5  C   UNL     1       2.583   5.509  20.669  0.00  0.00    +0.000 C 
ATOM      6  C   UNL     1       2.431   4.039  20.249  0.00  0.00    +0.000 C 
ENDROOT
BRANCH   1  10
ATOM      7  N   UNL     1       5.858   5.601  17.166  0.00  0.00    +0.000 NA
ATOM      8  C   UNL     1       4.768   4.975  16.387  0.00  0.00    +0.000 C 
ATOM      9  C   UNL     1       4.308   3.573  16.855  0.00  0.00    +0.000 C 
ATOM     10  N   UNL     1       4.041   3.484  18.296  0.00  0.00    +0.000 NA
ATOM     11  C   UNL     1       5.185   3.999  19.039  0.00  0.00    +0.000 C 
ATOM     12  C   UNL     1       5.657   5.405  18.619  0.00  0.00    +0.000 C 
BRANCH   7  13
ATOM     13  C   UNL     1       7.190   5.106  16.784  0.00  0.00    +0.000 C 
BRANCH  13  14
ATOM     14  C   UNL     1       7.259   4.579  15.348  0.00  0.00    +0.000 C 
BRANCH  14  16
ATOM     15  C   UNL     1       7.801   5.193  13.152  0.00  0.00    +0.000 C 
ATOM     16  O   UNL     1       7.834   5.589  14.516  0.00  0.00    +0.000 OA
ENDBRANCH  14  16
ENDBRANCH  13  14
ENDBRANCH   7  13
ENDBRANCH   1  10
BRANCH   4  17
ATOM     17  C   UNL     1       1.508   7.653  20.191  0.00  0.00    +0.000 A 
ATOM     18  C   UNL     1       1.088   7.842  21.511  0.00  0.00    +0.000 A 
ATOM     19  C   UNL     1       0.640   9.089  21.954  0.00  0.00    +0.000 A 
ATOM     20  C   UNL     1       0.630  10.188  21.089  0.00  0.00    +0.000 A 
ATOM     21  C   UNL     1       1.044  10.008  19.766  0.00  0.00    +0.000 A 
ATOM     22  C   UNL     1       1.490   8.760  19.332  0.00  0.00    +0.000 A 
BRANCH  20  23
ATOM     23  C   UNL     1       0.216  11.493  21.584  0.00  0.00    +0.000 A 
ATOM     24  C   UNL     1      -0.853  11.683  22.446  0.00  0.00    +0.000 A 
ATOM     25  S   UNL     1      -1.068  13.354  22.753  0.00  0.00    +0.000 S 
ATOM     26  C   UNL     1       0.258  13.692  21.722  0.00  0.00    +0.000 A 
ATOM     27  N   UNL     1       0.843  12.658  21.163  0.00  0.00    +0.000 NA
ENDBRANCH  20  23
ENDBRANCH   4  17
TORSDOF 6
ENDMDL
MODEL 4
REMARK VINA RESULT:      -6.5      4.730     10.743
REMARK  Name = 
REMARK  7 active torsions:
REMARK  status: ('A' for Active; 'I' for Inactive)
REMARK    1  A    between atoms: C_1  and  O_2
REMARK    2  A    between atoms: O_2  and  C_3
REMARK    3  A    between atoms: C_3  and  C_4
REMARK    4  A    between atoms: C_4  and  N_5
REMARK    5  A    between atoms: N_8  and  C_9
REMARK    6  A    between atoms: N_12  and  C_13
REMARK    7  A    between atoms: C_16  and  C_17
REMARK                            x       y       z     vdW  Elec       q    Type
REMARK                         _______ _______ _______ _____ _____    ______ ____
ROOT
ATOM      1  C   UNL     1       2.677   6.576  18.281  0.00  0.00    +0.000 C 
ATOM      2  C   UNL     1       1.988   7.826  17.702  0.00  0.00    +0.000 C 
ATOM      3  C   UNL     1       1.967   8.980  18.683  0.00  0.00    +0.000 C 
ATOM      4  N   UNL     1       1.254   8.549  19.878  0.00  0.00    +0.000 N 
ATOM      5  C   UNL     1       1.845   7.412  20.596  0.00  0.00    +0.000 C 
ATOM      6  C   UNL     1       2.003   6.223  19.635  0.00  0.00    +0.000 C 
ENDROOT
BRANCH   1  10
ATOM      7  N   UNL     1       5.582   4.759  16.208  0.00  0.00    +0.000 NA
ATOM      8  C   UNL     1       4.941   4.219  17.428  0.00  0.00    +0.000 C 
ATOM      9  C   UNL     1       4.759   5.211  18.602  0.00  0.00    +0.000 C 
ATOM     10  N   UNL     1       4.152   6.491  18.212  0.00  0.00    +0.000 NA
ATOM     11  C   UNL     1       4.881   7.055  17.083  0.00  0.00    +0.000 C 
ATOM     12  C   UNL     1       5.061   6.105  15.882  0.00  0.00    +0.000 C 
BRANCH   7  13
ATOM     13  C   UNL     1       7.048   4.811  16.309  0.00  0.00    +0.000 C 
BRANCH  13  14
ATOM     14  C   UNL     1       7.574   4.578  17.729  0.00  0.00    +0.000 C 
BRANCH  14  16
ATOM     15  C   UNL     1       8.093   5.723  19.707  0.00  0.00    +0.000 C 
ATOM     16  O   UNL     1       7.924   5.840  18.302  0.00  0.00    +0.000 OA
ENDBRANCH  14  16
ENDBRANCH  13  14
ENDBRANCH   7  13
ENDBRANCH   1  10
BRANCH   4  17
ATOM     17  C   UNL     1       0.685   9.564  20.645  0.00  0.00    +0.000 A 
ATOM     18  C   UNL     1       0.138   9.243  21.891  0.00  0.00    +0.000 A 
ATOM     19  C   UNL     1      -0.570  10.191  22.634  0.00  0.00    +0.000 A 
ATOM     20  C   UNL     1      -0.721  11.498  22.158  0.00  0.00    +0.000 A 
ATOM     21  C   UNL     1      -0.181  11.828  20.912  0.00  0.00    +0.000 A 
ATOM     22  C   UNL     1       0.524  10.875  20.175  0.00  0.00    +0.000 A 
BRANCH  20  23
ATOM     23  C   UNL     1      -1.409  12.489  22.972  0.00  0.00    +0.000 A 
ATOM     24  C   UNL     1      -2.758  12.422  23.283  0.00  0.00    +0.000 A 
ATOM     25  S   UNL     1      -3.215  13.792  24.204  0.00  0.00    +0.000 S 
ATOM     26  C   UNL     1      -1.603  14.364  24.115  0.00  0.00    +0.000 A 
ATOM     27  N   UNL     1      -0.754  13.616  23.447  0.00  0.00    +0.000 NA
ENDBRANCH  20  23
ENDBRANCH   4  17
TORSDOF 6
ENDMDL
MODEL 5
REMARK VINA RESULT:      -6.4      2.232      3.217
REMARK  Name = 
REMARK  7 active torsions:
REMARK  status: ('A' for Active; 'I' for Inactive)
REMARK    1  A    between atoms: C_1  and  O_2
REMARK    2  A    between atoms: O_2  and  C_3
REMARK    3  A    between atoms: C_3  and  C_4
REMARK    4  A    between atoms: C_4  and  N_5
REMARK    5  A    between atoms: N_8  and  C_9
REMARK    6  A    between atoms: N_12  and  C_13
REMARK    7  A    between atoms: C_16  and  C_17
REMARK                            x       y       z     vdW  Elec       q    Type
REMARK                         _______ _______ _______ _____ _____    ______ ____
ROOT
ATOM      1  C   UNL     1      -0.642  10.242  21.230  0.00  0.00    +0.000 C 
ATOM      2  C   UNL     1      -0.177   8.850  21.697  0.00  0.00    +0.000 C 
ATOM      3  C   UNL     1       1.219   8.516  21.214  0.00  0.00    +0.000 C 
ATOM      4  N   UNL     1       1.219   8.558  19.757  0.00  0.00    +0.000 N 
ATOM      5  C   UNL     1       0.878   9.855  19.158  0.00  0.00    +0.000 C 
ATOM      6  C   UNL     1      -0.487  10.322  19.686  0.00  0.00    +0.000 C 
ENDROOT
BRANCH   1  10
ATOM      7  N   UNL     1      -1.663  14.064  21.854  0.00  0.00    +0.000 NA
ATOM      8  C   UNL     1      -0.721  13.593  20.815  0.00  0.00    +0.000 C 
ATOM      9  C   UNL     1       0.334  12.554  21.266  0.00  0.00    +0.000 C 
ATOM     10  N   UNL     1      -0.227  11.423  22.017  0.00  0.00    +0.000 NA
ATOM     11  C   UNL     1      -1.055  11.922  23.108  0.00  0.00    +0.000 C 
ATOM     12  C   UNL     1      -2.135  12.941  22.694  0.00  0.00    +0.000 C 
BRANCH   7  13
ATOM     13  C   UNL     1      -1.089  15.112  22.712  0.00  0.00    +0.000 C 
BRANCH  13  14
ATOM     14  C   UNL     1      -1.764  15.220  24.083  0.00  0.00    +0.000 C 
BRANCH  14  16
ATOM     15  C   UNL     1      -1.167  15.929  26.235  0.00  0.00    +0.000 C 
ATOM     16  O   UNL     1      -0.755  15.189  25.095  0.00  0.00    +0.000 OA
ENDBRANCH  14  16
ENDBRANCH  13  14
ENDBRANCH   7  13
ENDBRANCH   1  10
BRANCH   4  17
ATOM     17  C   UNL     1       2.206   7.802  19.128  0.00  0.00    +0.000 A 
ATOM     18  C   UNL     1       2.749   8.266  17.926  0.00  0.00    +0.000 A 
ATOM     19  C   UNL     1       3.634   7.482  17.183  0.00  0.00    +0.000 A 
ATOM     20  C   UNL     1       4.023   6.220  17.643  0.00  0.00    +0.000 A 
ATOM     21  C   UNL     1       3.483   5.745  18.842  0.00  0.00    +0.000 A 
ATOM     22  C   UNL     1       2.599   6.534  19.578  0.00  0.00    +0.000 A 
BRANCH  20  23
ATOM     23  C   UNL     1       4.992   5.441  16.886  0.00  0.00    +0.000 A 
ATOM     24  C   UNL     1       6.229   5.928  16.495  0.00  0.00    +0.000 A 
ATOM     25  S   UNL     1       7.059   4.745  15.574  0.00  0.00    +0.000 S 
ATOM     26  C   UNL     1       5.720   3.692  15.761  0.00  0.00    +0.000 A 
ATOM     27  N   UNL     1       4.703   4.155  16.450  0.00  0.00    +0.000 NA
ENDBRANCH  20  23
ENDBRANCH   4  17
TORSDOF 6
ENDMDL
MODEL 6
REMARK VINA RESULT:      -6.4      1.476      1.938
REMARK  Name = 
REMARK  7 active torsions:
REMARK  status: ('A' for Active; 'I' for Inactive)
REMARK    1  A    between atoms: C_1  and  O_2
REMARK    2  A    between atoms: O_2  and  C_3
REMARK    3  A    between atoms: C_3  and  C_4
REMARK    4  A    between atoms: C_4  and  N_5
REMARK    5  A    between atoms: N_8  and  C_9
REMARK    6  A    between atoms: N_12  and  C_13
REMARK    7  A    between atoms: C_16  and  C_17
REMARK                            x       y       z     vdW  Elec       q    Type
REMARK                         _______ _______ _______ _____ _____    ______ ____
ROOT
ATOM      1  C   UNL     1      -0.768  13.453  20.040  0.00  0.00    +0.000 C 
ATOM      2  C   UNL     1      -0.674  12.827  18.635  0.00  0.00    +0.000 C 
ATOM      3  C   UNL     1      -0.557  11.317  18.683  0.00  0.00    +0.000 C 
ATOM      4  N   UNL     1       0.641  10.977  19.441  0.00  0.00    +0.000 N 
ATOM      5  C   UNL     1       0.661  11.434  20.837  0.00  0.00    +0.000 C 
ATOM      6  C   UNL     1       0.437  12.953  20.884  0.00  0.00    +0.000 C 
ENDROOT
BRANCH   1  10
ATOM      7  N   UNL     1      -2.400  13.919  23.667  0.00  0.00    +0.000 NA
ATOM      8  C   UNL     1      -2.001  12.624  23.073  0.00  0.00    +0.000 C 
ATOM      9  C   UNL     1      -2.419  12.387  21.601  0.00  0.00    +0.000 C 
ATOM     10  N   UNL     1      -2.089  13.501  20.702  0.00  0.00    +0.000 NA
ATOM     11  C   UNL     1      -2.601  14.748  21.258  0.00  0.00    +0.000 C 
ATOM     12  C   UNL     1      -2.185  15.031  22.715  0.00  0.00    +0.000 C 
BRANCH   7  13
ATOM     13  C   UNL     1      -3.797  13.929  24.127  0.00  0.00    +0.000 C 
BRANCH  13  14
ATOM     14  C   UNL     1      -4.294  12.564  24.612  0.00  0.00    +0.000 C 
BRANCH  14  16
ATOM     15  C   UNL     1      -5.839  13.018  22.910  0.00  0.00    +0.000 C 
ATOM     16  O   UNL     1      -5.637  12.377  24.161  0.00  0.00    +0.000 OA
ENDBRANCH  14  16
ENDBRANCH  13  14
ENDBRANCH   7  13
ENDBRANCH   1  10
BRANCH   4  17
ATOM     17  C   UNL     1       1.198   9.730  19.168  0.00  0.00    +0.000 A 
ATOM     18  C   UNL     1       1.246   8.773  20.186  0.00  0.00    +0.000 A 
ATOM     19  C   UNL     1       1.920   7.563  20.010  0.00  0.00    +0.000 A 
ATOM     20  C   UNL     1       2.540   7.268  18.791  0.00  0.00    +0.000 A 
ATOM     21  C   UNL     1       2.502   8.218  17.768  0.00  0.00    +0.000 A 
ATOM     22  C   UNL     1       1.827   9.425  17.952  0.00  0.00    +0.000 A 
BRANCH  20  23
ATOM     23  C   UNL     1       3.187   5.977  18.604  0.00  0.00    +0.000 A 
ATOM     24  C   UNL     1       4.415   5.648  19.154  0.00  0.00    +0.000 A 
ATOM     25  S   UNL     1       4.874   4.072  18.664  0.00  0.00    +0.000 S 
ATOM     26  C   UNL     1       3.422   3.954  17.762  0.00  0.00    +0.000 A 
ATOM     27  N   UNL     1       2.627   4.999  17.794  0.00  0.00    +0.000 NA
ENDBRANCH  20  23
ENDBRANCH   4  17
TORSDOF 6
ENDMDL
MODEL 7
REMARK VINA RESULT:      -6.4      4.983     10.915
REMARK  Name = 
REMARK  7 active torsions:
REMARK  status: ('A' for Active; 'I' for Inactive)
REMARK    1  A    between atoms: C_1  and  O_2
REMARK    2  A    between atoms: O_2  and  C_3
REMARK    3  A    between atoms: C_3  and  C_4
REMARK    4  A    between atoms: C_4  and  N_5
REMARK    5  A    between atoms: N_8  and  C_9
REMARK    6  A    between atoms: N_12  and  C_13
REMARK    7  A    between atoms: C_16  and  C_17
REMARK                            x       y       z     vdW  Elec       q    Type
REMARK                         _______ _______ _______ _____ _____    ______ ____
ROOT
ATOM      1  C   UNL     1       2.399   6.238  18.965  0.00  0.00    +0.000 C 
ATOM      2  C   UNL     1       1.708   7.429  18.276  0.00  0.00    +0.000 C 
ATOM      3  C   UNL     1       1.726   8.680  19.130  0.00  0.00    +0.000 C 
ATOM      4  N   UNL     1       1.040   8.386  20.382  0.00  0.00    +0.000 N 
ATOM      5  C   UNL     1       1.638   7.322  21.200  0.00  0.00    +0.000 C 
ATOM      6  C   UNL     1       1.757   6.038  20.366  0.00  0.00    +0.000 C 
ENDROOT
BRANCH   1  10
ATOM      7  N   UNL     1       5.230   4.380  16.827  0.00  0.00    +0.000 NA
ATOM      8  C   UNL     1       4.602   3.845  18.055  0.00  0.00    +0.000 C 
ATOM      9  C   UNL     1       4.460   4.832  19.239  0.00  0.00    +0.000 C 
ATOM     10  N   UNL     1       3.870   6.125  18.868  0.00  0.00    +0.000 NA
ATOM     11  C   UNL     1       4.588   6.683  17.729  0.00  0.00    +0.000 C 
ATOM     12  C   UNL     1       4.728   5.738  16.519  0.00  0.00    +0.000 C 
BRANCH   7  13
ATOM     13  C   UNL     1       6.699   4.404  16.902  0.00  0.00    +0.000 C 
BRANCH  13  14
ATOM     14  C   UNL     1       7.339   5.496  16.039  0.00  0.00    +0.000 C 
BRANCH  14  16
ATOM     15  C   UNL     1       6.878   4.704  13.883  0.00  0.00    +0.000 C 
ATOM     16  O   UNL     1       7.886   4.892  14.865  0.00  0.00    +0.000 OA
ENDBRANCH  14  16
ENDBRANCH  13  14
ENDBRANCH   7  13
ENDBRANCH   1  10
BRANCH   4  17
ATOM     17  C   UNL     1       0.503   9.484  21.052  0.00  0.00    +0.000 A 
ATOM     18  C   UNL     1       0.023   9.312  22.354  0.00  0.00    +0.000 A 
ATOM     19  C   UNL     1      -0.653  10.339  23.015  0.00  0.00    +0.000 A 
ATOM     20  C   UNL     1      -0.838  11.580  22.397  0.00  0.00    +0.000 A 
ATOM     21  C   UNL     1      -0.366  11.761  21.095  0.00  0.00    +0.000 A 
ATOM     22  C   UNL     1       0.308  10.730  20.440  0.00  0.00    +0.000 A 
BRANCH  20  23
ATOM     23  C   UNL     1      -1.492  12.659  23.124  0.00  0.00    +0.000 A 
ATOM     24  C   UNL     1      -2.863  12.732  23.318  0.00  0.00    +0.000 A 
ATOM     25  S   UNL     1      -3.259  14.170  24.162  0.00  0.00    +0.000 S 
ATOM     26  C   UNL     1      -1.596  14.581  24.196  0.00  0.00    +0.000 A 
ATOM     27  N   UNL     1      -0.772  13.734  23.624  0.00  0.00    +0.000 NA
ENDBRANCH  20  23
ENDBRANCH   4  17
TORSDOF 6
ENDMDL
MODEL 8
REMARK VINA RESULT:      -6.3      1.119      1.457
REMARK  Name = 
REMARK  7 active torsions:
REMARK  status: ('A' for Active; 'I' for Inactive)
REMARK    1  A    between atoms: C_1  and  O_2
REMARK    2  A    between atoms: O_2  and  C_3
REMARK    3  A    between atoms: C_3  and  C_4
REMARK    4  A    between atoms: C_4  and  N_5
REMARK    5  A    between atoms: N_8  and  C_9
REMARK    6  A    between atoms: N_12  and  C_13
REMARK    7  A    between atoms: C_16  and  C_17
REMARK                            x       y       z     vdW  Elec       q    Type
REMARK                         _______ _______ _______ _____ _____    ______ ____
ROOT
ATOM      1  C   UNL     1      -0.794  11.735  22.263  0.00  0.00    +0.000 C 
ATOM      2  C   UNL     1       0.234  12.106  21.177  0.00  0.00    +0.000 C 
ATOM      3  C   UNL     1       0.339  11.049  20.098  0.00  0.00    +0.000 C 
ATOM      4  N   UNL     1       0.734   9.794  20.725  0.00  0.00    +0.000 N 
ATOM      5  C   UNL     1      -0.197   9.264  21.729  0.00  0.00    +0.000 C 
ATOM      6  C   UNL     1      -0.445  10.325  22.812  0.00  0.00    +0.000 C 
ENDROOT
BRANCH   1  10
ATOM      7  N   UNL     1      -3.436  14.725  22.602  0.00  0.00    +0.000 NA
ATOM      8  C   UNL     1      -3.141  13.727  23.653  0.00  0.00    +0.000 C 
ATOM      9  C   UNL     1      -3.066  12.250  23.194  0.00  0.00    +0.000 C 
ATOM     10  N   UNL     1      -2.220  12.035  22.013  0.00  0.00    +0.000 NA
ATOM     11  C   UNL     1      -2.615  12.954  20.953  0.00  0.00    +0.000 C 
ATOM     12  C   UNL     1      -2.676  14.438  21.364  0.00  0.00    +0.000 C 
BRANCH   7  13
ATOM     13  C   UNL     1      -4.870  14.816  22.287  0.00  0.00    +0.000 C 
BRANCH  13  14
ATOM     14  C   UNL     1      -5.677  15.603  23.325  0.00  0.00    +0.000 C 
BRANCH  14  16
ATOM     15  C   UNL     1      -4.819  17.012  24.988  0.00  0.00    +0.000 C 
ATOM     16  O   UNL     1      -5.004  16.835  23.592  0.00  0.00    +0.000 OA
ENDBRANCH  14  16
ENDBRANCH  13  14
ENDBRANCH   7  13
ENDBRANCH   1  10
BRANCH   4  17
ATOM     17  C   UNL     1       1.372   8.875  19.895  0.00  0.00    +0.000 A 
ATOM     18  C   UNL     1       1.766   7.644  20.427  0.00  0.00    +0.000 A 
ATOM     19  C   UNL     1       2.533   6.747  19.681  0.00  0.00    +0.000 A 
ATOM     20  C   UNL     1       2.901   7.050  18.366  0.00  0.00    +0.000 A 
ATOM     21  C   UNL     1       2.516   8.280  17.826  0.00  0.00    +0.000 A 
ATOM     22  C   UNL     1       1.750   9.170  18.578  0.00  0.00    +0.000 A 
BRANCH  20  23
ATOM     23  C   UNL     1       3.650   6.078  17.582  0.00  0.00    +0.000 A 
ATOM     24  C   UNL     1       3.474   4.708  17.689  0.00  0.00    +0.000 A 
ATOM     25  S   UNL     1       4.572   3.893  16.656  0.00  0.00    +0.000 S 
ATOM     26  C   UNL     1       5.194   5.410  16.158  0.00  0.00    +0.000 A 
ATOM     27  N   UNL     1       4.651   6.473  16.706  0.00  0.00    +0.000 NA
ENDBRANCH  20  23
ENDBRANCH   4  17
TORSDOF 6
ENDMDL
MODEL 9
REMARK VINA RESULT:      -6.3      4.649     10.629
REMARK  Name = 
REMARK  7 active torsions:
REMARK  status: ('A' for Active; 'I' for Inactive)
REMARK    1  A    between atoms: C_1  and  O_2
REMARK    2  A    between atoms: O_2  and  C_3
REMARK    3  A    between atoms: C_3  and  C_4
REMARK    4  A    between atoms: C_4  and  N_5
REMARK    5  A    between atoms: N_8  and  C_9
REMARK    6  A    between atoms: N_12  and  C_13
REMARK    7  A    between atoms: C_16  and  C_17
REMARK                            x       y       z     vdW  Elec       q    Type
REMARK                         _______ _______ _______ _____ _____    ______ ____
ROOT
ATOM      1  C   UNL     1       2.494   6.490  18.772  0.00  0.00    +0.000 C 
ATOM      2  C   UNL     1       1.711   7.640  18.112  0.00  0.00    +0.000 C 
ATOM      3  C   UNL     1       1.654   8.875  18.987  0.00  0.00    +0.000 C 
ATOM      4  N   UNL     1       1.010   8.514  20.244  0.00  0.00    +0.000 N 
ATOM      5  C   UNL     1       1.693   7.482  21.035  0.00  0.00    +0.000 C 
ATOM      6  C   UNL     1       1.889   6.223  20.178  0.00  0.00    +0.000 C 
ENDROOT
BRANCH   1  10
ATOM      7  N   UNL     1       5.458   4.365  17.117  0.00  0.00    +0.000 NA
ATOM      8  C   UNL     1       4.900   4.138  18.468  0.00  0.00    +0.000 C 
ATOM      9  C   UNL     1       4.681   5.399  19.340  0.00  0.00    +0.000 C 
ATOM     10  N   UNL     1       3.968   6.483  18.652  0.00  0.00    +0.000 NA
ATOM     11  C   UNL     1       4.615   6.764  17.377  0.00  0.00    +0.000 C 
ATOM     12  C   UNL     1       4.827   5.536  16.468  0.00  0.00    +0.000 C 
BRANCH   7  13
ATOM     13  C   UNL     1       6.919   4.536  17.125  0.00  0.00    +0.000 C 
BRANCH  13  14
ATOM     14  C   UNL     1       7.375   5.941  16.719  0.00  0.00    +0.000 C 
BRANCH  14  16
ATOM     15  C   UNL     1       7.904   8.012  17.678  0.00  0.00    +0.000 C 
ATOM     16  O   UNL     1       7.896   6.605  17.872  0.00  0.00    +0.000 OA
ENDBRANCH  14  16
ENDBRANCH  13  14
ENDBRANCH   7  13
ENDBRANCH   1  10
BRANCH   4  17
ATOM     17  C   UNL     1       0.407   9.560  20.940  0.00  0.00    +0.000 A 
ATOM     18  C   UNL     1      -0.105   9.315  22.217  0.00  0.00    +0.000 A 
ATOM     19  C   UNL     1      -0.843  10.286  22.897  0.00  0.00    +0.000 A 
ATOM     20  C   UNL     1      -1.061  11.543  22.324  0.00  0.00    +0.000 A 
ATOM     21  C   UNL     1      -0.556  11.797  21.046  0.00  0.00    +0.000 A 
ATOM     22  C   UNL     1       0.180  10.822  20.373  0.00  0.00    +0.000 A 
BRANCH  20  23
ATOM     23  C   UNL     1      -1.781  12.564  23.072  0.00  0.00    +0.000 A 
ATOM     24  C   UNL     1      -1.252  13.808  23.376  0.00  0.00    +0.000 A 
ATOM     25  S   UNL     1      -2.369  14.706  24.315  0.00  0.00    +0.000 S 
ATOM     26  C   UNL     1      -3.455  13.381  24.250  0.00  0.00    +0.000 A 
ATOM     27  N   UNL     1      -3.046  12.323  23.589  0.00  0.00    +0.000 NA
ENDBRANCH  20  23
ENDBRANCH   4  17
TORSDOF 6
ENDMDL
