MODEL 1
REMARK VINA RESULT:      -9.1      0.000      0.000
REMARK  Name = 
REMARK  5 active torsions:
REMARK  status: ('A' for Active; 'I' for Inactive)
REMARK    1  A    between atoms: C_1  and  C_2
REMARK    2  A    between atoms: N_11  and  C_12
REMARK    3  A    between atoms: C_16  and  O_18
REMARK    4  A    between atoms: O_18  and  C_19
REMARK    5  A    between atoms: C_26  and  C_27
REMARK                            x       y       z     vdW  Elec       q    Type
REMARK                         _______ _______ _______ _____ _____    ______ ____
ROOT
ATOM      1  C   UNL     1       0.971  11.304  19.647  0.00  0.00    +0.000 C 
ATOM      2  C   UNL     1       0.093  10.285  20.382  0.00  0.00    +0.000 C 
ATOM      3  C   UNL     1       0.951   9.031  20.317  0.00  0.00    +0.000 C 
ATOM      4  N   UNL     1       1.552   9.089  18.993  0.00  0.00    +0.000 N 
ATOM      5  C   UNL     1       2.188   8.024  18.380  0.00  0.00    +0.000 C 
ATOM      6  O   UNL     1       2.894   8.120  17.386  0.00  0.00    +0.000 OA
ATOM      7  C   UNL     1       1.536  10.466  18.476  0.00  0.00    +0.000 C 
ENDROOT
BRANCH   1  18
ATOM      8  C   UNL     1      -2.079  12.133  20.207  0.00  0.00    +0.000 C 
ATOM      9  C   UNL     1      -0.973  12.993  19.718  0.00  0.00    +0.000 A 
ATOM     10  N   UNL     1      -1.129  14.278  19.482  0.00  0.00    +0.000 NA
ATOM     11  C   UNL     1       0.097  14.760  19.107  0.00  0.00    +0.000 A 
ATOM     12  C   UNL     1       0.475  16.067  18.775  0.00  0.00    +0.000 A 
ATOM     13  C   UNL     1       1.808  16.299  18.440  0.00  0.00    +0.000 A 
ATOM     14  F   UNL     1       2.197  17.538  18.117  0.00  0.00    +0.000 F 
ATOM     15  C   UNL     1       2.747  15.272  18.437  0.00  0.00    +0.000 A 
ATOM     16  C   UNL     1       2.382  13.963  18.767  0.00  0.00    +0.000 A 
ATOM     17  C   UNL     1       1.037  13.733  19.097  0.00  0.00    +0.000 A 
ATOM     18  N   UNL     1       0.328  12.591  19.468  0.00  0.00    +0.000 N 
ENDBRANCH   1  18
BRANCH   5  19
ATOM     19  O   UNL     1       1.944   6.859  19.033  0.00  0.00    +0.000 OA
BRANCH  19  20
ATOM     20  C   UNL     1       2.916   5.780  19.049  0.00  0.00    +0.000 C 
ATOM     21  C   UNL     1       2.567   4.992  20.333  0.00  0.00    +0.000 C 
ATOM     22  C   UNL     1       1.131   4.432  20.220  0.00  0.00    +0.000 C 
ATOM     23  C   UNL     1       1.031   3.473  19.025  0.00  0.00    +0.000 C 
ATOM     24  C   UNL     1       1.407   4.216  17.730  0.00  0.00    +0.000 C 
ATOM     25  C   UNL     1       2.826   4.798  17.847  0.00  0.00    +0.000 C 
ATOM     26  C   UNL     1       3.809   3.608  18.060  0.00  0.00    +0.000 C 
ATOM     27  C   UNL     1       3.459   2.827  19.354  0.00  0.00    +0.000 C 
ATOM     28  C   UNL     1       2.004   2.306  19.247  0.00  0.00    +0.000 C 
ATOM     29  C   UNL     1       3.540   3.826  20.534  0.00  0.00    +0.000 C 
BRANCH  27  30
ATOM     30  C   UNL     1       4.423   1.657  19.610  0.00  0.00    +0.000 C 
ATOM     31  N   UNL     1       4.374   0.605  18.746  0.00  0.00    +0.000 N 
ATOM     32  O   UNL     1       5.225   1.627  20.539  0.00  0.00    +0.000 OA
ATOM     33  H   UNL     1       4.953  -0.192  18.981  0.00  0.00    +0.000 HD
ATOM     34  H   UNL     1       3.604   0.449  18.110  0.00  0.00    +0.000 HD
ENDBRANCH  27  30
ENDBRANCH  19  20
ENDBRANCH   5  19
TORSDOF 4
ENDMDL
MODEL 2
REMARK VINA RESULT:      -9.0      3.499      4.998
REMARK  Name = 
REMARK  5 active torsions:
REMARK  status: ('A' for Active; 'I' for Inactive)
REMARK    1  A    between atoms: C_1  and  C_2
REMARK    2  A    between atoms: N_11  and  C_12
REMARK    3  A    between atoms: C_16  and  O_18
REMARK    4  A    between atoms: O_18  and  C_19
REMARK    5  A    between atoms: C_26  and  C_27
REMARK                            x       y       z     vdW  Elec       q    Type
REMARK                         _______ _______ _______ _____ _____    ______ ____
ROOT
ATOM      1  C   UNL     1       0.443   9.351  18.629  0.00  0.00    +0.000 C 
ATOM      2  C   UNL     1       1.784   9.951  18.194  0.00  0.00    +0.000 C 
ATOM      3  C   UNL     1       2.617   8.704  17.943  0.00  0.00    +0.000 C 
ATOM      4  N   UNL     1       2.205   7.792  18.999  0.00  0.00    +0.000 N 
ATOM      5  C   UNL     1       2.889   6.640  19.343  0.00  0.00    +0.000 C 
ATOM      6  O   UNL     1       2.437   5.754  20.055  0.00  0.00    +0.000 OA
ATOM      7  C   UNL     1       0.887   8.174  19.529  0.00  0.00    +0.000 C 
ENDROOT
BRANCH   1  18
ATOM      8  C   UNL     1       0.677  11.549  20.957  0.00  0.00    +0.000 C 
ATOM      9  C   UNL     1      -0.455  11.324  20.021  0.00  0.00    +0.000 A 
ATOM     10  N   UNL     1      -1.534  12.075  20.026  0.00  0.00    +0.000 NA
ATOM     11  C   UNL     1      -2.328  11.627  19.004  0.00  0.00    +0.000 A 
ATOM     12  C   UNL     1      -3.571  12.103  18.569  0.00  0.00    +0.000 A 
ATOM     13  C   UNL     1      -4.172  11.470  17.482  0.00  0.00    +0.000 A 
ATOM     14  F   UNL     1      -5.361  11.904  17.046  0.00  0.00    +0.000 F 
ATOM     15  C   UNL     1      -3.563  10.400  16.834  0.00  0.00    +0.000 A 
ATOM     16  C   UNL     1      -2.321   9.916  17.258  0.00  0.00    +0.000 A 
ATOM     17  C   UNL     1      -1.723  10.551  18.359  0.00  0.00    +0.000 A 
ATOM     18  N   UNL     1      -0.524  10.348  19.041  0.00  0.00    +0.000 N 
ENDBRANCH   1  18
BRANCH   5  19
ATOM     19  O   UNL     1       4.122   6.607  18.774  0.00  0.00    +0.000 OA
BRANCH  19  20
ATOM     20  C   UNL     1       4.337   6.027  17.461  0.00  0.00    +0.000 C 
ATOM     21  C   UNL     1       5.541   6.820  16.903  0.00  0.00    +0.000 C 
ATOM     22  C   UNL     1       6.773   6.593  17.808  0.00  0.00    +0.000 C 
ATOM     23  C   UNL     1       7.146   5.104  17.829  0.00  0.00    +0.000 C 
ATOM     24  C   UNL     1       5.955   4.277  18.347  0.00  0.00    +0.000 C 
ATOM     25  C   UNL     1       4.719   4.519  17.463  0.00  0.00    +0.000 C 
ATOM     26  C   UNL     1       5.073   4.060  16.017  0.00  0.00    +0.000 C 
ATOM     27  C   UNL     1       6.276   4.866  15.461  0.00  0.00    +0.000 C 
ATOM     28  C   UNL     1       7.492   4.664  16.398  0.00  0.00    +0.000 C 
ATOM     29  C   UNL     1       5.880   6.362  15.481  0.00  0.00    +0.000 C 
BRANCH  27  30
ATOM     30  C   UNL     1       6.641   4.455  14.024  0.00  0.00    +0.000 C 
ATOM     31  N   UNL     1       6.064   3.322  13.533  0.00  0.00    +0.000 N 
ATOM     32  O   UNL     1       7.411   5.089  13.310  0.00  0.00    +0.000 OA
ATOM     33  H   UNL     1       6.383   3.021  12.620  0.00  0.00    +0.000 HD
ATOM     34  H   UNL     1       5.614   2.634  14.118  0.00  0.00    +0.000 HD
ENDBRANCH  27  30
ENDBRANCH  19  20
ENDBRANCH   5  19
TORSDOF 4
ENDMDL
MODEL 3
REMARK VINA RESULT:      -9.0      0.998      1.624
REMARK  Name = 
REMARK  5 active torsions:
REMARK  status: ('A' for Active; 'I' for Inactive)
REMARK    1  A    between atoms: C_1  and  C_2
REMARK    2  A    between atoms: N_11  and  C_12
REMARK    3  A    between atoms: C_16  and  O_18
REMARK    4  A    between atoms: O_18  and  C_19
REMARK    5  A    between atoms: C_26  and  C_27
REMARK                            x       y       z     vdW  Elec       q    Type
REMARK                         _______ _______ _______ _____ _____    ______ ____
ROOT
ATOM      1  C   UNL     1       0.317  11.162  19.063  0.00  0.00    +0.000 C 
ATOM      2  C   UNL     1       1.356  10.867  17.976  0.00  0.00    +0.000 C 
ATOM      3  C   UNL     1       1.473   9.353  18.060  0.00  0.00    +0.000 C 
ATOM      4  N   UNL     1       1.384   9.075  19.485  0.00  0.00    +0.000 N 
ATOM      5  C   UNL     1       1.719   7.865  20.064  0.00  0.00    +0.000 C 
ATOM      6  O   UNL     1       1.431   7.542  21.209  0.00  0.00    +0.000 OA
ATOM      7  C   UNL     1       0.739  10.192  20.192  0.00  0.00    +0.000 C 
ENDROOT
BRANCH   1  18
ATOM      8  C   UNL     1      -2.381  12.675  19.920  0.00  0.00    +0.000 C 
ATOM      9  C   UNL     1      -1.044  13.266  19.661  0.00  0.00    +0.000 A 
ATOM     10  N   UNL     1      -0.801  14.551  19.801  0.00  0.00    +0.000 NA
ATOM     11  C   UNL     1       0.532  14.729  19.543  0.00  0.00    +0.000 A 
ATOM     12  C   UNL     1       1.297  15.901  19.583  0.00  0.00    +0.000 A 
ATOM     13  C   UNL     1       2.656  15.807  19.289  0.00  0.00    +0.000 A 
ATOM     14  F   UNL     1       3.411  16.913  19.317  0.00  0.00    +0.000 F 
ATOM     15  C   UNL     1       3.250  14.590  18.970  0.00  0.00    +0.000 A 
ATOM     16  C   UNL     1       2.498  13.412  18.928  0.00  0.00    +0.000 A 
ATOM     17  C   UNL     1       1.127  13.513  19.218  0.00  0.00    +0.000 A 
ATOM     18  N   UNL     1       0.093  12.578  19.272  0.00  0.00    +0.000 N 
ENDBRANCH   1  18
BRANCH   5  19
ATOM     19  O   UNL     1       2.394   7.069  19.195  0.00  0.00    +0.000 OA
BRANCH  19  20
ATOM     20  C   UNL     1       3.146   5.913  19.650  0.00  0.00    +0.000 C 
ATOM     21  C   UNL     1       2.142   4.745  19.511  0.00  0.00    +0.000 C 
ATOM     22  C   UNL     1       1.739   4.585  18.027  0.00  0.00    +0.000 C 
ATOM     23  C   UNL     1       2.976   4.261  17.177  0.00  0.00    +0.000 C 
ATOM     24  C   UNL     1       4.014   5.388  17.319  0.00  0.00    +0.000 C 
ATOM     25  C   UNL     1       4.400   5.569  18.798  0.00  0.00    +0.000 C 
ATOM     26  C   UNL     1       5.024   4.229  19.291  0.00  0.00    +0.000 C 
ATOM     27  C   UNL     1       4.009   3.064  19.157  0.00  0.00    +0.000 C 
ATOM     28  C   UNL     1       3.582   2.939  17.673  0.00  0.00    +0.000 C 
ATOM     29  C   UNL     1       2.765   3.434  20.000  0.00  0.00    +0.000 C 
BRANCH  27  30
ATOM     30  C   UNL     1       4.584   1.728  19.656  0.00  0.00    +0.000 C 
ATOM     31  N   UNL     1       4.398   0.633  18.867  0.00  0.00    +0.000 N 
ATOM     32  O   UNL     1       5.194   1.603  20.713  0.00  0.00    +0.000 OA
ATOM     33  H   UNL     1       4.706  -0.252  19.253  0.00  0.00    +0.000 HD
ATOM     34  H   UNL     1       3.724   0.602  18.116  0.00  0.00    +0.000 HD
ENDBRANCH  27  30
ENDBRANCH  19  20
ENDBRANCH   5  19
TORSDOF 4
ENDMDL
MODEL 4
REMARK VINA RESULT:      -8.9      1.148      1.263
REMARK  Name = 
REMARK  5 active torsions:
REMARK  status: ('A' for Active; 'I' for Inactive)
REMARK    1  A    between atoms: C_1  and  C_2
REMARK    2  A    between atoms: N_11  and  C_12
REMARK    3  A    between atoms: C_16  and  O_18
REMARK    4  A    between atoms: O_18  and  C_19
REMARK    5  A    between atoms: C_26  and  C_27
REMARK                            x       y       z     vdW  Elec       q    Type
REMARK                         _______ _______ _______ _____ _____    ______ ____
ROOT
ATOM      1  C   UNL     1       1.348  11.213  19.329  0.00  0.00    +0.000 C 
ATOM      2  C   UNL     1       0.356  10.254  19.996  0.00  0.00    +0.000 C 
ATOM      3  C   UNL     1       1.091   8.927  19.896  0.00  0.00    +0.000 C 
ATOM      4  N   UNL     1       1.733   8.982  18.591  0.00  0.00    +0.000 N 
ATOM      5  C   UNL     1       2.281   7.888  17.947  0.00  0.00    +0.000 C 
ATOM      6  O   UNL     1       3.022   7.956  16.976  0.00  0.00    +0.000 OA
ATOM      7  C   UNL     1       1.864  10.375  18.136  0.00  0.00    +0.000 C 
ENDROOT
BRANCH   1  18
ATOM      8  C   UNL     1      -1.384  12.209  17.972  0.00  0.00    +0.000 C 
ATOM      9  C   UNL     1      -0.341  13.031  18.636  0.00  0.00    +0.000 A 
ATOM     10  N   UNL     1      -0.453  14.333  18.779  0.00  0.00    +0.000 NA
ATOM     11  C   UNL     1       0.648  14.747  19.481  0.00  0.00    +0.000 A 
ATOM     12  C   UNL     1       0.994  16.032  19.917  0.00  0.00    +0.000 A 
ATOM     13  C   UNL     1       2.177  16.184  20.637  0.00  0.00    +0.000 A 
ATOM     14  F   UNL     1       2.533  17.402  21.064  0.00  0.00    +0.000 F 
ATOM     15  C   UNL     1       2.998  15.099  20.926  0.00  0.00    +0.000 A 
ATOM     16  C   UNL     1       2.664  13.810  20.498  0.00  0.00    +0.000 A 
ATOM     17  C   UNL     1       1.473  13.663  19.766  0.00  0.00    +0.000 A 
ATOM     18  N   UNL     1       0.837  12.562  19.193  0.00  0.00    +0.000 N 
ENDBRANCH   1  18
BRANCH   5  19
ATOM     19  O   UNL     1       1.909   6.725  18.541  0.00  0.00    +0.000 OA
BRANCH  19  20
ATOM     20  C   UNL     1       2.698   5.514  18.403  0.00  0.00    +0.000 C 
ATOM     21  C   UNL     1       3.358   5.346  19.790  0.00  0.00    +0.000 C 
ATOM     22  C   UNL     1       2.262   5.163  20.864  0.00  0.00    +0.000 C 
ATOM     23  C   UNL     1       1.438   3.901  20.568  0.00  0.00    +0.000 C 
ATOM     24  C   UNL     1       0.793   4.018  19.175  0.00  0.00    +0.000 C 
ATOM     25  C   UNL     1       1.879   4.226  18.104  0.00  0.00    +0.000 C 
ATOM     26  C   UNL     1       2.817   2.983  18.134  0.00  0.00    +0.000 C 
ATOM     27  C   UNL     1       3.482   2.825  19.526  0.00  0.00    +0.000 C 
ATOM     28  C   UNL     1       2.374   2.684  20.599  0.00  0.00    +0.000 C 
ATOM     29  C   UNL     1       4.279   4.122  19.808  0.00  0.00    +0.000 C 
BRANCH  27  30
ATOM     30  C   UNL     1       4.435   1.619  19.586  0.00  0.00    +0.000 C 
ATOM     31  N   UNL     1       4.309   0.674  18.613  0.00  0.00    +0.000 N 
ATOM     32  O   UNL     1       5.291   1.471  20.453  0.00  0.00    +0.000 OA
ATOM     33  H   UNL     1       4.884  -0.153  18.719  0.00  0.00    +0.000 HD
ATOM     34  H   UNL     1       3.499   0.603  18.015  0.00  0.00    +0.000 HD
ENDBRANCH  27  30
ENDBRANCH  19  20
ENDBRANCH   5  19
TORSDOF 4
ENDMDL
MODEL 5
REMARK VINA RESULT:      -8.9      4.076      9.995
REMARK  Name = 
REMARK  5 active torsions:
REMARK  status: ('A' for Active; 'I' for Inactive)
REMARK    1  A    between atoms: C_1  and  C_2
REMARK    2  A    between atoms: N_11  and  C_12
REMARK    3  A    between atoms: C_16  and  O_18
REMARK    4  A    between atoms: O_18  and  C_19
REMARK    5  A    between atoms: C_26  and  C_27
REMARK                            x       y       z     vdW  Elec       q    Type
REMARK                         _______ _______ _______ _____ _____    ______ ____
ROOT
ATOM      1  C   UNL     1       2.499   7.448  19.251  0.00  0.00    +0.000 C 
ATOM      2  C   UNL     1       1.587   8.197  18.273  0.00  0.00    +0.000 C 
ATOM      3  C   UNL     1       1.367   9.515  18.999  0.00  0.00    +0.000 C 
ATOM      4  N   UNL     1       1.261   9.128  20.397  0.00  0.00    +0.000 N 
ATOM      5  C   UNL     1       0.781   9.953  21.398  0.00  0.00    +0.000 C 
ATOM      6  O   UNL     1       0.904   9.733  22.595  0.00  0.00    +0.000 OA
ATOM      7  C   UNL     1       1.881   7.813  20.621  0.00  0.00    +0.000 C 
ENDROOT
BRANCH   1  18
ATOM      8  C   UNL     1       1.176   4.713  20.285  0.00  0.00    +0.000 C 
ATOM      9  C   UNL     1       2.222   4.887  19.246  0.00  0.00    +0.000 A 
ATOM     10  N   UNL     1       2.722   3.875  18.571  0.00  0.00    +0.000 NA
ATOM     11  C   UNL     1       3.604   4.403  17.667  0.00  0.00    +0.000 A 
ATOM     12  C   UNL     1       4.378   3.756  16.696  0.00  0.00    +0.000 A 
ATOM     13  C   UNL     1       5.195   4.536  15.880  0.00  0.00    +0.000 A 
ATOM     14  F   UNL     1       5.947   3.943  14.945  0.00  0.00    +0.000 F 
ATOM     15  C   UNL     1       5.246   5.921  16.012  0.00  0.00    +0.000 A 
ATOM     16  C   UNL     1       4.477   6.580  16.977  0.00  0.00    +0.000 A 
ATOM     17  C   UNL     1       3.661   5.788  17.801  0.00  0.00    +0.000 A 
ATOM     18  N   UNL     1       2.783   6.087  18.842  0.00  0.00    +0.000 N 
ENDBRANCH   1  18
BRANCH   5  19
ATOM     19  O   UNL     1       0.172  11.053  20.885  0.00  0.00    +0.000 OA
BRANCH  19  20
ATOM     20  C   UNL     1      -1.254  11.275  21.043  0.00  0.00    +0.000 C 
ATOM     21  C   UNL     1      -1.368  11.965  22.421  0.00  0.00    +0.000 C 
ATOM     22  C   UNL     1      -0.607  13.310  22.388  0.00  0.00    +0.000 C 
ATOM     23  C   UNL     1      -1.223  14.239  21.333  0.00  0.00    +0.000 C 
ATOM     24  C   UNL     1      -1.160  13.568  19.949  0.00  0.00    +0.000 C 
ATOM     25  C   UNL     1      -1.894  12.215  19.983  0.00  0.00    +0.000 C 
ATOM     26  C   UNL     1      -3.382  12.495  20.352  0.00  0.00    +0.000 C 
ATOM     27  C   UNL     1      -3.489  13.180  21.739  0.00  0.00    +0.000 C 
ATOM     28  C   UNL     1      -2.689  14.505  21.707  0.00  0.00    +0.000 C 
ATOM     29  C   UNL     1      -2.834  12.233  22.774  0.00  0.00    +0.000 C 
BRANCH  27  30
ATOM     30  C   UNL     1      -4.946  13.450  22.147  0.00  0.00    +0.000 C 
ATOM     31  N   UNL     1      -5.824  12.411  22.058  0.00  0.00    +0.000 N 
ATOM     32  O   UNL     1      -5.351  14.538  22.546  0.00  0.00    +0.000 OA
ATOM     33  H   UNL     1      -6.795  12.631  22.247  0.00  0.00    +0.000 HD
ATOM     34  H   UNL     1      -5.632  11.570  21.533  0.00  0.00    +0.000 HD
ENDBRANCH  27  30
ENDBRANCH  19  20
ENDBRANCH   5  19
TORSDOF 4
ENDMDL
MODEL 6
REMARK VINA RESULT:      -8.8      2.144      3.161
REMARK  Name = 
REMARK  5 active torsions:
REMARK  status: ('A' for Active; 'I' for Inactive)
REMARK    1  A    between atoms: C_1  and  C_2
REMARK    2  A    between atoms: N_11  and  C_12
REMARK    3  A    between atoms: C_16  and  O_18
REMARK    4  A    between atoms: O_18  and  C_19
REMARK    5  A    between atoms: C_26  and  C_27
REMARK                            x       y       z     vdW  Elec       q    Type
REMARK                         _______ _______ _______ _____ _____    ______ ____
ROOT
ATOM      1  C   UNL     1       0.611  11.054  20.991  0.00  0.00    +0.000 C 
ATOM      2  C   UNL     1      -0.212   9.937  21.641  0.00  0.00    +0.000 C 
ATOM      3  C   UNL     1       0.687   8.727  21.436  0.00  0.00    +0.000 C 
ATOM      4  N   UNL     1       1.254   8.936  20.113  0.00  0.00    +0.000 N 
ATOM      5  C   UNL     1       1.912   7.959  19.386  0.00  0.00    +0.000 C 
ATOM      6  O   UNL     1       2.590   8.177  18.392  0.00  0.00    +0.000 OA
ATOM      7  C   UNL     1       1.177  10.354  19.732  0.00  0.00    +0.000 C 
ENDROOT
BRANCH   1  18
ATOM      8  C   UNL     1       1.131  13.575  19.073  0.00  0.00    +0.000 C 
ATOM      9  C   UNL     1       0.097  13.426  20.129  0.00  0.00    +0.000 A 
ATOM     10  N   UNL     1      -0.794  14.360  20.380  0.00  0.00    +0.000 NA
ATOM     11  C   UNL     1      -1.615  13.866  21.359  0.00  0.00    +0.000 A 
ATOM     12  C   UNL     1      -2.735  14.452  21.960  0.00  0.00    +0.000 A 
ATOM     13  C   UNL     1      -3.414  13.722  22.934  0.00  0.00    +0.000 A 
ATOM     14  F   UNL     1      -4.488  14.259  23.527  0.00  0.00    +0.000 F 
ATOM     15  C   UNL     1      -3.006  12.445  23.303  0.00  0.00    +0.000 A 
ATOM     16  C   UNL     1      -1.889  11.848  22.710  0.00  0.00    +0.000 A 
ATOM     17  C   UNL     1      -1.203  12.590  21.734  0.00  0.00    +0.000 A 
ATOM     18  N   UNL     1      -0.080  12.327  20.951  0.00  0.00    +0.000 N 
ENDBRANCH   1  18
BRANCH   5  19
ATOM     19  O   UNL     1       1.726   6.728  19.928  0.00  0.00    +0.000 OA
BRANCH  19  20
ATOM     20  C   UNL     1       2.746   5.698  19.843  0.00  0.00    +0.000 C 
ATOM     21  C   UNL     1       2.210   4.575  20.761  0.00  0.00    +0.000 C 
ATOM     22  C   UNL     1       0.863   4.056  20.208  0.00  0.00    +0.000 C 
ATOM     23  C   UNL     1       1.059   3.475  18.801  0.00  0.00    +0.000 C 
ATOM     24  C   UNL     1       1.627   4.558  17.866  0.00  0.00    +0.000 C 
ATOM     25  C   UNL     1       2.955   5.097  18.424  0.00  0.00    +0.000 C 
ATOM     26  C   UNL     1       3.956   3.904  18.497  0.00  0.00    +0.000 C 
ATOM     27  C   UNL     1       3.416   2.786  19.426  0.00  0.00    +0.000 C 
ATOM     28  C   UNL     1       2.048   2.302  18.886  0.00  0.00    +0.000 C 
ATOM     29  C   UNL     1       3.202   3.410  20.826  0.00  0.00    +0.000 C 
BRANCH  27  30
ATOM     30  C   UNL     1       4.390   1.601  19.540  0.00  0.00    +0.000 C 
ATOM     31  N   UNL     1       4.313   0.634  18.584  0.00  0.00    +0.000 N 
ATOM     32  O   UNL     1       5.221   1.487  20.436  0.00  0.00    +0.000 OA
ATOM     33  H   UNL     1       4.900  -0.180  18.724  0.00  0.00    +0.000 HD
ATOM     34  H   UNL     1       3.524   0.534  17.962  0.00  0.00    +0.000 HD
ENDBRANCH  27  30
ENDBRANCH  19  20
ENDBRANCH   5  19
TORSDOF 4
ENDMDL
MODEL 7
REMARK VINA RESULT:      -8.8      1.042      1.148
REMARK  Name = 
REMARK  5 active torsions:
REMARK  status: ('A' for Active; 'I' for Inactive)
REMARK    1  A    between atoms: C_1  and  C_2
REMARK    2  A    between atoms: N_11  and  C_12
REMARK    3  A    between atoms: C_16  and  O_18
REMARK    4  A    between atoms: O_18  and  C_19
REMARK    5  A    between atoms: C_26  and  C_27
REMARK                            x       y       z     vdW  Elec       q    Type
REMARK                         _______ _______ _______ _____ _____    ______ ____
ROOT
ATOM      1  C   UNL     1       1.346  11.047  19.273  0.00  0.00    +0.000 C 
ATOM      2  C   UNL     1       0.297  10.090  19.847  0.00  0.00    +0.000 C 
ATOM      3  C   UNL     1       1.073   8.784  19.919  0.00  0.00    +0.000 C 
ATOM      4  N   UNL     1       1.888   8.797  18.714  0.00  0.00    +0.000 N 
ATOM      5  C   UNL     1       2.548   7.691  18.210  0.00  0.00    +0.000 C 
ATOM      6  O   UNL     1       3.414   7.736  17.347  0.00  0.00    +0.000 OA
ATOM      7  C   UNL     1       2.044  10.169  18.208  0.00  0.00    +0.000 C 
ENDROOT
BRANCH   1  18
ATOM      8  C   UNL     1      -1.491  11.877  18.022  0.00  0.00    +0.000 C 
ATOM      9  C   UNL     1      -0.396  12.771  18.480  0.00  0.00    +0.000 A 
ATOM     10  N   UNL     1      -0.498  14.082  18.452  0.00  0.00    +0.000 NA
ATOM     11  C   UNL     1       0.657  14.576  18.998  0.00  0.00    +0.000 A 
ATOM     12  C   UNL     1       1.036  15.905  19.225  0.00  0.00    +0.000 A 
ATOM     13  C   UNL     1       2.276  16.141  19.817  0.00  0.00    +0.000 A 
ATOM     14  F   UNL     1       2.665  17.402  20.044  0.00  0.00    +0.000 F 
ATOM     15  C   UNL     1       3.119  15.097  20.184  0.00  0.00    +0.000 A 
ATOM     16  C   UNL     1       2.751  13.765  19.964  0.00  0.00    +0.000 A 
ATOM     17  C   UNL     1       1.505  13.532  19.360  0.00  0.00    +0.000 A 
ATOM     18  N   UNL     1       0.824  12.371  18.996  0.00  0.00    +0.000 N 
ENDBRANCH   1  18
BRANCH   5  19
ATOM     19  O   UNL     1       2.127   6.547  18.808  0.00  0.00    +0.000 OA
BRANCH  19  20
ATOM     20  C   UNL     1       3.068   5.581  19.347  0.00  0.00    +0.000 C 
ATOM     21  C   UNL     1       2.161   4.470  19.926  0.00  0.00    +0.000 C 
ATOM     22  C   UNL     1       1.325   3.842  18.788  0.00  0.00    +0.000 C 
ATOM     23  C   UNL     1       2.251   3.209  17.740  0.00  0.00    +0.000 C 
ATOM     24  C   UNL     1       3.195   4.280  17.166  0.00  0.00    +0.000 C 
ATOM     25  C   UNL     1       4.012   4.928  18.298  0.00  0.00    +0.000 C 
ATOM     26  C   UNL     1       4.858   3.806  18.972  0.00  0.00    +0.000 C 
ATOM     27  C   UNL     1       3.942   2.700  19.558  0.00  0.00    +0.000 C 
ATOM     28  C   UNL     1       3.080   2.106  18.417  0.00  0.00    +0.000 C 
ATOM     29  C   UNL     1       3.002   3.374  20.587  0.00  0.00    +0.000 C 
BRANCH  27  30
ATOM     30  C   UNL     1       4.742   1.585  20.253  0.00  0.00    +0.000 C 
ATOM     31  N   UNL     1       4.923   0.424  19.564  0.00  0.00    +0.000 N 
ATOM     32  O   UNL     1       5.220   1.691  21.378  0.00  0.00    +0.000 OA
ATOM     33  H   UNL     1       5.376  -0.328  20.071  0.00  0.00    +0.000 HD
ATOM     34  H   UNL     1       4.380   0.174  18.750  0.00  0.00    +0.000 HD
ENDBRANCH  27  30
ENDBRANCH  19  20
ENDBRANCH   5  19
TORSDOF 4
ENDMDL
MODEL 8
REMARK VINA RESULT:      -8.8      3.049      3.988
REMARK  Name = 
REMARK  5 active torsions:
REMARK  status: ('A' for Active; 'I' for Inactive)
REMARK    1  A    between atoms: C_1  and  C_2
REMARK    2  A    between atoms: N_11  and  C_12
REMARK    3  A    between atoms: C_16  and  O_18
REMARK    4  A    between atoms: O_18  and  C_19
REMARK    5  A    between atoms: C_26  and  C_27
REMARK                            x       y       z     vdW  Elec       q    Type
REMARK                         _______ _______ _______ _____ _____    ______ ____
ROOT
ATOM      1  C   UNL     1      -0.278  11.000  20.031  0.00  0.00    +0.000 C 
ATOM      2  C   UNL     1      -0.175   9.749  20.910  0.00  0.00    +0.000 C 
ATOM      3  C   UNL     1       1.181   9.193  20.503  0.00  0.00    +0.000 C 
ATOM      4  N   UNL     1       1.241   9.438  19.070  0.00  0.00    +0.000 N 
ATOM      5  C   UNL     1       2.164   8.855  18.219  0.00  0.00    +0.000 C 
ATOM      6  O   UNL     1       2.377   9.224  17.073  0.00  0.00    +0.000 OA
ATOM      7  C   UNL     1       0.304  10.504  18.686  0.00  0.00    +0.000 C 
ENDROOT
BRANCH   1  18
ATOM      8  C   UNL     1      -1.201  13.223  22.154  0.00  0.00    +0.000 C 
ATOM      9  C   UNL     1      -1.984  12.653  21.028  0.00  0.00    +0.000 A 
ATOM     10  N   UNL     1      -3.204  13.052  20.743  0.00  0.00    +0.000 NA
ATOM     11  C   UNL     1      -3.590  12.366  19.623  0.00  0.00    +0.000 A 
ATOM     12  C   UNL     1      -4.786  12.444  18.900  0.00  0.00    +0.000 A 
ATOM     13  C   UNL     1      -4.925  11.637  17.771  0.00  0.00    +0.000 A 
ATOM     14  F   UNL     1      -6.059  11.690  17.062  0.00  0.00    +0.000 F 
ATOM     15  C   UNL     1      -3.909  10.779  17.361  0.00  0.00    +0.000 A 
ATOM     16  C   UNL     1      -2.709  10.692  18.074  0.00  0.00    +0.000 A 
ATOM     17  C   UNL     1      -2.577  11.502  19.214  0.00  0.00    +0.000 A 
ATOM     18  N   UNL     1      -1.554  11.677  20.145  0.00  0.00    +0.000 N 
ENDBRANCH   1  18
BRANCH   5  19
ATOM     19  O   UNL     1       2.818   7.831  18.825  0.00  0.00    +0.000 OA
BRANCH  19  20
ATOM     20  C   UNL     1       2.170   6.556  19.073  0.00  0.00    +0.000 C 
ATOM     21  C   UNL     1       2.223   5.845  17.701  0.00  0.00    +0.000 C 
ATOM     22  C   UNL     1       3.697   5.635  17.286  0.00  0.00    +0.000 C 
ATOM     23  C   UNL     1       4.415   4.750  18.315  0.00  0.00    +0.000 C 
ATOM     24  C   UNL     1       4.350   5.412  19.703  0.00  0.00    +0.000 C 
ATOM     25  C   UNL     1       2.885   5.646  20.111  0.00  0.00    +0.000 C 
ATOM     26  C   UNL     1       2.183   4.256  20.170  0.00  0.00    +0.000 C 
ATOM     27  C   UNL     1       2.233   3.552  18.789  0.00  0.00    +0.000 C 
ATOM     28  C   UNL     1       3.713   3.385  18.365  0.00  0.00    +0.000 C 
ATOM     29  C   UNL     1       1.529   4.481  17.770  0.00  0.00    +0.000 C 
BRANCH  27  30
ATOM     30  C   UNL     1       1.528   2.185  18.804  0.00  0.00    +0.000 C 
ATOM     31  N   UNL     1       2.306   1.083  18.994  0.00  0.00    +0.000 N 
ATOM     32  O   UNL     1       0.318   2.042  18.658  0.00  0.00    +0.000 OA
ATOM     33  H   UNL     1       1.838   0.188  18.913  0.00  0.00    +0.000 HD
ATOM     34  H   UNL     1       3.310   1.092  18.892  0.00  0.00    +0.000 HD
ENDBRANCH  27  30
ENDBRANCH  19  20
ENDBRANCH   5  19
TORSDOF 4
ENDMDL
MODEL 9
REMARK VINA RESULT:      -8.7      3.915      9.893
REMARK  Name = 
REMARK  5 active torsions:
REMARK  status: ('A' for Active; 'I' for Inactive)
REMARK    1  A    between atoms: C_1  and  C_2
REMARK    2  A    between atoms: N_11  and  C_12
REMARK    3  A    between atoms: C_16  and  O_18
REMARK    4  A    between atoms: O_18  and  C_19
REMARK    5  A    between atoms: C_26  and  C_27
REMARK                            x       y       z     vdW  Elec       q    Type
REMARK                         _______ _______ _______ _____ _____    ______ ____
ROOT
ATOM      1  C   UNL     1       2.946   7.054  18.598  0.00  0.00    +0.000 C 
ATOM      2  C   UNL     1       2.070   7.923  17.689  0.00  0.00    +0.000 C 
ATOM      3  C   UNL     1       1.694   9.066  18.620  0.00  0.00    +0.000 C 
ATOM      4  N   UNL     1       1.496   8.417  19.906  0.00  0.00    +0.000 N 
ATOM      5  C   UNL     1       0.875   9.011  20.990  0.00  0.00    +0.000 C 
ATOM      6  O   UNL     1       0.910   8.575  22.132  0.00  0.00    +0.000 OA
ATOM      7  C   UNL     1       2.187   7.119  19.945  0.00  0.00    +0.000 C 
ENDROOT
BRANCH   1  18
ATOM      8  C   UNL     1       1.385   4.253  18.449  0.00  0.00    +0.000 C 
ATOM      9  C   UNL     1       2.710   4.593  17.872  0.00  0.00    +0.000 A 
ATOM     10  N   UNL     1       3.411   3.737  17.161  0.00  0.00    +0.000 NA
ATOM     11  C   UNL     1       4.534   4.401  16.744  0.00  0.00    +0.000 A 
ATOM     12  C   UNL     1       5.588   3.948  15.940  0.00  0.00    +0.000 A 
ATOM     13  C   UNL     1       6.617   4.840  15.645  0.00  0.00    +0.000 A 
ATOM     14  F   UNL     1       7.638   4.434  14.880  0.00  0.00    +0.000 F 
ATOM     15  C   UNL     1       6.609   6.146  16.123  0.00  0.00    +0.000 A 
ATOM     16  C   UNL     1       5.563   6.611  16.927  0.00  0.00    +0.000 A 
ATOM     17  C   UNL     1       4.531   5.706  17.227  0.00  0.00    +0.000 A 
ATOM     18  N   UNL     1       3.359   5.812  17.977  0.00  0.00    +0.000 N 
ENDBRANCH   1  18
BRANCH   5  19
ATOM     19  O   UNL     1       0.236  10.154  20.629  0.00  0.00    +0.000 OA
BRANCH  19  20
ATOM     20  C   UNL     1       0.383  11.380  21.393  0.00  0.00    +0.000 C 
ATOM     21  C   UNL     1       1.078  12.345  20.404  0.00  0.00    +0.000 C 
ATOM     22  C   UNL     1       0.165  12.572  19.178  0.00  0.00    +0.000 C 
ATOM     23  C   UNL     1      -1.162  13.207  19.617  0.00  0.00    +0.000 C 
ATOM     24  C   UNL     1      -1.866  12.288  20.632  0.00  0.00    +0.000 C 
ATOM     25  C   UNL     1      -0.952  12.038  21.844  0.00  0.00    +0.000 C 
ATOM     26  C   UNL     1      -0.664  13.416  22.512  0.00  0.00    +0.000 C 
ATOM     27  C   UNL     1       0.040  14.376  21.517  0.00  0.00    +0.000 C 
ATOM     28  C   UNL     1      -0.865  14.563  20.275  0.00  0.00    +0.000 C 
ATOM     29  C   UNL     1       1.357  13.696  21.072  0.00  0.00    +0.000 C 
BRANCH  27  30
ATOM     30  C   UNL     1       0.360  15.740  22.150  0.00  0.00    +0.000 C 
ATOM     31  N   UNL     1       0.124  16.850  21.396  0.00  0.00    +0.000 N 
ATOM     32  O   UNL     1       0.809  15.876  23.284  0.00  0.00    +0.000 OA
ATOM     33  H   UNL     1       0.422  17.732  21.796  0.00  0.00    +0.000 HD
ATOM     34  H   UNL     1      -0.019  16.818  20.397  0.00  0.00    +0.000 HD
ENDBRANCH  27  30
ENDBRANCH  19  20
ENDBRANCH   5  19
TORSDOF 4
ENDMDL
