MODEL 1
REMARK VINA RESULT:      -8.1      0.000      0.000
REMARK  Name = 
REMARK  5 active torsions:
REMARK  status: ('A' for Active; 'I' for Inactive)
REMARK    1  A    between atoms: C_1  and  C_2
REMARK    2  A    between atoms: C_2  and  N_3
REMARK    3  A    between atoms: C_2  and  C_4
REMARK    4  A    between atoms: C_9  and  C_10
REMARK    5  A    between atoms: C_16  and  C_17
REMARK                            x       y       z     vdW  Elec       q    Type
REMARK                         _______ _______ _______ _____ _____    ______ ____
ROOT
ATOM      1  C   UNL     1       5.479   4.909  15.222  0.00  0.00    +0.000 C 
ATOM      2  O   UNL     1       5.067   3.806  15.575  0.00  0.00    +0.000 OA
ATOM      3  N   UNL     1       5.174   6.115  15.825  0.00  0.00    +0.000 N 
ATOM      4  C   UNL     1       4.346   6.173  16.916  0.00  0.00    +0.000 A 
ATOM      5  N   UNL     1       3.889   5.200  17.647  0.00  0.00    +0.000 NA
ATOM      6  C   UNL     1       2.995   5.685  18.593  0.00  0.00    +0.000 A 
ATOM      7  C   UNL     1       2.804   7.070  18.577  0.00  0.00    +0.000 A 
ATOM      8  S   UNL     1       3.857   7.739  17.362  0.00  0.00    +0.000 S 
ATOM      9  H   UNL     1       5.466   6.992  15.429  0.00  0.00    +0.000 HD
ENDROOT
BRANCH   6  10
ATOM     10  C   UNL     1       2.362   4.722  19.492  0.00  0.00    +0.000 A 
ATOM     11  C   UNL     1       1.325   3.914  19.003  0.00  0.00    +0.000 A 
ATOM     12  C   UNL     1       0.726   2.948  19.817  0.00  0.00    +0.000 A 
ATOM     13  C   UNL     1       1.161   2.781  21.130  0.00  0.00    +0.000 A 
ATOM     14  C   UNL     1       2.166   3.599  21.638  0.00  0.00    +0.000 A 
ATOM     15  C   UNL     1       2.745   4.583  20.832  0.00  0.00    +0.000 A 
ENDBRANCH   6  10
BRANCH   7  16
ATOM     16  C   UNL     1       1.939   7.974  19.365  0.00  0.00    +0.000 A 
ATOM     17  C   UNL     1       1.637   7.705  20.710  0.00  0.00    +0.000 A 
ATOM     18  C   UNL     1       0.711   8.481  21.414  0.00  0.00    +0.000 A 
ATOM     19  C   UNL     1       0.114   9.580  20.807  0.00  0.00    +0.000 A 
ATOM     20  C   UNL     1       0.442   9.903  19.494  0.00  0.00    +0.000 A 
ATOM     21  C   UNL     1       1.335   9.101  18.776  0.00  0.00    +0.000 A 
ENDBRANCH   7  16
BRANCH   1  23
ATOM     22  C   UNL     1       6.507   3.775  13.168  0.00  0.00    +0.000 C 
ATOM     23  C   UNL     1       6.471   5.022  14.041  0.00  0.00    +0.000 C 
BRANCH  23  24
ATOM     24  N   UNL     1       7.831   5.255  14.576  0.00  0.00    +0.000 NA
ATOM     25  H   UNL     1       7.731   5.681  15.503  0.00  0.00    +0.000 HD
ATOM     26  H   UNL     1       8.237   6.025  14.032  0.00  0.00    +0.000 HD
ENDBRANCH  23  24
ENDBRANCH   1  23
TORSDOF 4
ENDMDL
MODEL 2
REMARK VINA RESULT:      -8.1      0.122      1.010
REMARK  Name = 
REMARK  5 active torsions:
REMARK  status: ('A' for Active; 'I' for Inactive)
REMARK    1  A    between atoms: C_1  and  C_2
REMARK    2  A    between atoms: C_2  and  N_3
REMARK    3  A    between atoms: C_2  and  C_4
REMARK    4  A    between atoms: C_9  and  C_10
REMARK    5  A    between atoms: C_16  and  C_17
REMARK                            x       y       z     vdW  Elec       q    Type
REMARK                         _______ _______ _______ _____ _____    ______ ____
ROOT
ATOM      1  C   UNL     1       5.462   4.945  15.269  0.00  0.00    +0.000 C 
ATOM      2  O   UNL     1       5.075   3.836  15.633  0.00  0.00    +0.000 OA
ATOM      3  N   UNL     1       5.133   6.149  15.865  0.00  0.00    +0.000 N 
ATOM      4  C   UNL     1       4.308   6.198  16.958  0.00  0.00    +0.000 A 
ATOM      5  N   UNL     1       3.875   5.221  17.698  0.00  0.00    +0.000 NA
ATOM      6  C   UNL     1       2.975   5.695  18.644  0.00  0.00    +0.000 A 
ATOM      7  C   UNL     1       2.754   7.075  18.618  0.00  0.00    +0.000 A 
ATOM      8  S   UNL     1       3.788   7.757  17.393  0.00  0.00    +0.000 S 
ATOM      9  H   UNL     1       5.405   7.029  15.460  0.00  0.00    +0.000 HD
ENDROOT
BRANCH   6  10
ATOM     10  C   UNL     1       2.365   4.725  19.553  0.00  0.00    +0.000 A 
ATOM     11  C   UNL     1       1.316   3.921  19.086  0.00  0.00    +0.000 A 
ATOM     12  C   UNL     1       0.739   2.950  19.909  0.00  0.00    +0.000 A 
ATOM     13  C   UNL     1       1.208   2.773  21.209  0.00  0.00    +0.000 A 
ATOM     14  C   UNL     1       2.227   3.588  21.696  0.00  0.00    +0.000 A 
ATOM     15  C   UNL     1       2.783   4.578  20.882  0.00  0.00    +0.000 A 
ENDBRANCH   6  10
BRANCH   7  16
ATOM     16  C   UNL     1       1.873   7.967  19.402  0.00  0.00    +0.000 A 
ATOM     17  C   UNL     1       1.308   9.119  18.830  0.00  0.00    +0.000 A 
ATOM     18  C   UNL     1       0.590  10.035  19.605  0.00  0.00    +0.000 A 
ATOM     19  C   UNL     1       0.370   9.789  20.955  0.00  0.00    +0.000 A 
ATOM     20  C   UNL     1       0.871   8.626  21.532  0.00  0.00    +0.000 A 
ATOM     21  C   UNL     1       1.625   7.731  20.767  0.00  0.00    +0.000 A 
ENDBRANCH   7  16
BRANCH   1  23
ATOM     22  C   UNL     1       6.496   3.822  13.212  0.00  0.00    +0.000 C 
ATOM     23  C   UNL     1       6.447   5.069  14.084  0.00  0.00    +0.000 C 
BRANCH  23  24
ATOM     24  N   UNL     1       7.806   5.322  14.612  0.00  0.00    +0.000 NA
ATOM     25  H   UNL     1       8.146   6.192  14.190  0.00  0.00    +0.000 HD
ATOM     26  H   UNL     1       8.426   4.623  14.186  0.00  0.00    +0.000 HD
ENDBRANCH  23  24
ENDBRANCH   1  23
TORSDOF 4
ENDMDL
MODEL 3
REMARK VINA RESULT:      -8.0      0.257      1.038
REMARK  Name = 
REMARK  5 active torsions:
REMARK  status: ('A' for Active; 'I' for Inactive)
REMARK    1  A    between atoms: C_1  and  C_2
REMARK    2  A    between atoms: C_2  and  N_3
REMARK    3  A    between atoms: C_2  and  C_4
REMARK    4  A    between atoms: C_9  and  C_10
REMARK    5  A    between atoms: C_16  and  C_17
REMARK                            x       y       z     vdW  Elec       q    Type
REMARK                         _______ _______ _______ _____ _____    ______ ____
ROOT
ATOM      1  C   UNL     1       5.576   4.799  14.995  0.00  0.00    +0.000 C 
ATOM      2  O   UNL     1       5.130   3.702  15.327  0.00  0.00    +0.000 OA
ATOM      3  N   UNL     1       5.299   6.003  15.615  0.00  0.00    +0.000 N 
ATOM      4  C   UNL     1       4.464   6.068  16.700  0.00  0.00    +0.000 A 
ATOM      5  N   UNL     1       3.974   5.096  17.412  0.00  0.00    +0.000 NA
ATOM      6  C   UNL     1       3.088   5.592  18.359  0.00  0.00    +0.000 A 
ATOM      7  C   UNL     1       2.935   6.981  18.363  0.00  0.00    +0.000 A 
ATOM      8  S   UNL     1       4.016   7.640  17.167  0.00  0.00    +0.000 S 
ATOM      9  H   UNL     1       5.619   6.878  15.235  0.00  0.00    +0.000 HD
ENDROOT
BRANCH   6  10
ATOM     10  C   UNL     1       2.420   4.632  19.238  0.00  0.00    +0.000 A 
ATOM     11  C   UNL     1       2.852   4.512  20.567  0.00  0.00    +0.000 A 
ATOM     12  C   UNL     1       2.209   3.640  21.451  0.00  0.00    +0.000 A 
ATOM     13  C   UNL     1       1.125   2.881  21.013  0.00  0.00    +0.000 A 
ATOM     14  C   UNL     1       0.708   2.967  19.687  0.00  0.00    +0.000 A 
ATOM     15  C   UNL     1       1.370   3.817  18.797  0.00  0.00    +0.000 A 
ENDBRANCH   6  10
BRANCH   7  16
ATOM     16  C   UNL     1       2.090   7.897  19.159  0.00  0.00    +0.000 A 
ATOM     17  C   UNL     1       1.833   7.655  20.518  0.00  0.00    +0.000 A 
ATOM     18  C   UNL     1       0.925   8.441  21.236  0.00  0.00    +0.000 A 
ATOM     19  C   UNL     1       0.301   9.523  20.624  0.00  0.00    +0.000 A 
ATOM     20  C   UNL     1       0.583   9.818  19.294  0.00  0.00    +0.000 A 
ATOM     21  C   UNL     1       1.459   9.006  18.566  0.00  0.00    +0.000 A 
ENDBRANCH   7  16
BRANCH   1  23
ATOM     22  C   UNL     1       6.645   3.638  12.978  0.00  0.00    +0.000 C 
ATOM     23  C   UNL     1       6.579   4.902  13.823  0.00  0.00    +0.000 C 
BRANCH  23  24
ATOM     24  N   UNL     1       7.929   5.168  14.369  0.00  0.00    +0.000 NA
ATOM     25  H   UNL     1       8.007   4.669  15.260  0.00  0.00    +0.000 HD
ATOM     26  H   UNL     1       7.939   6.149  14.673  0.00  0.00    +0.000 HD
ENDBRANCH  23  24
ENDBRANCH   1  23
TORSDOF 4
ENDMDL
MODEL 4
REMARK VINA RESULT:      -7.9      0.930      1.745
REMARK  Name = 
REMARK  5 active torsions:
REMARK  status: ('A' for Active; 'I' for Inactive)
REMARK    1  A    between atoms: C_1  and  C_2
REMARK    2  A    between atoms: C_2  and  N_3
REMARK    3  A    between atoms: C_2  and  C_4
REMARK    4  A    between atoms: C_9  and  C_10
REMARK    5  A    between atoms: C_16  and  C_17
REMARK                            x       y       z     vdW  Elec       q    Type
REMARK                         _______ _______ _______ _____ _____    ______ ____
ROOT
ATOM      1  C   UNL     1       5.949   4.109  15.175  0.00  0.00    +0.000 C 
ATOM      2  O   UNL     1       5.465   3.061  15.600  0.00  0.00    +0.000 OA
ATOM      3  N   UNL     1       5.654   5.378  15.636  0.00  0.00    +0.000 N 
ATOM      4  C   UNL     1       4.754   5.574  16.650  0.00  0.00    +0.000 A 
ATOM      5  N   UNL     1       4.204   4.694  17.435  0.00  0.00    +0.000 NA
ATOM      6  C   UNL     1       3.268   5.303  18.261  0.00  0.00    +0.000 A 
ATOM      7  C   UNL     1       3.139   6.685  18.098  0.00  0.00    +0.000 A 
ATOM      8  S   UNL     1       4.304   7.193  16.907  0.00  0.00    +0.000 S 
ATOM      9  H   UNL     1       6.011   6.201  15.180  0.00  0.00    +0.000 HD
ENDROOT
BRANCH   6  10
ATOM     10  C   UNL     1       2.531   4.456  19.198  0.00  0.00    +0.000 A 
ATOM     11  C   UNL     1       2.953   4.390  20.534  0.00  0.00    +0.000 A 
ATOM     12  C   UNL     1       2.247   3.630  21.470  0.00  0.00    +0.000 A 
ATOM     13  C   UNL     1       1.109   2.928  21.078  0.00  0.00    +0.000 A 
ATOM     14  C   UNL     1       0.698   2.958  19.749  0.00  0.00    +0.000 A 
ATOM     15  C   UNL     1       1.422   3.696  18.807  0.00  0.00    +0.000 A 
ENDBRANCH   6  10
BRANCH   7  16
ATOM     16  C   UNL     1       2.261   7.694  18.729  0.00  0.00    +0.000 A 
ATOM     17  C   UNL     1       1.753   8.778  17.996  0.00  0.00    +0.000 A 
ATOM     18  C   UNL     1       1.038   9.805  18.620  0.00  0.00    +0.000 A 
ATOM     19  C   UNL     1       0.764   9.739  19.982  0.00  0.00    +0.000 A 
ATOM     20  C   UNL     1       1.207   8.645  20.720  0.00  0.00    +0.000 A 
ATOM     21  C   UNL     1       1.958   7.640  20.103  0.00  0.00    +0.000 A 
ENDBRANCH   7  16
BRANCH   1  23
ATOM     22  C   UNL     1       7.537   5.448  13.677  0.00  0.00    +0.000 C 
ATOM     23  C   UNL     1       7.026   4.068  14.066  0.00  0.00    +0.000 C 
BRANCH  23  24
ATOM     24  N   UNL     1       6.452   3.427  12.862  0.00  0.00    +0.000 NA
ATOM     25  H   UNL     1       5.431   3.478  12.941  0.00  0.00    +0.000 HD
ATOM     26  H   UNL     1       6.622   2.418  12.952  0.00  0.00    +0.000 HD
ENDBRANCH  23  24
ENDBRANCH   1  23
TORSDOF 4
ENDMDL
MODEL 5
REMARK VINA RESULT:      -7.9      1.409      1.917
REMARK  Name = 
REMARK  5 active torsions:
REMARK  status: ('A' for Active; 'I' for Inactive)
REMARK    1  A    between atoms: C_1  and  C_2
REMARK    2  A    between atoms: C_2  and  N_3
REMARK    3  A    between atoms: C_2  and  C_4
REMARK    4  A    between atoms: C_9  and  C_10
REMARK    5  A    between atoms: C_16  and  C_17
REMARK                            x       y       z     vdW  Elec       q    Type
REMARK                         _______ _______ _______ _____ _____    ______ ____
ROOT
ATOM      1  C   UNL     1       6.455   4.322  14.261  0.00  0.00    +0.000 C 
ATOM      2  O   UNL     1       5.932   3.238  14.515  0.00  0.00    +0.000 OA
ATOM      3  N   UNL     1       6.202   5.512  14.916  0.00  0.00    +0.000 N 
ATOM      4  C   UNL     1       5.302   5.578  15.947  0.00  0.00    +0.000 A 
ATOM      5  N   UNL     1       4.717   4.606  16.583  0.00  0.00    +0.000 NA
ATOM      6  C   UNL     1       3.797   5.109  17.494  0.00  0.00    +0.000 A 
ATOM      7  C   UNL     1       3.717   6.503  17.550  0.00  0.00    +0.000 A 
ATOM      8  S   UNL     1       4.907   7.151  16.456  0.00  0.00    +0.000 S 
ATOM      9  H   UNL     1       6.590   6.383  14.596  0.00  0.00    +0.000 HD
ENDROOT
BRANCH   6  10
ATOM     10  C   UNL     1       3.024   4.152  18.285  0.00  0.00    +0.000 A 
ATOM     11  C   UNL     1       3.617   3.565  19.412  0.00  0.00    +0.000 A 
ATOM     12  C   UNL     1       2.896   2.682  20.221  0.00  0.00    +0.000 A 
ATOM     13  C   UNL     1       1.572   2.378  19.909  0.00  0.00    +0.000 A 
ATOM     14  C   UNL     1       0.983   2.928  18.774  0.00  0.00    +0.000 A 
ATOM     15  C   UNL     1       1.714   3.789  17.950  0.00  0.00    +0.000 A 
ENDBRANCH   6  10
BRANCH   7  16
ATOM     16  C   UNL     1       2.870   7.431  18.332  0.00  0.00    +0.000 A 
ATOM     17  C   UNL     1       2.514   7.148  19.660  0.00  0.00    +0.000 A 
ATOM     18  C   UNL     1       1.604   7.952  20.354  0.00  0.00    +0.000 A 
ATOM     19  C   UNL     1       1.076   9.089  19.753  0.00  0.00    +0.000 A 
ATOM     20  C   UNL     1       1.458   9.423  18.457  0.00  0.00    +0.000 A 
ATOM     21  C   UNL     1       2.336   8.595  17.750  0.00  0.00    +0.000 A 
ENDBRANCH   7  16
BRANCH   1  23
ATOM     22  C   UNL     1       8.080   5.828  12.975  0.00  0.00    +0.000 C 
ATOM     23  C   UNL     1       7.537   4.418  13.161  0.00  0.00    +0.000 C 
BRANCH  23  24
ATOM     24  N   UNL     1       6.957   3.969  11.875  0.00  0.00    +0.000 NA
ATOM     25  H   UNL     1       7.248   4.637  11.154  0.00  0.00    +0.000 HD
ATOM     26  H   UNL     1       5.946   4.141  11.929  0.00  0.00    +0.000 HD
ENDBRANCH  23  24
ENDBRANCH   1  23
TORSDOF 4
ENDMDL
MODEL 6
REMARK VINA RESULT:      -7.8      1.473      1.776
REMARK  Name = 
REMARK  5 active torsions:
REMARK  status: ('A' for Active; 'I' for Inactive)
REMARK    1  A    between atoms: C_1  and  C_2
REMARK    2  A    between atoms: C_2  and  N_3
REMARK    3  A    between atoms: C_2  and  C_4
REMARK    4  A    between atoms: C_9  and  C_10
REMARK    5  A    between atoms: C_16  and  C_17
REMARK                            x       y       z     vdW  Elec       q    Type
REMARK                         _______ _______ _______ _____ _____    ______ ____
ROOT
ATOM      1  C   UNL     1       6.509   4.314  14.178  0.00  0.00    +0.000 C 
ATOM      2  O   UNL     1       5.978   3.230  14.412  0.00  0.00    +0.000 OA
ATOM      3  N   UNL     1       6.261   5.495  14.853  0.00  0.00    +0.000 N 
ATOM      4  C   UNL     1       5.359   5.548  15.884  0.00  0.00    +0.000 A 
ATOM      5  N   UNL     1       4.766   4.569  16.500  0.00  0.00    +0.000 NA
ATOM      6  C   UNL     1       3.847   5.062  17.417  0.00  0.00    +0.000 A 
ATOM      7  C   UNL     1       3.776   6.455  17.499  0.00  0.00    +0.000 A 
ATOM      8  S   UNL     1       4.973   7.115  16.419  0.00  0.00    +0.000 S 
ATOM      9  H   UNL     1       6.656   6.369  14.550  0.00  0.00    +0.000 HD
ENDROOT
BRANCH   6  10
ATOM     10  C   UNL     1       3.066   4.096  18.189  0.00  0.00    +0.000 A 
ATOM     11  C   UNL     1       1.729   3.862  17.834  0.00  0.00    +0.000 A 
ATOM     12  C   UNL     1       0.964   2.913  18.517  0.00  0.00    +0.000 A 
ATOM     13  C   UNL     1       1.530   2.186  19.563  0.00  0.00    +0.000 A 
ATOM     14  C   UNL     1       2.846   2.433  19.947  0.00  0.00    +0.000 A 
ATOM     15  C   UNL     1       3.601   3.402  19.282  0.00  0.00    +0.000 A 
ENDBRANCH   6  10
BRANCH   7  16
ATOM     16  C   UNL     1       2.932   7.375  18.294  0.00  0.00    +0.000 A 
ATOM     17  C   UNL     1       2.608   7.092  19.630  0.00  0.00    +0.000 A 
ATOM     18  C   UNL     1       1.701   7.886  20.340  0.00  0.00    +0.000 A 
ATOM     19  C   UNL     1       1.146   9.014  19.746  0.00  0.00    +0.000 A 
ATOM     20  C   UNL     1       1.496   9.348  18.441  0.00  0.00    +0.000 A 
ATOM     21  C   UNL     1       2.371   8.530  17.718  0.00  0.00    +0.000 A 
ENDBRANCH   7  16
BRANCH   1  23
ATOM     22  C   UNL     1       8.149   5.832  12.926  0.00  0.00    +0.000 C 
ATOM     23  C   UNL     1       7.595   4.423  13.083  0.00  0.00    +0.000 C 
BRANCH  23  24
ATOM     24  N   UNL     1       7.014   4.004  11.787  0.00  0.00    +0.000 NA
ATOM     25  H   UNL     1       6.212   3.399  11.989  0.00  0.00    +0.000 HD
ATOM     26  H   UNL     1       7.677   3.343  11.364  0.00  0.00    +0.000 HD
ENDBRANCH  23  24
ENDBRANCH   1  23
TORSDOF 4
ENDMDL
MODEL 7
REMARK VINA RESULT:      -7.8      1.060      1.779
REMARK  Name = 
REMARK  5 active torsions:
REMARK  status: ('A' for Active; 'I' for Inactive)
REMARK    1  A    between atoms: C_1  and  C_2
REMARK    2  A    between atoms: C_2  and  N_3
REMARK    3  A    between atoms: C_2  and  C_4
REMARK    4  A    between atoms: C_9  and  C_10
REMARK    5  A    between atoms: C_16  and  C_17
REMARK                            x       y       z     vdW  Elec       q    Type
REMARK                         _______ _______ _______ _____ _____    ______ ____
ROOT
ATOM      1  C   UNL     1       6.061   4.837  14.343  0.00  0.00    +0.000 C 
ATOM      2  O   UNL     1       5.644   3.702  14.564  0.00  0.00    +0.000 OA
ATOM      3  N   UNL     1       5.745   5.968  15.073  0.00  0.00    +0.000 N 
ATOM      4  C   UNL     1       4.900   5.905  16.150  0.00  0.00    +0.000 A 
ATOM      5  N   UNL     1       4.432   4.856  16.760  0.00  0.00    +0.000 NA
ATOM      6  C   UNL     1       3.524   5.233  17.741  0.00  0.00    +0.000 A 
ATOM      7  C   UNL     1       3.332   6.611  17.876  0.00  0.00    +0.000 A 
ATOM      8  S   UNL     1       4.403   7.411  16.761  0.00  0.00    +0.000 S 
ATOM      9  H   UNL     1       6.043   6.884  14.782  0.00  0.00    +0.000 HD
ENDROOT
BRANCH   6  10
ATOM     10  C   UNL     1       2.877   4.175  18.516  0.00  0.00    +0.000 A 
ATOM     11  C   UNL     1       3.571   3.595  19.588  0.00  0.00    +0.000 A 
ATOM     12  C   UNL     1       2.969   2.615  20.382  0.00  0.00    +0.000 A 
ATOM     13  C   UNL     1       1.664   2.206  20.111  0.00  0.00    +0.000 A 
ATOM     14  C   UNL     1       0.977   2.750  19.030  0.00  0.00    +0.000 A 
ATOM     15  C   UNL     1       1.590   3.709  18.219  0.00  0.00    +0.000 A 
ENDBRANCH   6  10
BRANCH   7  16
ATOM     16  C   UNL     1       2.454   7.422  18.747  0.00  0.00    +0.000 A 
ATOM     17  C   UNL     1       1.883   8.622  18.291  0.00  0.00    +0.000 A 
ATOM     18  C   UNL     1       1.168   9.459  19.153  0.00  0.00    +0.000 A 
ATOM     19  C   UNL     1       0.956   9.084  20.475  0.00  0.00    +0.000 A 
ATOM     20  C   UNL     1       1.462   7.872  20.936  0.00  0.00    +0.000 A 
ATOM     21  C   UNL     1       2.213   7.056  20.084  0.00  0.00    +0.000 A 
ENDBRANCH   7  16
BRANCH   1  23
ATOM     22  C   UNL     1       7.271   3.862  12.307  0.00  0.00    +0.000 C 
ATOM     23  C   UNL     1       7.071   5.080  13.198  0.00  0.00    +0.000 C 
BRANCH  23  24
ATOM     24  N   UNL     1       8.380   5.450  13.782  0.00  0.00    +0.000 NA
ATOM     25  H   UNL     1       8.305   6.413  14.125  0.00  0.00    +0.000 HD
ATOM     26  H   UNL     1       9.036   5.554  12.999  0.00  0.00    +0.000 HD
ENDBRANCH  23  24
ENDBRANCH   1  23
TORSDOF 4
ENDMDL
MODEL 8
REMARK VINA RESULT:      -7.8      2.998      6.283
REMARK  Name = 
REMARK  5 active torsions:
REMARK  status: ('A' for Active; 'I' for Inactive)
REMARK    1  A    between atoms: C_1  and  C_2
REMARK    2  A    between atoms: C_2  and  N_3
REMARK    3  A    between atoms: C_2  and  C_4
REMARK    4  A    between atoms: C_9  and  C_10
REMARK    5  A    between atoms: C_16  and  C_17
REMARK                            x       y       z     vdW  Elec       q    Type
REMARK                         _______ _______ _______ _____ _____    ______ ____
ROOT
ATOM      1  C   UNL     1       0.709   9.991  19.407  0.00  0.00    +0.000 C 
ATOM      2  O   UNL     1       0.198   9.260  20.253  0.00  0.00    +0.000 OA
ATOM      3  N   UNL     1       1.675   9.615  18.493  0.00  0.00    +0.000 N 
ATOM      4  C   UNL     1       2.161   8.334  18.460  0.00  0.00    +0.000 A 
ATOM      5  N   UNL     1       1.721   7.278  19.079  0.00  0.00    +0.000 NA
ATOM      6  C   UNL     1       2.566   6.199  18.853  0.00  0.00    +0.000 A 
ATOM      7  C   UNL     1       3.656   6.461  18.018  0.00  0.00    +0.000 A 
ATOM      8  S   UNL     1       3.526   8.110  17.473  0.00  0.00    +0.000 S 
ATOM      9  H   UNL     1       2.122  10.286  17.892  0.00  0.00    +0.000 HD
ENDROOT
BRANCH   6  10
ATOM     10  C   UNL     1       2.236   4.927  19.494  0.00  0.00    +0.000 A 
ATOM     11  C   UNL     1       2.432   4.790  20.876  0.00  0.00    +0.000 A 
ATOM     12  C   UNL     1       2.085   3.606  21.533  0.00  0.00    +0.000 A 
ATOM     13  C   UNL     1       1.536   2.547  20.812  0.00  0.00    +0.000 A 
ATOM     14  C   UNL     1       1.367   2.659  19.435  0.00  0.00    +0.000 A 
ATOM     15  C   UNL     1       1.741   3.832  18.774  0.00  0.00    +0.000 A 
ENDBRANCH   6  10
BRANCH   7  16
ATOM     16  C   UNL     1       4.790   5.632  17.556  0.00  0.00    +0.000 A 
ATOM     17  C   UNL     1       6.023   5.645  18.228  0.00  0.00    +0.000 A 
ATOM     18  C   UNL     1       7.136   4.971  17.715  0.00  0.00    +0.000 A 
ATOM     19  C   UNL     1       7.023   4.220  16.550  0.00  0.00    +0.000 A 
ATOM     20  C   UNL     1       5.796   4.145  15.897  0.00  0.00    +0.000 A 
ATOM     21  C   UNL     1       4.695   4.853  16.388  0.00  0.00    +0.000 A 
ENDBRANCH   7  16
BRANCH   1  23
ATOM     22  C   UNL     1      -1.245  11.579  18.934  0.00  0.00    +0.000 C 
ATOM     23  C   UNL     1       0.235  11.457  19.267  0.00  0.00    +0.000 C 
BRANCH  23  24
ATOM     24  N   UNL     1       1.010  12.111  18.188  0.00  0.00    +0.000 NA
ATOM     25  H   UNL     1       1.337  11.377  17.553  0.00  0.00    +0.000 HD
ATOM     26  H   UNL     1       1.889  12.435  18.608  0.00  0.00    +0.000 HD
ENDBRANCH  23  24
ENDBRANCH   1  23
TORSDOF 4
ENDMDL
MODEL 9
REMARK VINA RESULT:      -7.7      3.044      6.183
REMARK  Name = 
REMARK  5 active torsions:
REMARK  status: ('A' for Active; 'I' for Inactive)
REMARK    1  A    between atoms: C_1  and  C_2
REMARK    2  A    between atoms: C_2  and  N_3
REMARK    3  A    between atoms: C_2  and  C_4
REMARK    4  A    between atoms: C_9  and  C_10
REMARK    5  A    between atoms: C_16  and  C_17
REMARK                            x       y       z     vdW  Elec       q    Type
REMARK                         _______ _______ _______ _____ _____    ______ ____
ROOT
ATOM      1  C   UNL     1       0.630  10.128  19.286  0.00  0.00    +0.000 C 
ATOM      2  O   UNL     1       0.100   9.419  20.139  0.00  0.00    +0.000 OA
ATOM      3  N   UNL     1       1.615   9.727  18.402  0.00  0.00    +0.000 N 
ATOM      4  C   UNL     1       2.099   8.446  18.413  0.00  0.00    +0.000 A 
ATOM      5  N   UNL     1       1.644   7.406  19.049  0.00  0.00    +0.000 NA
ATOM      6  C   UNL     1       2.492   6.321  18.869  0.00  0.00    +0.000 A 
ATOM      7  C   UNL     1       3.599   6.560  18.051  0.00  0.00    +0.000 A 
ATOM      8  S   UNL     1       3.484   8.194  17.460  0.00  0.00    +0.000 S 
ATOM      9  H   UNL     1       2.076  10.382  17.794  0.00  0.00    +0.000 HD
ENDROOT
BRANCH   6  10
ATOM     10  C   UNL     1       2.146   5.066  19.535  0.00  0.00    +0.000 A 
ATOM     11  C   UNL     1       1.574   4.030  18.782  0.00  0.00    +0.000 A 
ATOM     12  C   UNL     1       1.274   2.799  19.373  0.00  0.00    +0.000 A 
ATOM     13  C   UNL     1       1.545   2.593  20.724  0.00  0.00    +0.000 A 
ATOM     14  C   UNL     1       2.082   3.624  21.490  0.00  0.00    +0.000 A 
ATOM     15  C   UNL     1       2.355   4.863  20.905  0.00  0.00    +0.000 A 
ENDBRANCH   6  10
BRANCH   7  16
ATOM     16  C   UNL     1       4.742   5.717  17.634  0.00  0.00    +0.000 A 
ATOM     17  C   UNL     1       5.893   5.605  18.430  0.00  0.00    +0.000 A 
ATOM     18  C   UNL     1       7.026   4.923  17.976  0.00  0.00    +0.000 A 
ATOM     19  C   UNL     1       7.010   4.287  16.739  0.00  0.00    +0.000 A 
ATOM     20  C   UNL     1       5.860   4.334  15.956  0.00  0.00    +0.000 A 
ATOM     21  C   UNL     1       4.742   5.053  16.394  0.00  0.00    +0.000 A 
ENDBRANCH   7  16
BRANCH   1  23
ATOM     22  C   UNL     1      -1.246  11.701  18.532  0.00  0.00    +0.000 C 
ATOM     23  C   UNL     1       0.163  11.590  19.098  0.00  0.00    +0.000 C 
BRANCH  23  24
ATOM     24  N   UNL     1       1.092  12.276  18.172  0.00  0.00    +0.000 NA
ATOM     25  H   UNL     1       1.629  12.956  18.720  0.00  0.00    +0.000 HD
ATOM     26  H   UNL     1       0.521  12.888  17.577  0.00  0.00    +0.000 HD
ENDBRANCH  23  24
ENDBRANCH   1  23
TORSDOF 4
ENDMDL
