MODEL 1
REMARK VINA RESULT:      -8.1      0.000      0.000
REMARK  Name = 
REMARK  11 active torsions:
REMARK  status: ('A' for Active; 'I' for Inactive)
REMARK    1  A    between atoms: C_1  and  N_2
REMARK    2  A    between atoms: N_2  and  C_3
REMARK    3  A    between atoms: C_3  and  C_4
REMARK    4  A    between atoms: C_10  and  C_12
REMARK    5  A    between atoms: C_12  and  C_13
REMARK    6  A    between atoms: C_15  and  C_16
REMARK    7  A    between atoms: C_16  and  N_17
REMARK    8  A    between atoms: N_17  and  S_18
REMARK    9  A    between atoms: S_18  and  C_21
REMARK   10  A    between atoms: C_27  and  O_28
REMARK   11  A    between atoms: C_29  and  O_30
REMARK                            x       y       z     vdW  Elec       q    Type
REMARK                         _______ _______ _______ _____ _____    ______ ____
ROOT
ATOM      1  C   UNL     1       2.612   5.364  19.119  0.00  0.00    +0.000 C 
ATOM      2  O   UNL     1       3.830   5.014  19.804  0.00  0.00    +0.000 OA
ATOM      3  C   UNL     1       4.529   3.975  19.102  0.00  0.00    +0.000 C 
ATOM      4  C   UNL     1       3.583   3.485  18.006  0.00  0.00    +0.000 C 
ATOM      5  C   UNL     1       2.645   4.660  17.764  0.00  0.00    +0.000 C 
ENDROOT
BRANCH   4   6
ATOM      6  O   UNL     1       2.796   2.368  18.466  0.00  0.00    +0.000 OA
ATOM      7  H   UNL     1       3.303   1.552  18.280  0.00  0.00    +0.000 HD
ENDBRANCH   4   6
BRANCH   5   8
ATOM      8  O   UNL     1       1.346   4.233  17.362  0.00  0.00    +0.000 OA
ATOM      9  H   UNL     1       0.735   4.966  17.586  0.00  0.00    +0.000 HD
ENDBRANCH   5   8
BRANCH   1  10
ATOM     10  C   UNL     1       2.525   6.884  18.972  0.00  0.00    +0.000 C 
BRANCH  10  13
ATOM     11  C   UNL     1       0.656   9.409  21.123  0.00  0.00    +0.000 C 
ATOM     12  N   UNL     1       1.329   8.824  19.975  0.00  0.00    +0.000 N 
ATOM     13  C   UNL     1       1.748   7.506  20.121  0.00  0.00    +0.000 C 
ATOM     14  O   UNL     1       1.515   6.883  21.157  0.00  0.00    +0.000 OA
BRANCH  12  15
ATOM     15  C   UNL     1       1.392   9.592  18.732  0.00  0.00    +0.000 C 
BRANCH  15  16
ATOM     16  C   UNL     1       0.105  10.309  18.382  0.00  0.00    +0.000 A 
ATOM     17  C   UNL     1      -0.093  11.656  18.723  0.00  0.00    +0.000 A 
ATOM     18  C   UNL     1      -1.269  12.318  18.365  0.00  0.00    +0.000 A 
ATOM     19  C   UNL     1      -2.266  11.644  17.660  0.00  0.00    +0.000 A 
ATOM     20  C   UNL     1      -2.084  10.310  17.309  0.00  0.00    +0.000 A 
ATOM     21  C   UNL     1      -0.903   9.651  17.664  0.00  0.00    +0.000 A 
ENDBRANCH  15  16
ENDBRANCH  12  15
ENDBRANCH  10  13
ENDBRANCH   1  10
BRANCH   3  22
ATOM     22  C   UNL     1       5.852   4.543  18.567  0.00  0.00    +0.000 C 
BRANCH  22  23
ATOM     23  N   UNL     1       6.001   4.296  17.120  0.00  0.00    +0.000 NA
ATOM     24  H   UNL     1       5.419   3.593  16.668  0.00  0.00    +0.000 HD
BRANCH  23  25
ATOM     25  S   UNL     1       6.266   5.636  16.127  0.00  0.00    +0.000 S 
ATOM     26  O   UNL     1       5.051   6.412  16.135  0.00  0.00    +0.000 OA
ATOM     27  O   UNL     1       7.542   6.206  16.520  0.00  0.00    +0.000 OA
BRANCH  25  28
ATOM     28  C   UNL     1       6.440   4.901  14.525  0.00  0.00    +0.000 A 
ATOM     29  C   UNL     1       7.520   5.254  13.714  0.00  0.00    +0.000 A 
ATOM     30  C   UNL     1       7.634   4.692  12.441  0.00  0.00    +0.000 A 
ATOM     31  C   UNL     1       6.682   3.775  11.992  0.00  0.00    +0.000 A 
ATOM     32  C   UNL     1       5.617   3.405  12.816  0.00  0.00    +0.000 A 
ATOM     33  C   UNL     1       5.494   3.962  14.089  0.00  0.00    +0.000 A 
ENDBRANCH  25  28
ENDBRANCH  23  25
ENDBRANCH  22  23
ENDBRANCH   3  22
TORSDOF 10
ENDMDL
MODEL 2
REMARK VINA RESULT:      -7.9      2.097      2.905
REMARK  Name = 
REMARK  11 active torsions:
REMARK  status: ('A' for Active; 'I' for Inactive)
REMARK    1  A    between atoms: C_1  and  N_2
REMARK    2  A    between atoms: N_2  and  C_3
REMARK    3  A    between atoms: C_3  and  C_4
REMARK    4  A    between atoms: C_10  and  C_12
REMARK    5  A    between atoms: C_12  and  C_13
REMARK    6  A    between atoms: C_15  and  C_16
REMARK    7  A    between atoms: C_16  and  N_17
REMARK    8  A    between atoms: N_17  and  S_18
REMARK    9  A    between atoms: S_18  and  C_21
REMARK   10  A    between atoms: C_27  and  O_28
REMARK   11  A    between atoms: C_29  and  O_30
REMARK                            x       y       z     vdW  Elec       q    Type
REMARK                         _______ _______ _______ _____ _____    ______ ____
ROOT
ATOM      1  C   UNL     1       2.875   5.548  19.739  0.00  0.00    +0.000 C 
ATOM      2  O   UNL     1       4.090   5.193  19.052  0.00  0.00    +0.000 OA
ATOM      3  C   UNL     1       4.006   3.861  18.524  0.00  0.00    +0.000 C 
ATOM      4  C   UNL     1       2.726   3.251  19.097  0.00  0.00    +0.000 C 
ATOM      5  C   UNL     1       1.855   4.453  19.436  0.00  0.00    +0.000 C 
ENDROOT
BRANCH   4   6
ATOM      6  O   UNL     1       3.000   2.534  20.318  0.00  0.00    +0.000 OA
ATOM      7  H   UNL     1       3.323   1.644  20.073  0.00  0.00    +0.000 HD
ENDBRANCH   4   6
BRANCH   5   8
ATOM      8  O   UNL     1       1.008   4.200  20.555  0.00  0.00    +0.000 OA
ATOM      9  H   UNL     1       0.338   4.916  20.558  0.00  0.00    +0.000 HD
ENDBRANCH   5   8
BRANCH   1  10
ATOM     10  C   UNL     1       2.399   6.921  19.262  0.00  0.00    +0.000 C 
BRANCH  10  13
ATOM     11  C   UNL     1       0.613   9.664  21.207  0.00  0.00    +0.000 C 
ATOM     12  N   UNL     1       1.267   8.971  20.109  0.00  0.00    +0.000 N 
ATOM     13  C   UNL     1       1.643   7.655  20.358  0.00  0.00    +0.000 C 
ATOM     14  O   UNL     1       1.390   7.122  21.439  0.00  0.00    +0.000 OA
BRANCH  12  15
ATOM     15  C   UNL     1       1.354   9.638  18.810  0.00  0.00    +0.000 C 
BRANCH  15  16
ATOM     16  C   UNL     1       0.064  10.297  18.367  0.00  0.00    +0.000 A 
ATOM     17  C   UNL     1      -0.180  11.656  18.617  0.00  0.00    +0.000 A 
ATOM     18  C   UNL     1      -1.357  12.264  18.173  0.00  0.00    +0.000 A 
ATOM     19  C   UNL     1      -2.306  11.523  17.471  0.00  0.00    +0.000 A 
ATOM     20  C   UNL     1      -2.077  10.175  17.209  0.00  0.00    +0.000 A 
ATOM     21  C   UNL     1      -0.896   9.571  17.649  0.00  0.00    +0.000 A 
ENDBRANCH  15  16
ENDBRANCH  12  15
ENDBRANCH  10  13
ENDBRANCH   1  10
BRANCH   3  22
ATOM     22  C   UNL     1       4.020   3.935  16.990  0.00  0.00    +0.000 C 
BRANCH  22  23
ATOM     23  N   UNL     1       5.366   3.661  16.447  0.00  0.00    +0.000 NA
ATOM     24  H   UNL     1       5.564   2.753  16.032  0.00  0.00    +0.000 HD
BRANCH  23  25
ATOM     25  S   UNL     1       6.143   4.917  15.630  0.00  0.00    +0.000 S 
ATOM     26  O   UNL     1       7.131   4.313  14.771  0.00  0.00    +0.000 OA
ATOM     27  O   UNL     1       5.103   5.787  15.108  0.00  0.00    +0.000 OA
BRANCH  25  28
ATOM     28  C   UNL     1       6.990   5.762  16.935  0.00  0.00    +0.000 A 
ATOM     29  C   UNL     1       7.438   5.046  18.048  0.00  0.00    +0.000 A 
ATOM     30  C   UNL     1       8.079   5.723  19.087  0.00  0.00    +0.000 A 
ATOM     31  C   UNL     1       8.282   7.102  19.003  0.00  0.00    +0.000 A 
ATOM     32  C   UNL     1       7.856   7.810  17.878  0.00  0.00    +0.000 A 
ATOM     33  C   UNL     1       7.213   7.142  16.836  0.00  0.00    +0.000 A 
ENDBRANCH  25  28
ENDBRANCH  23  25
ENDBRANCH  22  23
ENDBRANCH   3  22
TORSDOF 10
ENDMDL
MODEL 3
REMARK VINA RESULT:      -7.9      2.071      2.972
REMARK  Name = 
REMARK  11 active torsions:
REMARK  status: ('A' for Active; 'I' for Inactive)
REMARK    1  A    between atoms: C_1  and  N_2
REMARK    2  A    between atoms: N_2  and  C_3
REMARK    3  A    between atoms: C_3  and  C_4
REMARK    4  A    between atoms: C_10  and  C_12
REMARK    5  A    between atoms: C_12  and  C_13
REMARK    6  A    between atoms: C_15  and  C_16
REMARK    7  A    between atoms: C_16  and  N_17
REMARK    8  A    between atoms: N_17  and  S_18
REMARK    9  A    between atoms: S_18  and  C_21
REMARK   10  A    between atoms: C_27  and  O_28
REMARK   11  A    between atoms: C_29  and  O_30
REMARK                            x       y       z     vdW  Elec       q    Type
REMARK                         _______ _______ _______ _____ _____    ______ ____
ROOT
ATOM      1  C   UNL     1       2.848   5.463  19.659  0.00  0.00    +0.000 C 
ATOM      2  O   UNL     1       4.075   5.104  18.997  0.00  0.00    +0.000 OA
ATOM      3  C   UNL     1       3.978   3.793  18.420  0.00  0.00    +0.000 C 
ATOM      4  C   UNL     1       2.669   3.194  18.934  0.00  0.00    +0.000 C 
ATOM      5  C   UNL     1       1.814   4.402  19.289  0.00  0.00    +0.000 C 
ENDROOT
BRANCH   4   6
ATOM      6  O   UNL     1       2.890   2.429  20.137  0.00  0.00    +0.000 OA
ATOM      7  H   UNL     1       3.252   1.559  19.873  0.00  0.00    +0.000 HD
ENDBRANCH   4   6
BRANCH   5   8
ATOM      8  O   UNL     1       0.928   4.130  20.372  0.00  0.00    +0.000 OA
ATOM      9  H   UNL     1       1.380   3.468  20.936  0.00  0.00    +0.000 HD
ENDBRANCH   5   8
BRANCH   1  10
ATOM     10  C   UNL     1       2.416   6.862  19.216  0.00  0.00    +0.000 C 
BRANCH  10  13
ATOM     11  C   UNL     1       0.624   9.575  21.198  0.00  0.00    +0.000 C 
ATOM     12  N   UNL     1       1.295   8.904  20.096  0.00  0.00    +0.000 N 
ATOM     13  C   UNL     1       1.643   7.576  20.314  0.00  0.00    +0.000 C 
ATOM     14  O   UNL     1       1.354   7.014  21.371  0.00  0.00    +0.000 OA
BRANCH  12  15
ATOM     15  C   UNL     1       1.426   9.608  18.821  0.00  0.00    +0.000 C 
BRANCH  15  16
ATOM     16  C   UNL     1       0.161  10.306  18.368  0.00  0.00    +0.000 A 
ATOM     17  C   UNL     1      -0.854   9.607  17.697  0.00  0.00    +0.000 A 
ATOM     18  C   UNL     1      -2.033  10.252  17.314  0.00  0.00    +0.000 A 
ATOM     19  C   UNL     1      -2.214  11.605  17.596  0.00  0.00    +0.000 A 
ATOM     20  C   UNL     1      -1.220  12.312  18.265  0.00  0.00    +0.000 A 
ATOM     21  C   UNL     1      -0.044  11.663  18.652  0.00  0.00    +0.000 A 
ENDBRANCH  15  16
ENDBRANCH  12  15
ENDBRANCH  10  13
ENDBRANCH   1  10
BRANCH   3  22
ATOM     22  C   UNL     1       4.041   3.919  16.891  0.00  0.00    +0.000 C 
BRANCH  22  23
ATOM     23  N   UNL     1       5.409   3.692  16.385  0.00  0.00    +0.000 NA
ATOM     24  H   UNL     1       5.644   2.798  15.957  0.00  0.00    +0.000 HD
BRANCH  23  25
ATOM     25  S   UNL     1       6.176   4.985  15.617  0.00  0.00    +0.000 S 
ATOM     26  O   UNL     1       7.179   4.423  14.746  0.00  0.00    +0.000 OA
ATOM     27  O   UNL     1       5.130   5.859  15.116  0.00  0.00    +0.000 OA
BRANCH  25  28
ATOM     28  C   UNL     1       7.002   5.795  16.957  0.00  0.00    +0.000 A 
ATOM     29  C   UNL     1       7.225   7.172  16.904  0.00  0.00    +0.000 A 
ATOM     30  C   UNL     1       7.903   7.800  17.950  0.00  0.00    +0.000 A 
ATOM     31  C   UNL     1       8.339   7.054  19.047  0.00  0.00    +0.000 A 
ATOM     32  C   UNL     1       8.092   5.682  19.110  0.00  0.00    +0.000 A 
ATOM     33  C   UNL     1       7.417   5.046  18.067  0.00  0.00    +0.000 A 
ENDBRANCH  25  28
ENDBRANCH  23  25
ENDBRANCH  22  23
ENDBRANCH   3  22
TORSDOF 10
ENDMDL
MODEL 4
REMARK VINA RESULT:      -7.9      1.939      3.020
REMARK  Name = 
REMARK  11 active torsions:
REMARK  status: ('A' for Active; 'I' for Inactive)
REMARK    1  A    between atoms: C_1  and  N_2
REMARK    2  A    between atoms: N_2  and  C_3
REMARK    3  A    between atoms: C_3  and  C_4
REMARK    4  A    between atoms: C_10  and  C_12
REMARK    5  A    between atoms: C_12  and  C_13
REMARK    6  A    between atoms: C_15  and  C_16
REMARK    7  A    between atoms: C_16  and  N_17
REMARK    8  A    between atoms: N_17  and  S_18
REMARK    9  A    between atoms: S_18  and  C_21
REMARK   10  A    between atoms: C_27  and  O_28
REMARK   11  A    between atoms: C_29  and  O_30
REMARK                            x       y       z     vdW  Elec       q    Type
REMARK                         _______ _______ _______ _____ _____    ______ ____
ROOT
ATOM      1  C   UNL     1       2.781   4.568  18.774  0.00  0.00    +0.000 C 
ATOM      2  O   UNL     1       4.124   4.356  18.300  0.00  0.00    +0.000 OA
ATOM      3  C   UNL     1       4.197   3.176  17.486  0.00  0.00    +0.000 C 
ATOM      4  C   UNL     1       2.846   2.474  17.626  0.00  0.00    +0.000 C 
ATOM      5  C   UNL     1       1.884   3.583  18.028  0.00  0.00    +0.000 C 
ENDROOT
BRANCH   4   6
ATOM      6  O   UNL     1       2.879   1.499  18.688  0.00  0.00    +0.000 OA
ATOM      7  H   UNL     1       2.408   0.701  18.373  0.00  0.00    +0.000 HD
ENDBRANCH   4   6
BRANCH   5   8
ATOM      8  O   UNL     1       0.829   3.101  18.857  0.00  0.00    +0.000 OA
ATOM      9  H   UNL     1       1.259   2.683  19.632  0.00  0.00    +0.000 HD
ENDBRANCH   5   8
BRANCH   1  10
ATOM     10  C   UNL     1       2.371   6.020  18.521  0.00  0.00    +0.000 C 
BRANCH  10  13
ATOM     11  C   UNL     1       1.401   8.689  21.057  0.00  0.00    +0.000 C 
ATOM     12  N   UNL     1       1.784   8.077  19.795  0.00  0.00    +0.000 N 
ATOM     13  C   UNL     1       1.896   6.691  19.800  0.00  0.00    +0.000 C 
ATOM     14  O   UNL     1       1.641   6.042  20.815  0.00  0.00    +0.000 OA
BRANCH  12  15
ATOM     15  C   UNL     1       1.885   8.924  18.607  0.00  0.00    +0.000 C 
BRANCH  15  16
ATOM     16  C   UNL     1       0.852  10.030  18.547  0.00  0.00    +0.000 A 
ATOM     17  C   UNL     1       1.188  11.354  18.870  0.00  0.00    +0.000 A 
ATOM     18  C   UNL     1       0.238  12.375  18.778  0.00  0.00    +0.000 A 
ATOM     19  C   UNL     1      -1.061  12.087  18.361  0.00  0.00    +0.000 A 
ATOM     20  C   UNL     1      -1.409  10.780  18.032  0.00  0.00    +0.000 A 
ATOM     21  C   UNL     1      -0.455   9.762  18.119  0.00  0.00    +0.000 A 
ENDBRANCH  15  16
ENDBRANCH  12  15
ENDBRANCH  10  13
ENDBRANCH   1  10
BRANCH   3  22
ATOM     22  C   UNL     1       4.532   3.588  16.045  0.00  0.00    +0.000 C 
BRANCH  22  23
ATOM     23  N   UNL     1       5.986   3.759  15.855  0.00  0.00    +0.000 NA
ATOM     24  H   UNL     1       6.525   3.014  15.418  0.00  0.00    +0.000 HD
BRANCH  23  25
ATOM     25  S   UNL     1       6.535   5.290  15.404  0.00  0.00    +0.000 S 
ATOM     26  O   UNL     1       7.613   5.091  14.466  0.00  0.00    +0.000 OA
ATOM     27  O   UNL     1       5.361   6.076  15.066  0.00  0.00    +0.000 OA
BRANCH  25  28
ATOM     28  C   UNL     1       7.224   5.912  16.911  0.00  0.00    +0.000 A 
ATOM     29  C   UNL     1       7.452   5.044  17.980  0.00  0.00    +0.000 A 
ATOM     30  C   UNL     1       7.968   5.547  19.175  0.00  0.00    +0.000 A 
ATOM     31  C   UNL     1       8.265   6.906  19.292  0.00  0.00    +0.000 A 
ATOM     32  C   UNL     1       8.060   7.767  18.213  0.00  0.00    +0.000 A 
ATOM     33  C   UNL     1       7.544   7.273  17.015  0.00  0.00    +0.000 A 
ENDBRANCH  25  28
ENDBRANCH  23  25
ENDBRANCH  22  23
ENDBRANCH   3  22
TORSDOF 10
ENDMDL
MODEL 5
REMARK VINA RESULT:      -7.8      0.654      1.156
REMARK  Name = 
REMARK  11 active torsions:
REMARK  status: ('A' for Active; 'I' for Inactive)
REMARK    1  A    between atoms: C_1  and  N_2
REMARK    2  A    between atoms: N_2  and  C_3
REMARK    3  A    between atoms: C_3  and  C_4
REMARK    4  A    between atoms: C_10  and  C_12
REMARK    5  A    between atoms: C_12  and  C_13
REMARK    6  A    between atoms: C_15  and  C_16
REMARK    7  A    between atoms: C_16  and  N_17
REMARK    8  A    between atoms: N_17  and  S_18
REMARK    9  A    between atoms: S_18  and  C_21
REMARK   10  A    between atoms: C_27  and  O_28
REMARK   11  A    between atoms: C_29  and  O_30
REMARK                            x       y       z     vdW  Elec       q    Type
REMARK                         _______ _______ _______ _____ _____    ______ ____
ROOT
ATOM      1  C   UNL     1       2.624   5.008  18.936  0.00  0.00    +0.000 C 
ATOM      2  O   UNL     1       3.820   4.712  19.682  0.00  0.00    +0.000 OA
ATOM      3  C   UNL     1       4.591   3.694  19.025  0.00  0.00    +0.000 C 
ATOM      4  C   UNL     1       3.717   3.157  17.892  0.00  0.00    +0.000 C 
ATOM      5  C   UNL     1       2.748   4.292  17.593  0.00  0.00    +0.000 C 
ENDROOT
BRANCH   4   6
ATOM      6  O   UNL     1       2.952   2.015  18.328  0.00  0.00    +0.000 OA
ATOM      7  H   UNL     1       2.934   1.371  17.591  0.00  0.00    +0.000 HD
ENDBRANCH   4   6
BRANCH   5   8
ATOM      8  O   UNL     1       1.486   3.810  17.136  0.00  0.00    +0.000 OA
ATOM      9  H   UNL     1       1.471   2.850  17.332  0.00  0.00    +0.000 HD
ENDBRANCH   5   8
BRANCH   1  10
ATOM     10  C   UNL     1       2.486   6.522  18.767  0.00  0.00    +0.000 C 
BRANCH  10  13
ATOM     11  C   UNL     1       0.924   9.092  21.102  0.00  0.00    +0.000 C 
ATOM     12  N   UNL     1       1.508   8.509  19.904  0.00  0.00    +0.000 N 
ATOM     13  C   UNL     1       1.803   7.152  19.970  0.00  0.00    +0.000 C 
ATOM     14  O   UNL     1       1.539   6.498  20.980  0.00  0.00    +0.000 OA
BRANCH  12  15
ATOM     15  C   UNL     1       1.610   9.333  18.701  0.00  0.00    +0.000 C 
BRANCH  15  16
ATOM     16  C   UNL     1       0.433  10.261  18.485  0.00  0.00    +0.000 A 
ATOM     17  C   UNL     1       0.527  11.631  18.773  0.00  0.00    +0.000 A 
ATOM     18  C   UNL     1      -0.553  12.486  18.538  0.00  0.00    +0.000 A 
ATOM     19  C   UNL     1      -1.742  11.984  18.010  0.00  0.00    +0.000 A 
ATOM     20  C   UNL     1      -1.849  10.629  17.713  0.00  0.00    +0.000 A 
ATOM     21  C   UNL     1      -0.765   9.777  17.944  0.00  0.00    +0.000 A 
ENDBRANCH  15  16
ENDBRANCH  12  15
ENDBRANCH  10  13
ENDBRANCH   1  10
BRANCH   3  22
ATOM     22  C   UNL     1       5.915   4.307  18.546  0.00  0.00    +0.000 C 
BRANCH  22  23
ATOM     23  N   UNL     1       5.791   4.869  17.186  0.00  0.00    +0.000 NA
ATOM     24  H   UNL     1       5.090   5.585  17.002  0.00  0.00    +0.000 HD
BRANCH  23  25
ATOM     25  S   UNL     1       7.217   5.138  16.324  0.00  0.00    +0.000 S 
ATOM     26  O   UNL     1       7.444   6.562  16.319  0.00  0.00    +0.000 OA
ATOM     27  O   UNL     1       8.204   4.207  16.842  0.00  0.00    +0.000 OA
BRANCH  25  28
ATOM     28  C   UNL     1       6.774   4.645  14.682  0.00  0.00    +0.000 A 
ATOM     29  C   UNL     1       5.552   4.010  14.455  0.00  0.00    +0.000 A 
ATOM     30  C   UNL     1       5.222   3.598  13.163  0.00  0.00    +0.000 A 
ATOM     31  C   UNL     1       6.105   3.833  12.107  0.00  0.00    +0.000 A 
ATOM     32  C   UNL     1       7.315   4.491  12.333  0.00  0.00    +0.000 A 
ATOM     33  C   UNL     1       7.653   4.905  13.622  0.00  0.00    +0.000 A 
ENDBRANCH  25  28
ENDBRANCH  23  25
ENDBRANCH  22  23
ENDBRANCH   3  22
TORSDOF 10
ENDMDL
MODEL 6
REMARK VINA RESULT:      -7.8      1.108      1.723
REMARK  Name = 
REMARK  11 active torsions:
REMARK  status: ('A' for Active; 'I' for Inactive)
REMARK    1  A    between atoms: C_1  and  N_2
REMARK    2  A    between atoms: N_2  and  C_3
REMARK    3  A    between atoms: C_3  and  C_4
REMARK    4  A    between atoms: C_10  and  C_12
REMARK    5  A    between atoms: C_12  and  C_13
REMARK    6  A    between atoms: C_15  and  C_16
REMARK    7  A    between atoms: C_16  and  N_17
REMARK    8  A    between atoms: N_17  and  S_18
REMARK    9  A    between atoms: S_18  and  C_21
REMARK   10  A    between atoms: C_27  and  O_28
REMARK   11  A    between atoms: C_29  and  O_30
REMARK                            x       y       z     vdW  Elec       q    Type
REMARK                         _______ _______ _______ _____ _____    ______ ____
ROOT
ATOM      1  C   UNL     1       2.923   5.978  19.720  0.00  0.00    +0.000 C 
ATOM      2  O   UNL     1       4.205   5.759  19.101  0.00  0.00    +0.000 OA
ATOM      3  C   UNL     1       4.295   4.426  18.576  0.00  0.00    +0.000 C 
ATOM      4  C   UNL     1       3.061   3.679  19.083  0.00  0.00    +0.000 C 
ATOM      5  C   UNL     1       2.047   4.778  19.369  0.00  0.00    +0.000 C 
ENDROOT
BRANCH   4   6
ATOM      6  O   UNL     1       3.345   2.996  20.321  0.00  0.00    +0.000 OA
ATOM      7  H   UNL     1       2.667   3.268  20.972  0.00  0.00    +0.000 HD
ENDBRANCH   4   6
BRANCH   5   8
ATOM      8  O   UNL     1       1.173   4.433  20.442  0.00  0.00    +0.000 OA
ATOM      9  H   UNL     1       1.337   5.090  21.150  0.00  0.00    +0.000 HD
ENDBRANCH   5   8
BRANCH   1  10
ATOM     10  C   UNL     1       2.326   7.291  19.211  0.00  0.00    +0.000 C 
BRANCH  10  13
ATOM     11  C   UNL     1       0.538  10.029  21.163  0.00  0.00    +0.000 C 
ATOM     12  N   UNL     1       1.171   9.329  20.057  0.00  0.00    +0.000 N 
ATOM     13  C   UNL     1       1.588   8.029  20.318  0.00  0.00    +0.000 C 
ATOM     14  O   UNL     1       1.386   7.511  21.417  0.00  0.00    +0.000 OA
BRANCH  12  15
ATOM     15  C   UNL     1       1.197   9.972  18.743  0.00  0.00    +0.000 C 
BRANCH  15  16
ATOM     16  C   UNL     1      -0.162  10.414  18.244  0.00  0.00    +0.000 A 
ATOM     17  C   UNL     1      -0.974   9.553  17.489  0.00  0.00    +0.000 A 
ATOM     18  C   UNL     1      -2.241   9.957  17.063  0.00  0.00    +0.000 A 
ATOM     19  C   UNL     1      -2.717  11.227  17.386  0.00  0.00    +0.000 A 
ATOM     20  C   UNL     1      -1.928  12.091  18.139  0.00  0.00    +0.000 A 
ATOM     21  C   UNL     1      -0.662  11.682  18.569  0.00  0.00    +0.000 A 
ENDBRANCH  15  16
ENDBRANCH  12  15
ENDBRANCH  10  13
ENDBRANCH   1  10
BRANCH   3  22
ATOM     22  C   UNL     1       4.384   4.502  17.044  0.00  0.00    +0.000 C 
BRANCH  22  23
ATOM     23  N   UNL     1       5.197   5.653  16.606  0.00  0.00    +0.000 NA
ATOM     24  H   UNL     1       5.035   6.569  17.021  0.00  0.00    +0.000 HD
BRANCH  23  25
ATOM     25  S   UNL     1       6.834   5.375  16.299  0.00  0.00    +0.000 S 
ATOM     26  O   UNL     1       7.499   6.652  16.377  0.00  0.00    +0.000 OA
ATOM     27  O   UNL     1       7.233   4.251  17.128  0.00  0.00    +0.000 OA
BRANCH  25  28
ATOM     28  C   UNL     1       6.827   4.861  14.605  0.00  0.00    +0.000 A 
ATOM     29  C   UNL     1       5.927   3.881  14.182  0.00  0.00    +0.000 A 
ATOM     30  C   UNL     1       5.947   3.459  12.851  0.00  0.00    +0.000 A 
ATOM     31  C   UNL     1       6.852   4.026  11.951  0.00  0.00    +0.000 A 
ATOM     32  C   UNL     1       7.732   5.024  12.371  0.00  0.00    +0.000 A 
ATOM     33  C   UNL     1       7.720   5.450  13.700  0.00  0.00    +0.000 A 
ENDBRANCH  25  28
ENDBRANCH  23  25
ENDBRANCH  22  23
ENDBRANCH   3  22
TORSDOF 10
ENDMDL
MODEL 7
REMARK VINA RESULT:      -7.8      1.194      1.403
REMARK  Name = 
REMARK  11 active torsions:
REMARK  status: ('A' for Active; 'I' for Inactive)
REMARK    1  A    between atoms: C_1  and  N_2
REMARK    2  A    between atoms: N_2  and  C_3
REMARK    3  A    between atoms: C_3  and  C_4
REMARK    4  A    between atoms: C_10  and  C_12
REMARK    5  A    between atoms: C_12  and  C_13
REMARK    6  A    between atoms: C_15  and  C_16
REMARK    7  A    between atoms: C_16  and  N_17
REMARK    8  A    between atoms: N_17  and  S_18
REMARK    9  A    between atoms: S_18  and  C_21
REMARK   10  A    between atoms: C_27  and  O_28
REMARK   11  A    between atoms: C_29  and  O_30
REMARK                            x       y       z     vdW  Elec       q    Type
REMARK                         _______ _______ _______ _____ _____    ______ ____
ROOT
ATOM      1  C   UNL     1       3.052   5.429  19.844  0.00  0.00    +0.000 C 
ATOM      2  O   UNL     1       4.292   5.106  19.186  0.00  0.00    +0.000 OA
ATOM      3  C   UNL     1       4.284   3.747  18.724  0.00  0.00    +0.000 C 
ATOM      4  C   UNL     1       3.031   3.099  19.316  0.00  0.00    +0.000 C 
ATOM      5  C   UNL     1       2.095   4.267  19.587  0.00  0.00    +0.000 C 
ENDROOT
BRANCH   4   6
ATOM      6  O   UNL     1       3.328   2.458  20.573  0.00  0.00    +0.000 OA
ATOM      7  H   UNL     1       4.088   1.859  20.428  0.00  0.00    +0.000 HD
ENDBRANCH   4   6
BRANCH   5   8
ATOM      8  O   UNL     1       1.249   4.025  20.709  0.00  0.00    +0.000 OA
ATOM      9  H   UNL     1       1.822   3.639  21.405  0.00  0.00    +0.000 HD
ENDBRANCH   5   8
BRANCH   1  10
ATOM     10  C   UNL     1       2.509   6.750  19.295  0.00  0.00    +0.000 C 
BRANCH  10  13
ATOM     11  C   UNL     1       0.605   9.503  21.109  0.00  0.00    +0.000 C 
ATOM     12  N   UNL     1       1.308   8.796  20.051  0.00  0.00    +0.000 N 
ATOM     13  C   UNL     1       1.702   7.495  20.346  0.00  0.00    +0.000 C 
ATOM     14  O   UNL     1       1.426   6.984  21.432  0.00  0.00    +0.000 OA
BRANCH  12  15
ATOM     15  C   UNL     1       1.423   9.431  18.739  0.00  0.00    +0.000 C 
BRANCH  15  16
ATOM     16  C   UNL     1       0.751  10.785  18.646  0.00  0.00    +0.000 A 
ATOM     17  C   UNL     1       1.488  11.972  18.774  0.00  0.00    +0.000 A 
ATOM     18  C   UNL     1       0.865  13.216  18.652  0.00  0.00    +0.000 A 
ATOM     19  C   UNL     1      -0.504  13.292  18.400  0.00  0.00    +0.000 A 
ATOM     20  C   UNL     1      -1.249  12.124  18.264  0.00  0.00    +0.000 A 
ATOM     21  C   UNL     1      -0.622  10.880  18.381  0.00  0.00    +0.000 A 
ENDBRANCH  15  16
ENDBRANCH  12  15
ENDBRANCH  10  13
ENDBRANCH   1  10
BRANCH   3  22
ATOM     22  C   UNL     1       4.312   3.746  17.188  0.00  0.00    +0.000 C 
BRANCH  22  23
ATOM     23  N   UNL     1       5.658   3.432  16.672  0.00  0.00    +0.000 NA
ATOM     24  H   UNL     1       5.785   2.632  16.053  0.00  0.00    +0.000 HD
BRANCH  23  25
ATOM     25  S   UNL     1       6.648   4.731  16.242  0.00  0.00    +0.000 S 
ATOM     26  O   UNL     1       5.897   5.935  16.501  0.00  0.00    +0.000 OA
ATOM     27  O   UNL     1       7.945   4.491  16.849  0.00  0.00    +0.000 OA
BRANCH  25  28
ATOM     28  C   UNL     1       6.795   4.540  14.488  0.00  0.00    +0.000 A 
ATOM     29  C   UNL     1       7.691   5.340  13.776  0.00  0.00    +0.000 A 
ATOM     30  C   UNL     1       7.781   5.204  12.390  0.00  0.00    +0.000 A 
ATOM     31  C   UNL     1       6.990   4.264  11.726  0.00  0.00    +0.000 A 
ATOM     32  C   UNL     1       6.114   3.448  12.444  0.00  0.00    +0.000 A 
ATOM     33  C   UNL     1       6.017   3.578  13.829  0.00  0.00    +0.000 A 
ENDBRANCH  25  28
ENDBRANCH  23  25
ENDBRANCH  22  23
ENDBRANCH   3  22
TORSDOF 10
ENDMDL
MODEL 8
REMARK VINA RESULT:      -7.7      1.153      1.730
REMARK  Name = 
REMARK  11 active torsions:
REMARK  status: ('A' for Active; 'I' for Inactive)
REMARK    1  A    between atoms: C_1  and  N_2
REMARK    2  A    between atoms: N_2  and  C_3
REMARK    3  A    between atoms: C_3  and  C_4
REMARK    4  A    between atoms: C_10  and  C_12
REMARK    5  A    between atoms: C_12  and  C_13
REMARK    6  A    between atoms: C_15  and  C_16
REMARK    7  A    between atoms: C_16  and  N_17
REMARK    8  A    between atoms: N_17  and  S_18
REMARK    9  A    between atoms: S_18  and  C_21
REMARK   10  A    between atoms: C_27  and  O_28
REMARK   11  A    between atoms: C_29  and  O_30
REMARK                            x       y       z     vdW  Elec       q    Type
REMARK                         _______ _______ _______ _____ _____    ______ ____
ROOT
ATOM      1  C   UNL     1       2.287   4.499  19.435  0.00  0.00    +0.000 C 
ATOM      2  O   UNL     1       3.556   3.963  19.856  0.00  0.00    +0.000 OA
ATOM      3  C   UNL     1       4.231   3.330  18.759  0.00  0.00    +0.000 C 
ATOM      4  C   UNL     1       3.225   3.277  17.608  0.00  0.00    +0.000 C 
ATOM      5  C   UNL     1       2.246   4.402  17.912  0.00  0.00    +0.000 C 
ENDROOT
BRANCH   4   6
ATOM      6  O   UNL     1       2.498   2.032  17.617  0.00  0.00    +0.000 OA
ATOM      7  H   UNL     1       3.154   1.306  17.611  0.00  0.00    +0.000 HD
ENDBRANCH   4   6
BRANCH   5   8
ATOM      8  O   UNL     1       0.933   4.110  17.439  0.00  0.00    +0.000 OA
ATOM      9  H   UNL     1       0.563   4.958  17.116  0.00  0.00    +0.000 HD
ENDBRANCH   5   8
BRANCH   1  10
ATOM     10  C   UNL     1       2.154   5.943  19.921  0.00  0.00    +0.000 C 
BRANCH  10  13
ATOM     11  C   UNL     1       2.389   9.083  17.779  0.00  0.00    +0.000 C 
ATOM     12  N   UNL     1       2.009   8.194  18.865  0.00  0.00    +0.000 N 
ATOM     13  C   UNL     1       2.587   6.929  18.847  0.00  0.00    +0.000 C 
ATOM     14  O   UNL     1       3.399   6.620  17.974  0.00  0.00    +0.000 OA
BRANCH  12  15
ATOM     15  C   UNL     1       1.179   8.723  19.947  0.00  0.00    +0.000 C 
BRANCH  15  16
ATOM     16  C   UNL     1       0.398   9.966  19.576  0.00  0.00    +0.000 A 
ATOM     17  C   UNL     1       0.736  11.221  20.104  0.00  0.00    +0.000 A 
ATOM     18  C   UNL     1       0.032  12.368  19.729  0.00  0.00    +0.000 A 
ATOM     19  C   UNL     1      -1.020  12.276  18.819  0.00  0.00    +0.000 A 
ATOM     20  C   UNL     1      -1.365  11.040  18.281  0.00  0.00    +0.000 A 
ATOM     21  C   UNL     1      -0.655   9.895  18.654  0.00  0.00    +0.000 A 
ENDBRANCH  15  16
ENDBRANCH  12  15
ENDBRANCH  10  13
ENDBRANCH   1  10
BRANCH   3  22
ATOM     22  C   UNL     1       5.501   4.129  18.431  0.00  0.00    +0.000 C 
BRANCH  22  23
ATOM     23  N   UNL     1       5.540   4.526  17.010  0.00  0.00    +0.000 NA
ATOM     24  H   UNL     1       4.747   5.022  16.606  0.00  0.00    +0.000 HD
BRANCH  23  25
ATOM     25  S   UNL     1       7.013   5.078  16.398  0.00  0.00    +0.000 S 
ATOM     26  O   UNL     1       7.014   6.514  16.533  0.00  0.00    +0.000 OA
ATOM     27  O   UNL     1       8.051   4.253  16.991  0.00  0.00    +0.000 OA
BRANCH  25  28
ATOM     28  C   UNL     1       6.887   4.687  14.676  0.00  0.00    +0.000 A 
ATOM     29  C   UNL     1       5.942   3.755  14.245  0.00  0.00    +0.000 A 
ATOM     30  C   UNL     1       5.868   3.429  12.889  0.00  0.00    +0.000 A 
ATOM     31  C   UNL     1       6.725   4.044  11.974  0.00  0.00    +0.000 A 
ATOM     32  C   UNL     1       7.651   4.994  12.406  0.00  0.00    +0.000 A 
ATOM     33  C   UNL     1       7.734   5.325  13.759  0.00  0.00    +0.000 A 
ENDBRANCH  25  28
ENDBRANCH  23  25
ENDBRANCH  22  23
ENDBRANCH   3  22
TORSDOF 10
ENDMDL
MODEL 9
REMARK VINA RESULT:      -7.7      1.200      1.733
REMARK  Name = 
REMARK  11 active torsions:
REMARK  status: ('A' for Active; 'I' for Inactive)
REMARK    1  A    between atoms: C_1  and  N_2
REMARK    2  A    between atoms: N_2  and  C_3
REMARK    3  A    between atoms: C_3  and  C_4
REMARK    4  A    between atoms: C_10  and  C_12
REMARK    5  A    between atoms: C_12  and  C_13
REMARK    6  A    between atoms: C_15  and  C_16
REMARK    7  A    between atoms: C_16  and  N_17
REMARK    8  A    between atoms: N_17  and  S_18
REMARK    9  A    between atoms: S_18  and  C_21
REMARK   10  A    between atoms: C_27  and  O_28
REMARK   11  A    between atoms: C_29  and  O_30
REMARK                            x       y       z     vdW  Elec       q    Type
REMARK                         _______ _______ _______ _____ _____    ______ ____
ROOT
ATOM      1  C   UNL     1       2.288   4.591  19.369  0.00  0.00    +0.000 C 
ATOM      2  O   UNL     1       3.528   3.962  19.744  0.00  0.00    +0.000 OA
ATOM      3  C   UNL     1       4.147   3.339  18.608  0.00  0.00    +0.000 C 
ATOM      4  C   UNL     1       3.122   3.397  17.475  0.00  0.00    +0.000 C 
ATOM      5  C   UNL     1       2.217   4.564  17.844  0.00  0.00    +0.000 C 
ENDROOT
BRANCH   4   6
ATOM      6  O   UNL     1       2.321   2.198  17.444  0.00  0.00    +0.000 OA
ATOM      7  H   UNL     1       2.931   1.436  17.362  0.00  0.00    +0.000 HD
ENDBRANCH   4   6
BRANCH   5   8
ATOM      8  O   UNL     1       0.882   4.371  17.382  0.00  0.00    +0.000 OA
ATOM      9  H   UNL     1       0.457   5.254  17.396  0.00  0.00    +0.000 HD
ENDBRANCH   5   8
BRANCH   1  10
ATOM     10  C   UNL     1       2.250   6.018  19.918  0.00  0.00    +0.000 C 
BRANCH  10  13
ATOM     11  C   UNL     1       2.339   9.177  17.794  0.00  0.00    +0.000 C 
ATOM     12  N   UNL     1       1.997   8.264  18.872  0.00  0.00    +0.000 N 
ATOM     13  C   UNL     1       2.639   7.031  18.852  0.00  0.00    +0.000 C 
ATOM     14  O   UNL     1       3.472   6.768  17.984  0.00  0.00    +0.000 OA
BRANCH  12  15
ATOM     15  C   UNL     1       1.133   8.744  19.951  0.00  0.00    +0.000 C 
BRANCH  15  16
ATOM     16  C   UNL     1       0.441  10.057  19.651  0.00  0.00    +0.000 A 
ATOM     17  C   UNL     1      -0.744  10.098  18.900  0.00  0.00    +0.000 A 
ATOM     18  C   UNL     1      -1.394  11.310  18.657  0.00  0.00    +0.000 A 
ATOM     19  C   UNL     1      -0.871  12.499  19.163  0.00  0.00    +0.000 A 
ATOM     20  C   UNL     1       0.300  12.475  19.915  0.00  0.00    +0.000 A 
ATOM     21  C   UNL     1       0.946  11.260  20.161  0.00  0.00    +0.000 A 
ENDBRANCH  15  16
ENDBRANCH  12  15
ENDBRANCH  10  13
ENDBRANCH   1  10
BRANCH   3  22
ATOM     22  C   UNL     1       5.458   4.075  18.293  0.00  0.00    +0.000 C 
BRANCH  22  23
ATOM     23  N   UNL     1       5.433   4.670  16.942  0.00  0.00    +0.000 NA
ATOM     24  H   UNL     1       4.640   5.244  16.661  0.00  0.00    +0.000 HD
BRANCH  23  25
ATOM     25  S   UNL     1       6.892   5.255  16.325  0.00  0.00    +0.000 S 
ATOM     26  O   UNL     1       6.819   6.695  16.367  0.00  0.00    +0.000 OA
ATOM     27  O   UNL     1       7.955   4.521  16.990  0.00  0.00    +0.000 OA
BRANCH  25  28
ATOM     28  C   UNL     1       6.824   4.749  14.630  0.00  0.00    +0.000 A 
ATOM     29  C   UNL     1       7.743   5.267  13.714  0.00  0.00    +0.000 A 
ATOM     30  C   UNL     1       7.665   4.887  12.374  0.00  0.00    +0.000 A 
ATOM     31  C   UNL     1       6.684   3.984  11.958  0.00  0.00    +0.000 A 
ATOM     32  C   UNL     1       5.784   3.448  12.881  0.00  0.00    +0.000 A 
ATOM     33  C   UNL     1       5.853   3.824  14.222  0.00  0.00    +0.000 A 
ENDBRANCH  25  28
ENDBRANCH  23  25
ENDBRANCH  22  23
ENDBRANCH   3  22
TORSDOF 10
ENDMDL
