MODEL 1
REMARK VINA RESULT:      -6.4      0.000      0.000
REMARK  Name = 
REMARK  9 active torsions:
REMARK  status: ('A' for Active; 'I' for Inactive)
REMARK    1  A    between atoms: C_1  and  O_2
REMARK    2  A    between atoms: O_2  and  C_3
REMARK    3  A    between atoms: C_5  and  O_6
REMARK    4  A    between atoms: O_6  and  C_7
REMARK    5  A    between atoms: C_8  and  C_9
REMARK    6  A    between atoms: C_10  and  C_11
REMARK    7  A    between atoms: N_20  and  C_21
REMARK    8  A    between atoms: C_22  and  O_23
REMARK    9  A    between atoms: O_23  and  C_24
REMARK                            x       y       z     vdW  Elec       q    Type
REMARK                         _______ _______ _______ _____ _____    ______ ____
ROOT
ATOM      1  C   UNL     1       1.663   8.463  20.381  0.00  0.00    +0.000 C 
ATOM      2  C   UNL     1       1.518   7.387  19.599  0.00  0.00    +0.000 C 
ENDROOT
BRANCH   2   3
ATOM      3  C   UNL     1       2.396   6.189  19.478  0.00  0.00    +0.000 A 
ATOM      4  C   UNL     1       2.044   4.956  20.069  0.00  0.00    +0.000 A 
ATOM      5  C   UNL     1       2.361   4.617  21.403  0.00  0.00    +0.000 A 
ATOM      6  C   UNL     1       2.141   3.318  21.866  0.00  0.00    +0.000 A 
ATOM      7  C   UNL     1       1.515   2.381  21.048  0.00  0.00    +0.000 A 
ATOM      8  C   UNL     1       1.190   2.708  19.731  0.00  0.00    +0.000 A 
ATOM      9  C   UNL     1       1.561   3.949  19.212  0.00  0.00    +0.000 A 
ATOM     10  C   UNL     1       1.570   4.171  17.834  0.00  0.00    +0.000 A 
ATOM     11  C   UNL     1       2.372   5.200  17.352  0.00  0.00    +0.000 A 
ATOM     12  N   UNL     1       2.872   6.115  18.206  0.00  0.00    +0.000 N 
ATOM     13  C   UNL     1       4.101   6.860  17.899  0.00  0.00    +0.000 C 
ENDBRANCH   2   3
BRANCH   1  17
ATOM     14  C   UNL     1      -0.756  12.017  19.962  0.00  0.00    +0.000 A 
ATOM     15  C   UNL     1       0.263  11.774  19.043  0.00  0.00    +0.000 A 
ATOM     16  C   UNL     1       1.044  10.607  19.101  0.00  0.00    +0.000 A 
ATOM     17  C   UNL     1       0.836   9.674  20.132  0.00  0.00    +0.000 A 
ATOM     18  C   UNL     1      -0.195   9.935  21.075  0.00  0.00    +0.000 A 
ATOM     19  C   UNL     1      -0.978  11.096  20.981  0.00  0.00    +0.000 A 
BRANCH  14  21
ATOM     20  C   UNL     1      -2.620  13.373  20.570  0.00  0.00    +0.000 C 
ATOM     21  O   UNL     1      -1.431  13.197  19.803  0.00  0.00    +0.000 OA
ENDBRANCH  14  21
BRANCH  16  22
ATOM     22  O   UNL     1       2.025  10.557  18.145  0.00  0.00    +0.000 OA
ATOM     23  C   UNL     1       2.663  11.787  17.824  0.00  0.00    +0.000 C 
ENDBRANCH  16  22
BRANCH  18  24
ATOM     24  O   UNL     1      -0.330   9.011  22.088  0.00  0.00    +0.000 OA
ATOM     25  C   UNL     1      -0.150   9.483  23.418  0.00  0.00    +0.000 C 
ENDBRANCH  18  24
ENDBRANCH   1  17
TORSDOF 5
ENDMDL
MODEL 2
REMARK VINA RESULT:      -6.3      3.139      5.164
REMARK  Name = 
REMARK  9 active torsions:
REMARK  status: ('A' for Active; 'I' for Inactive)
REMARK    1  A    between atoms: C_1  and  O_2
REMARK    2  A    between atoms: O_2  and  C_3
REMARK    3  A    between atoms: C_5  and  O_6
REMARK    4  A    between atoms: O_6  and  C_7
REMARK    5  A    between atoms: C_8  and  C_9
REMARK    6  A    between atoms: C_10  and  C_11
REMARK    7  A    between atoms: N_20  and  C_21
REMARK    8  A    between atoms: C_22  and  O_23
REMARK    9  A    between atoms: O_23  and  C_24
REMARK                            x       y       z     vdW  Elec       q    Type
REMARK                         _______ _______ _______ _____ _____    ______ ____
ROOT
ATOM      1  C   UNL     1      -1.402  11.806  19.019  0.00  0.00    +0.000 C 
ATOM      2  C   UNL     1      -0.851  10.754  19.634  0.00  0.00    +0.000 C 
ENDROOT
BRANCH   2   3
ATOM      3  C   UNL     1       0.588  10.462  19.886  0.00  0.00    +0.000 A 
ATOM      4  C   UNL     1       1.097   9.147  19.805  0.00  0.00    +0.000 A 
ATOM      5  C   UNL     1       1.086   8.243  20.891  0.00  0.00    +0.000 A 
ATOM      6  C   UNL     1       1.763   7.026  20.794  0.00  0.00    +0.000 A 
ATOM      7  C   UNL     1       2.365   6.653  19.594  0.00  0.00    +0.000 A 
ATOM      8  C   UNL     1       2.375   7.535  18.513  0.00  0.00    +0.000 A 
ATOM      9  C   UNL     1       1.847   8.819  18.659  0.00  0.00    +0.000 A 
ATOM     10  C   UNL     1       2.150   9.823  17.739  0.00  0.00    +0.000 A 
ATOM     11  C   UNL     1       2.019  11.143  18.157  0.00  0.00    +0.000 A 
ATOM     12  N   UNL     1       1.348  11.422  19.292  0.00  0.00    +0.000 N 
ATOM     13  C   UNL     1       1.617  12.643  20.062  0.00  0.00    +0.000 C 
ENDBRANCH   2   3
BRANCH   1  17
ATOM     14  C   UNL     1      -5.593  11.936  17.979  0.00  0.00    +0.000 A 
ATOM     15  C   UNL     1      -4.679  11.416  17.064  0.00  0.00    +0.000 A 
ATOM     16  C   UNL     1      -3.314  11.300  17.372  0.00  0.00    +0.000 A 
ATOM     17  C   UNL     1      -2.832  11.759  18.611  0.00  0.00    +0.000 A 
ATOM     18  C   UNL     1      -3.766  12.301  19.535  0.00  0.00    +0.000 A 
ATOM     19  C   UNL     1      -5.130  12.382  19.213  0.00  0.00    +0.000 A 
BRANCH  14  21
ATOM     20  C   UNL     1      -7.477  13.304  17.466  0.00  0.00    +0.000 C 
ATOM     21  O   UNL     1      -6.891  12.007  17.550  0.00  0.00    +0.000 OA
ENDBRANCH  14  21
BRANCH  16  22
ATOM     22  O   UNL     1      -2.559  10.809  16.339  0.00  0.00    +0.000 OA
ATOM     23  C   UNL     1      -3.229  10.613  15.100  0.00  0.00    +0.000 C 
ENDBRANCH  16  22
BRANCH  18  24
ATOM     24  O   UNL     1      -3.237  12.772  20.716  0.00  0.00    +0.000 OA
ATOM     25  C   UNL     1      -3.791  13.976  21.235  0.00  0.00    +0.000 C 
ENDBRANCH  18  24
ENDBRANCH   1  17
TORSDOF 5
ENDMDL
MODEL 3
REMARK VINA RESULT:      -6.3      3.326      5.814
REMARK  Name = 
REMARK  9 active torsions:
REMARK  status: ('A' for Active; 'I' for Inactive)
REMARK    1  A    between atoms: C_1  and  O_2
REMARK    2  A    between atoms: O_2  and  C_3
REMARK    3  A    between atoms: C_5  and  O_6
REMARK    4  A    between atoms: O_6  and  C_7
REMARK    5  A    between atoms: C_8  and  C_9
REMARK    6  A    between atoms: C_10  and  C_11
REMARK    7  A    between atoms: N_20  and  C_21
REMARK    8  A    between atoms: C_22  and  O_23
REMARK    9  A    between atoms: O_23  and  C_24
REMARK                            x       y       z     vdW  Elec       q    Type
REMARK                         _______ _______ _______ _____ _____    ______ ____
ROOT
ATOM      1  C   UNL     1      -1.911  10.764  18.720  0.00  0.00    +0.000 C 
ATOM      2  C   UNL     1      -0.818  11.528  18.819  0.00  0.00    +0.000 C 
ENDROOT
BRANCH   2   3
ATOM      3  C   UNL     1       0.513  11.194  19.401  0.00  0.00    +0.000 A 
ATOM      4  C   UNL     1       0.797   9.901  19.894  0.00  0.00    +0.000 A 
ATOM      5  C   UNL     1       0.509   9.494  21.215  0.00  0.00    +0.000 A 
ATOM      6  C   UNL     1       0.977   8.266  21.686  0.00  0.00    +0.000 A 
ATOM      7  C   UNL     1       1.640   7.393  20.826  0.00  0.00    +0.000 A 
ATOM      8  C   UNL     1       1.922   7.782  19.516  0.00  0.00    +0.000 A 
ATOM      9  C   UNL     1       1.606   9.073  19.092  0.00  0.00    +0.000 A 
ATOM     10  C   UNL     1       2.177   9.602  17.934  0.00  0.00    +0.000 A 
ATOM     11  C   UNL     1       2.225  10.987  17.812  0.00  0.00    +0.000 A 
ATOM     12  N   UNL     1       1.486  11.757  18.635  0.00  0.00    +0.000 N 
ATOM     13  C   UNL     1       1.869  13.142  18.940  0.00  0.00    +0.000 C 
ENDBRANCH   2   3
BRANCH   1  17
ATOM     14  C   UNL     1      -5.778  12.309  17.573  0.00  0.00    +0.000 A 
ATOM     15  C   UNL     1      -5.267  12.617  18.832  0.00  0.00    +0.000 A 
ATOM     16  C   UNL     1      -3.992  12.186  19.235  0.00  0.00    +0.000 A 
ATOM     17  C   UNL     1      -3.219  11.384  18.377  0.00  0.00    +0.000 A 
ATOM     18  C   UNL     1      -3.751  11.061  17.099  0.00  0.00    +0.000 A 
ATOM     19  C   UNL     1      -5.017  11.525  16.710  0.00  0.00    +0.000 A 
BRANCH  14  21
ATOM     20  C   UNL     1      -7.142  14.098  16.782  0.00  0.00    +0.000 C 
ATOM     21  O   UNL     1      -7.038  12.777  17.310  0.00  0.00    +0.000 OA
ENDBRANCH  14  21
BRANCH  16  22
ATOM     22  O   UNL     1      -3.673  12.545  20.518  0.00  0.00    +0.000 OA
ATOM     23  C   UNL     1      -3.875  13.909  20.866  0.00  0.00    +0.000 C 
ENDBRANCH  16  22
BRANCH  18  24
ATOM     24  O   UNL     1      -2.972  10.239  16.315  0.00  0.00    +0.000 OA
ATOM     25  C   UNL     1      -3.080  10.403  14.905  0.00  0.00    +0.000 C 
ENDBRANCH  18  24
ENDBRANCH   1  17
TORSDOF 5
ENDMDL
MODEL 4
REMARK VINA RESULT:      -6.3      3.074      5.618
REMARK  Name = 
REMARK  9 active torsions:
REMARK  status: ('A' for Active; 'I' for Inactive)
REMARK    1  A    between atoms: C_1  and  O_2
REMARK    2  A    between atoms: O_2  and  C_3
REMARK    3  A    between atoms: C_5  and  O_6
REMARK    4  A    between atoms: O_6  and  C_7
REMARK    5  A    between atoms: C_8  and  C_9
REMARK    6  A    between atoms: C_10  and  C_11
REMARK    7  A    between atoms: N_20  and  C_21
REMARK    8  A    between atoms: C_22  and  O_23
REMARK    9  A    between atoms: O_23  and  C_24
REMARK                            x       y       z     vdW  Elec       q    Type
REMARK                         _______ _______ _______ _____ _____    ______ ____
ROOT
ATOM      1  C   UNL     1      -1.349  11.923  18.978  0.00  0.00    +0.000 C 
ATOM      2  C   UNL     1      -0.805  11.105  19.885  0.00  0.00    +0.000 C 
ENDROOT
BRANCH   2   3
ATOM      3  C   UNL     1       0.623  10.719  20.067  0.00  0.00    +0.000 A 
ATOM      4  C   UNL     1       1.052   9.384  19.901  0.00  0.00    +0.000 A 
ATOM      5  C   UNL     1       1.027   8.427  20.940  0.00  0.00    +0.000 A 
ATOM      6  C   UNL     1       1.629   7.181  20.757  0.00  0.00    +0.000 A 
ATOM      7  C   UNL     1       2.165   6.838  19.518  0.00  0.00    +0.000 A 
ATOM      8  C   UNL     1       2.187   7.773  18.483  0.00  0.00    +0.000 A 
ATOM      9  C   UNL     1       1.740   9.074  18.713  0.00  0.00    +0.000 A 
ATOM     10  C   UNL     1       2.067  10.107  17.832  0.00  0.00    +0.000 A 
ATOM     11  C   UNL     1       2.028  11.408  18.320  0.00  0.00    +0.000 A 
ATOM     12  N   UNL     1       1.414  11.665  19.493  0.00  0.00    +0.000 N 
ATOM     13  C   UNL     1       1.781  12.828  20.312  0.00  0.00    +0.000 C 
ENDBRANCH   2   3
BRANCH   1  17
ATOM     14  C   UNL     1      -5.604  11.704  18.265  0.00  0.00    +0.000 A 
ATOM     15  C   UNL     1      -5.141  12.214  19.477  0.00  0.00    +0.000 A 
ATOM     16  C   UNL     1      -3.768  12.358  19.738  0.00  0.00    +0.000 A 
ATOM     17  C   UNL     1      -2.824  11.938  18.784  0.00  0.00    +0.000 A 
ATOM     18  C   UNL     1      -3.302  11.405  17.556  0.00  0.00    +0.000 A 
ATOM     19  C   UNL     1      -4.679  11.295  17.309  0.00  0.00    +0.000 A 
BRANCH  14  21
ATOM     20  C   UNL     1      -7.710  12.817  18.170  0.00  0.00    +0.000 C 
ATOM     21  O   UNL     1      -6.964  11.603  18.143  0.00  0.00    +0.000 OA
ENDBRANCH  14  21
BRANCH  16  22
ATOM     22  O   UNL     1      -3.498  12.835  20.994  0.00  0.00    +0.000 OA
ATOM     23  C   UNL     1      -3.817  14.198  21.240  0.00  0.00    +0.000 C 
ENDBRANCH  16  22
BRANCH  18  24
ATOM     24  O   UNL     1      -2.337  10.972  16.675  0.00  0.00    +0.000 OA
ATOM     25  C   UNL     1      -2.782  10.542  15.393  0.00  0.00    +0.000 C 
ENDBRANCH  18  24
ENDBRANCH   1  17
TORSDOF 5
ENDMDL
MODEL 5
REMARK VINA RESULT:      -6.2      1.234      1.420
REMARK  Name = 
REMARK  9 active torsions:
REMARK  status: ('A' for Active; 'I' for Inactive)
REMARK    1  A    between atoms: C_1  and  O_2
REMARK    2  A    between atoms: O_2  and  C_3
REMARK    3  A    between atoms: C_5  and  O_6
REMARK    4  A    between atoms: O_6  and  C_7
REMARK    5  A    between atoms: C_8  and  C_9
REMARK    6  A    between atoms: C_10  and  C_11
REMARK    7  A    between atoms: N_20  and  C_21
REMARK    8  A    between atoms: C_22  and  O_23
REMARK    9  A    between atoms: O_23  and  C_24
REMARK                            x       y       z     vdW  Elec       q    Type
REMARK                         _______ _______ _______ _____ _____    ______ ____
ROOT
ATOM      1  C   UNL     1       1.060   8.062  20.148  0.00  0.00    +0.000 C 
ATOM      2  C   UNL     1       2.008   7.621  19.315  0.00  0.00    +0.000 C 
ENDROOT
BRANCH   2   3
ATOM      3  C   UNL     1       2.760   6.335  19.342  0.00  0.00    +0.000 A 
ATOM      4  C   UNL     1       2.206   5.170  19.916  0.00  0.00    +0.000 A 
ATOM      5  C   UNL     1       2.312   4.856  21.290  0.00  0.00    +0.000 A 
ATOM      6  C   UNL     1       1.896   3.607  21.755  0.00  0.00    +0.000 A 
ATOM      7  C   UNL     1       1.282   2.706  20.888  0.00  0.00    +0.000 A 
ATOM      8  C   UNL     1       1.164   3.010  19.532  0.00  0.00    +0.000 A 
ATOM      9  C   UNL     1       1.729   4.184  19.032  0.00  0.00    +0.000 A 
ATOM     10  C   UNL     1       1.938   4.347  17.661  0.00  0.00    +0.000 A 
ATOM     11  C   UNL     1       2.901   5.266  17.260  0.00  0.00    +0.000 A 
ATOM     12  N   UNL     1       3.384   6.160  18.146  0.00  0.00    +0.000 N 
ATOM     13  C   UNL     1       4.715   6.760  17.983  0.00  0.00    +0.000 C 
ENDBRANCH   2   3
BRANCH   1  17
ATOM     14  C   UNL     1       0.111  12.275  20.236  0.00  0.00    +0.000 A 
ATOM     15  C   UNL     1      -0.079  11.558  19.057  0.00  0.00    +0.000 A 
ATOM     16  C   UNL     1       0.161  10.176  18.989  0.00  0.00    +0.000 A 
ATOM     17  C   UNL     1       0.652   9.492  20.116  0.00  0.00    +0.000 A 
ATOM     18  C   UNL     1       0.858  10.232  21.312  0.00  0.00    +0.000 A 
ATOM     19  C   UNL     1       0.586  11.608  21.361  0.00  0.00    +0.000 A 
BRANCH  14  21
ATOM     20  C   UNL     1      -0.169  14.206  18.866  0.00  0.00    +0.000 C 
ATOM     21  O   UNL     1      -0.146  13.618  20.165  0.00  0.00    +0.000 OA
ENDBRANCH  14  21
BRANCH  16  22
ATOM     22  O   UNL     1      -0.038   9.647  17.740  0.00  0.00    +0.000 OA
ATOM     23  C   UNL     1      -1.350   9.760  17.204  0.00  0.00    +0.000 C 
ENDBRANCH  16  22
BRANCH  18  24
ATOM     24  O   UNL     1       1.378   9.524  22.373  0.00  0.00    +0.000 OA
ATOM     25  C   UNL     1       0.527   9.331  23.497  0.00  0.00    +0.000 C 
ENDBRANCH  18  24
ENDBRANCH   1  17
TORSDOF 5
ENDMDL
MODEL 6
REMARK VINA RESULT:      -6.2      2.703      4.840
REMARK  Name = 
REMARK  9 active torsions:
REMARK  status: ('A' for Active; 'I' for Inactive)
REMARK    1  A    between atoms: C_1  and  O_2
REMARK    2  A    between atoms: O_2  and  C_3
REMARK    3  A    between atoms: C_5  and  O_6
REMARK    4  A    between atoms: O_6  and  C_7
REMARK    5  A    between atoms: C_8  and  C_9
REMARK    6  A    between atoms: C_10  and  C_11
REMARK    7  A    between atoms: N_20  and  C_21
REMARK    8  A    between atoms: C_22  and  O_23
REMARK    9  A    between atoms: O_23  and  C_24
REMARK                            x       y       z     vdW  Elec       q    Type
REMARK                         _______ _______ _______ _____ _____    ______ ____
ROOT
ATOM      1  C   UNL     1       2.854   6.527  18.083  0.00  0.00    +0.000 C 
ATOM      2  C   UNL     1       3.974   5.949  18.527  0.00  0.00    +0.000 C 
ENDROOT
BRANCH   2   3
ATOM      3  C   UNL     1       4.734   4.805  17.948  0.00  0.00    +0.000 A 
ATOM      4  C   UNL     1       5.381   4.908  16.697  0.00  0.00    +0.000 A 
ATOM      5  C   UNL     1       4.737   4.647  15.467  0.00  0.00    +0.000 A 
ATOM      6  C   UNL     1       5.481   4.595  14.286  0.00  0.00    +0.000 A 
ATOM      7  C   UNL     1       6.839   4.903  14.301  0.00  0.00    +0.000 A 
ATOM      8  C   UNL     1       7.483   5.171  15.509  0.00  0.00    +0.000 A 
ATOM      9  C   UNL     1       6.781   5.058  16.710  0.00  0.00    +0.000 A 
ATOM     10  C   UNL     1       7.459   4.972  17.926  0.00  0.00    +0.000 A 
ATOM     11  C   UNL     1       6.790   4.394  19.000  0.00  0.00    +0.000 A 
ATOM     12  N   UNL     1       5.456   4.207  18.934  0.00  0.00    +0.000 N 
ATOM     13  C   UNL     1       4.788   3.167  19.727  0.00  0.00    +0.000 C 
ENDBRANCH   2   3
BRANCH   1  17
ATOM     14  C   UNL     1       0.812   9.103  20.886  0.00  0.00    +0.000 A 
ATOM     15  C   UNL     1       1.175   9.606  19.639  0.00  0.00    +0.000 A 
ATOM     16  C   UNL     1       1.792   8.797  18.670  0.00  0.00    +0.000 A 
ATOM     17  C   UNL     1       2.100   7.457  18.967  0.00  0.00    +0.000 A 
ATOM     18  C   UNL     1       1.740   6.953  20.246  0.00  0.00    +0.000 A 
ATOM     19  C   UNL     1       1.101   7.775  21.188  0.00  0.00    +0.000 A 
BRANCH  14  21
ATOM     20  C   UNL     1      -0.013   9.556  23.077  0.00  0.00    +0.000 C 
ATOM     21  O   UNL     1       0.231   9.999  21.744  0.00  0.00    +0.000 OA
ENDBRANCH  14  21
BRANCH  16  22
ATOM     22  O   UNL     1       2.116   9.470  17.521  0.00  0.00    +0.000 OA
ATOM     23  C   UNL     1       2.329  10.870  17.643  0.00  0.00    +0.000 C 
ENDBRANCH  16  22
BRANCH  18  24
ATOM     24  O   UNL     1       2.100   5.649  20.500  0.00  0.00    +0.000 OA
ATOM     25  C   UNL     1       1.052   4.686  20.539  0.00  0.00    +0.000 C 
ENDBRANCH  18  24
ENDBRANCH   1  17
TORSDOF 5
ENDMDL
MODEL 7
REMARK VINA RESULT:      -6.1      2.121      3.109
REMARK  Name = 
REMARK  9 active torsions:
REMARK  status: ('A' for Active; 'I' for Inactive)
REMARK    1  A    between atoms: C_1  and  O_2
REMARK    2  A    between atoms: O_2  and  C_3
REMARK    3  A    between atoms: C_5  and  O_6
REMARK    4  A    between atoms: O_6  and  C_7
REMARK    5  A    between atoms: C_8  and  C_9
REMARK    6  A    between atoms: C_10  and  C_11
REMARK    7  A    between atoms: N_20  and  C_21
REMARK    8  A    between atoms: C_22  and  O_23
REMARK    9  A    between atoms: O_23  and  C_24
REMARK                            x       y       z     vdW  Elec       q    Type
REMARK                         _______ _______ _______ _____ _____    ______ ____
ROOT
ATOM      1  C   UNL     1       2.827   6.893  18.504  0.00  0.00    +0.000 C 
ATOM      2  C   UNL     1       4.005   6.516  19.011  0.00  0.00    +0.000 C 
ENDROOT
BRANCH   2   3
ATOM      3  C   UNL     1       4.892   5.394  18.593  0.00  0.00    +0.000 A 
ATOM      4  C   UNL     1       4.446   4.055  18.617  0.00  0.00    +0.000 A 
ATOM      5  C   UNL     1       4.529   3.229  19.760  0.00  0.00    +0.000 A 
ATOM      6  C   UNL     1       4.234   1.868  19.663  0.00  0.00    +0.000 A 
ATOM      7  C   UNL     1       3.759   1.339  18.465  0.00  0.00    +0.000 A 
ATOM      8  C   UNL     1       3.666   2.147  17.332  0.00  0.00    +0.000 A 
ATOM      9  C   UNL     1       4.118   3.466  17.380  0.00  0.00    +0.000 A 
ATOM     10  C   UNL     1       4.365   4.178  16.206  0.00  0.00    +0.000 A 
ATOM     11  C   UNL     1       5.236   5.259  16.277  0.00  0.00    +0.000 A 
ATOM     12  N   UNL     1       5.581   5.763  17.480  0.00  0.00    +0.000 N 
ATOM     13  C   UNL     1       6.843   6.489  17.674  0.00  0.00    +0.000 C 
ENDBRANCH   2   3
BRANCH   1  17
ATOM     14  C   UNL     1       0.464   9.565  20.940  0.00  0.00    +0.000 A 
ATOM     15  C   UNL     1       0.934  10.005  19.704  0.00  0.00    +0.000 A 
ATOM     16  C   UNL     1       1.660   9.160  18.849  0.00  0.00    +0.000 A 
ATOM     17  C   UNL     1       1.970   7.849  19.254  0.00  0.00    +0.000 A 
ATOM     18  C   UNL     1       1.499   7.410  20.522  0.00  0.00    +0.000 A 
ATOM     19  C   UNL     1       0.754   8.266  21.347  0.00  0.00    +0.000 A 
BRANCH  14  21
ATOM     20  C   UNL     1      -0.561  10.128  23.018  0.00  0.00    +0.000 C 
ATOM     21  O   UNL     1      -0.218  10.492  21.683  0.00  0.00    +0.000 OA
ENDBRANCH  14  21
BRANCH  16  22
ATOM     22  O   UNL     1       2.079   9.775  17.698  0.00  0.00    +0.000 OA
ATOM     23  C   UNL     1       2.328  11.172  17.778  0.00  0.00    +0.000 C 
ENDBRANCH  16  22
BRANCH  18  24
ATOM     24  O   UNL     1       1.864   6.133  20.887  0.00  0.00    +0.000 OA
ATOM     25  C   UNL     1       0.997   5.077  20.491  0.00  0.00    +0.000 C 
ENDBRANCH  18  24
ENDBRANCH   1  17
TORSDOF 5
ENDMDL
MODEL 8
REMARK VINA RESULT:      -6.1      1.219      2.549
REMARK  Name = 
REMARK  9 active torsions:
REMARK  status: ('A' for Active; 'I' for Inactive)
REMARK    1  A    between atoms: C_1  and  O_2
REMARK    2  A    between atoms: O_2  and  C_3
REMARK    3  A    between atoms: C_5  and  O_6
REMARK    4  A    between atoms: O_6  and  C_7
REMARK    5  A    between atoms: C_8  and  C_9
REMARK    6  A    between atoms: C_10  and  C_11
REMARK    7  A    between atoms: N_20  and  C_21
REMARK    8  A    between atoms: C_22  and  O_23
REMARK    9  A    between atoms: O_23  and  C_24
REMARK                            x       y       z     vdW  Elec       q    Type
REMARK                         _______ _______ _______ _____ _____    ______ ____
ROOT
ATOM      1  C   UNL     1       1.067   7.998  19.909  0.00  0.00    +0.000 C 
ATOM      2  C   UNL     1       2.269   7.637  19.448  0.00  0.00    +0.000 C 
ENDROOT
BRANCH   2   3
ATOM      3  C   UNL     1       2.876   6.278  19.372  0.00  0.00    +0.000 A 
ATOM      4  C   UNL     1       2.252   5.158  19.965  0.00  0.00    +0.000 A 
ATOM      5  C   UNL     1       2.447   4.786  21.314  0.00  0.00    +0.000 A 
ATOM      6  C   UNL     1       1.941   3.572  21.784  0.00  0.00    +0.000 A 
ATOM      7  C   UNL     1       1.157   2.773  20.956  0.00  0.00    +0.000 A 
ATOM      8  C   UNL     1       0.951   3.136  19.624  0.00  0.00    +0.000 A 
ATOM      9  C   UNL     1       1.593   4.260  19.104  0.00  0.00    +0.000 A 
ATOM     10  C   UNL     1       1.694   4.449  17.725  0.00  0.00    +0.000 A 
ATOM     11  C   UNL     1       2.711   5.275  17.259  0.00  0.00    +0.000 A 
ATOM     12  N   UNL     1       3.366   6.080  18.119  0.00  0.00    +0.000 N 
ATOM     13  C   UNL     1       4.735   6.541  17.847  0.00  0.00    +0.000 C 
ENDBRANCH   2   3
BRANCH   1  17
ATOM     14  C   UNL     1      -0.012  12.144  20.470  0.00  0.00    +0.000 A 
ATOM     15  C   UNL     1       0.462  11.410  21.555  0.00  0.00    +0.000 A 
ATOM     16  C   UNL     1       0.878  10.075  21.416  0.00  0.00    +0.000 A 
ATOM     17  C   UNL     1       0.776   9.434  20.169  0.00  0.00    +0.000 A 
ATOM     18  C   UNL     1       0.278  10.183  19.068  0.00  0.00    +0.000 A 
ATOM     19  C   UNL     1      -0.108  11.523  19.227  0.00  0.00    +0.000 A 
BRANCH  14  21
ATOM     20  C   UNL     1       0.465  14.203  21.572  0.00  0.00    +0.000 C 
ATOM     21  O   UNL     1      -0.398  13.428  20.743  0.00  0.00    +0.000 OA
ENDBRANCH  14  21
BRANCH  16  22
ATOM     22  O   UNL     1       1.273   9.500  22.596  0.00  0.00    +0.000 OA
ATOM     23  C   UNL     1       0.266   9.319  23.584  0.00  0.00    +0.000 C 
ENDBRANCH  16  22
BRANCH  18  24
ATOM     24  O   UNL     1       0.160   9.497  17.880  0.00  0.00    +0.000 OA
ATOM     25  C   UNL     1      -1.081   9.610  17.192  0.00  0.00    +0.000 C 
ENDBRANCH  18  24
ENDBRANCH   1  17
TORSDOF 5
ENDMDL
MODEL 9
REMARK VINA RESULT:      -6.0      6.171     10.058
REMARK  Name = 
REMARK  9 active torsions:
REMARK  status: ('A' for Active; 'I' for Inactive)
REMARK    1  A    between atoms: C_1  and  O_2
REMARK    2  A    between atoms: O_2  and  C_3
REMARK    3  A    between atoms: C_5  and  O_6
REMARK    4  A    between atoms: O_6  and  C_7
REMARK    5  A    between atoms: C_8  and  C_9
REMARK    6  A    between atoms: C_10  and  C_11
REMARK    7  A    between atoms: N_20  and  C_21
REMARK    8  A    between atoms: C_22  and  O_23
REMARK    9  A    between atoms: O_23  and  C_24
REMARK                            x       y       z     vdW  Elec       q    Type
REMARK                         _______ _______ _______ _____ _____    ______ ____
ROOT
ATOM      1  C   UNL     1      -4.270  13.177  20.695  0.00  0.00    +0.000 C 
ATOM      2  C   UNL     1      -5.140  12.640  21.555  0.00  0.00    +0.000 C 
ENDROOT
BRANCH   2   3
ATOM      3  C   UNL     1      -5.515  13.099  22.923  0.00  0.00    +0.000 A 
ATOM      4  C   UNL     1      -4.749  14.066  23.610  0.00  0.00    +0.000 A 
ATOM      5  C   UNL     1      -3.628  13.744  24.407  0.00  0.00    +0.000 A 
ATOM      6  C   UNL     1      -3.028  14.726  25.198  0.00  0.00    +0.000 A 
ATOM      7  C   UNL     1      -3.465  16.047  25.127  0.00  0.00    +0.000 A 
ATOM      8  C   UNL     1      -4.566  16.377  24.336  0.00  0.00    +0.000 A 
ATOM      9  C   UNL     1      -5.274  15.371  23.676  0.00  0.00    +0.000 A 
ATOM     10  C   UNL     1      -6.556  15.611  23.178  0.00  0.00    +0.000 A 
ATOM     11  C   UNL     1      -7.385  14.513  22.976  0.00  0.00    +0.000 A 
ATOM     12  N   UNL     1      -6.863  13.270  22.979  0.00  0.00    +0.000 N 
ATOM     13  C   UNL     1      -7.681  12.096  23.314  0.00  0.00    +0.000 C 
ENDBRANCH   2   3
BRANCH   1  17
ATOM     14  C   UNL     1      -2.790  10.766  17.430  0.00  0.00    +0.000 A 
ATOM     15  C   UNL     1      -4.140  11.110  17.466  0.00  0.00    +0.000 A 
ATOM     16  C   UNL     1      -4.663  11.936  18.475  0.00  0.00    +0.000 A 
ATOM     17  C   UNL     1      -3.827  12.398  19.507  0.00  0.00    +0.000 A 
ATOM     18  C   UNL     1      -2.454  12.033  19.473  0.00  0.00    +0.000 A 
ATOM     19  C   UNL     1      -1.950  11.227  18.440  0.00  0.00    +0.000 A 
BRANCH  14  21
ATOM     20  C   UNL     1      -2.939  10.236  15.110  0.00  0.00    +0.000 C 
ATOM     21  O   UNL     1      -2.412   9.944  16.403  0.00  0.00    +0.000 OA
ENDBRANCH  14  21
BRANCH  16  22
ATOM     22  O   UNL     1      -6.015  12.132  18.375  0.00  0.00    +0.000 OA
ATOM     23  C   UNL     1      -6.830  10.967  18.395  0.00  0.00    +0.000 C 
ENDBRANCH  16  22
BRANCH  18  24
ATOM     24  O   UNL     1      -1.688  12.477  20.528  0.00  0.00    +0.000 OA
ATOM     25  C   UNL     1      -0.757  11.555  21.082  0.00  0.00    +0.000 C 
ENDBRANCH  18  24
ENDBRANCH   1  17
TORSDOF 5
ENDMDL
