MODEL 1
REMARK VINA RESULT:      -8.2      0.000      0.000
REMARK  Name = 
REMARK  3 active torsions:
REMARK  status: ('A' for Active; 'I' for Inactive)
REMARK    1  A    between atoms: C_5  and  C_6
REMARK    2  A    between atoms: C_6  and  C_7
REMARK    3  A    between atoms: C_7  and  N_8
REMARK                            x       y       z     vdW  Elec       q    Type
REMARK                         _______ _______ _______ _____ _____    ______ ____
ROOT
ATOM      1  N   UNL     1       6.649   5.939  17.863  0.00  0.00    +0.000 NA
ATOM      2  C   UNL     1       5.462   6.665  17.395  0.00  0.00    +0.000 C 
ATOM      3  C   UNL     1       4.397   5.762  16.769  0.00  0.00    +0.000 C 
ATOM      4  C   UNL     1       3.990   4.590  17.691  0.00  0.00    +0.000 C 
ATOM      5  C   UNL     1       3.139   3.605  16.867  0.00  0.00    +0.000 C 
ATOM      6  C   UNL     1       2.632   2.459  17.732  0.00  0.00    +0.000 C 
ATOM      7  C   UNL     1       2.214   2.943  19.090  0.00  0.00    +0.000 A 
ATOM      8  C   UNL     1       1.599   2.055  19.984  0.00  0.00    +0.000 A 
ATOM      9  C   UNL     1       1.254   2.469  21.273  0.00  0.00    +0.000 A 
ATOM     10  C   UNL     1       1.504   3.781  21.671  0.00  0.00    +0.000 A 
ATOM     11  C   UNL     1       2.112   4.665  20.787  0.00  0.00    +0.000 A 
ATOM     12  F   UNL     1       2.367   5.917  21.194  0.00  0.00    +0.000 F 
ATOM     13  C   UNL     1       2.496   4.249  19.512  0.00  0.00    +0.000 A 
ATOM     14  O   UNL     1       3.175   5.158  18.740  0.00  0.00    +0.000 OA
ATOM     15  C   UNL     1       5.241   3.918  18.305  0.00  0.00    +0.000 C 
ATOM     16  C   UNL     1       6.241   4.935  18.854  0.00  0.00    +0.000 C 
ENDROOT
BRANCH   1  17
ATOM     17  C   UNL     1       7.482   5.353  16.797  0.00  0.00    +0.000 C 
BRANCH  17  18
ATOM     18  C   UNL     1       7.261   5.907  15.375  0.00  0.00    +0.000 C 
BRANCH  18  23
ATOM     19  F   UNL     1       5.819   2.498  11.112  0.00  0.00    +0.000 F 
ATOM     20  C   UNL     1       6.153   3.292  12.136  0.00  0.00    +0.000 A 
ATOM     21  C   UNL     1       5.390   3.265  13.300  0.00  0.00    +0.000 A 
ATOM     22  C   UNL     1       5.726   4.100  14.371  0.00  0.00    +0.000 A 
ATOM     23  C   UNL     1       6.825   4.964  14.280  0.00  0.00    +0.000 A 
ATOM     24  C   UNL     1       7.574   4.957  13.089  0.00  0.00    +0.000 A 
ATOM     25  F   UNL     1       8.632   5.772  12.968  0.00  0.00    +0.000 F 
ATOM     26  C   UNL     1       7.246   4.133  12.020  0.00  0.00    +0.000 A 
ENDBRANCH  18  23
ENDBRANCH  17  18
ENDBRANCH   1  17
TORSDOF 3
ENDMDL
MODEL 2
REMARK VINA RESULT:      -8.0      1.610      2.260
REMARK  Name = 
REMARK  3 active torsions:
REMARK  status: ('A' for Active; 'I' for Inactive)
REMARK    1  A    between atoms: C_5  and  C_6
REMARK    2  A    between atoms: C_6  and  C_7
REMARK    3  A    between atoms: C_7  and  N_8
REMARK                            x       y       z     vdW  Elec       q    Type
REMARK                         _______ _______ _______ _____ _____    ______ ____
ROOT
ATOM      1  N   UNL     1       6.554   4.261  16.333  0.00  0.00    +0.000 NA
ATOM      2  C   UNL     1       7.076   4.724  17.625  0.00  0.00    +0.000 C 
ATOM      3  C   UNL     1       6.198   5.780  18.299  0.00  0.00    +0.000 C 
ATOM      4  C   UNL     1       4.725   5.334  18.437  0.00  0.00    +0.000 C 
ATOM      5  C   UNL     1       3.891   6.556  18.863  0.00  0.00    +0.000 C 
ATOM      6  C   UNL     1       2.436   6.175  19.097  0.00  0.00    +0.000 C 
ATOM      7  C   UNL     1       2.323   4.844  19.784  0.00  0.00    +0.000 A 
ATOM      8  C   UNL     1       1.066   4.383  20.200  0.00  0.00    +0.000 A 
ATOM      9  C   UNL     1       0.931   3.123  20.790  0.00  0.00    +0.000 A 
ATOM     10  C   UNL     1       2.055   2.324  20.984  0.00  0.00    +0.000 A 
ATOM     11  C   UNL     1       3.303   2.778  20.574  0.00  0.00    +0.000 A 
ATOM     12  F   UNL     1       4.371   1.986  20.748  0.00  0.00    +0.000 F 
ATOM     13  C   UNL     1       3.442   4.018  19.950  0.00  0.00    +0.000 A 
ATOM     14  O   UNL     1       4.693   4.347  19.492  0.00  0.00    +0.000 OA
ATOM     15  C   UNL     1       4.219   4.705  17.116  0.00  0.00    +0.000 C 
ATOM     16  C   UNL     1       5.210   3.701  16.528  0.00  0.00    +0.000 C 
ENDROOT
BRANCH   1  17
ATOM     17  C   UNL     1       6.579   5.265  15.254  0.00  0.00    +0.000 C 
BRANCH  17  18
ATOM     18  C   UNL     1       5.619   5.020  14.072  0.00  0.00    +0.000 C 
BRANCH  18  23
ATOM     19  F   UNL     1       7.217   1.331  10.108  0.00  0.00    +0.000 F 
ATOM     20  C   UNL     1       6.828   2.190  11.057  0.00  0.00    +0.000 A 
ATOM     21  C   UNL     1       5.595   2.010  11.678  0.00  0.00    +0.000 A 
ATOM     22  C   UNL     1       5.176   2.911  12.664  0.00  0.00    +0.000 A 
ATOM     23  C   UNL     1       5.987   3.992  13.029  0.00  0.00    +0.000 A 
ATOM     24  C   UNL     1       7.228   4.135  12.382  0.00  0.00    +0.000 A 
ATOM     25  F   UNL     1       8.030   5.160  12.707  0.00  0.00    +0.000 F 
ATOM     26  C   UNL     1       7.651   3.248  11.401  0.00  0.00    +0.000 A 
ENDBRANCH  18  23
ENDBRANCH  17  18
ENDBRANCH   1  17
TORSDOF 3
ENDMDL
MODEL 3
REMARK VINA RESULT:      -7.9      1.820      2.521
REMARK  Name = 
REMARK  3 active torsions:
REMARK  status: ('A' for Active; 'I' for Inactive)
REMARK    1  A    between atoms: C_5  and  C_6
REMARK    2  A    between atoms: C_6  and  C_7
REMARK    3  A    between atoms: C_7  and  N_8
REMARK                            x       y       z     vdW  Elec       q    Type
REMARK                         _______ _______ _______ _____ _____    ______ ____
ROOT
ATOM      1  N   UNL     1       6.987   4.111  16.082  0.00  0.00    +0.000 NA
ATOM      2  C   UNL     1       7.363   4.787  17.329  0.00  0.00    +0.000 C 
ATOM      3  C   UNL     1       6.358   5.849  17.779  0.00  0.00    +0.000 C 
ATOM      4  C   UNL     1       4.914   5.306  17.870  0.00  0.00    +0.000 C 
ATOM      5  C   UNL     1       3.961   6.502  18.053  0.00  0.00    +0.000 C 
ATOM      6  C   UNL     1       2.523   6.038  18.231  0.00  0.00    +0.000 C 
ATOM      7  C   UNL     1       2.447   4.809  19.090  0.00  0.00    +0.000 A 
ATOM      8  C   UNL     1       1.195   4.307  19.475  0.00  0.00    +0.000 A 
ATOM      9  C   UNL     1       1.101   3.133  20.226  0.00  0.00    +0.000 A 
ATOM     10  C   UNL     1       2.259   2.464  20.616  0.00  0.00    +0.000 A 
ATOM     11  C   UNL     1       3.502   2.959  20.239  0.00  0.00    +0.000 A 
ATOM     12  F   UNL     1       4.605   2.289  20.603  0.00  0.00    +0.000 F 
ATOM     13  C   UNL     1       3.604   4.109  19.456  0.00  0.00    +0.000 A 
ATOM     14  O   UNL     1       4.863   4.474  19.050  0.00  0.00    +0.000 OA
ATOM     15  C   UNL     1       4.568   4.463  16.618  0.00  0.00    +0.000 C 
ATOM     16  C   UNL     1       5.675   3.473  16.255  0.00  0.00    +0.000 C 
ENDROOT
BRANCH   1  17
ATOM     17  C   UNL     1       7.032   4.956  14.875  0.00  0.00    +0.000 C 
BRANCH  17  18
ATOM     18  C   UNL     1       7.333   4.232  13.547  0.00  0.00    +0.000 C 
BRANCH  18  23
ATOM     19  F   UNL     1       3.211   2.204  10.265  0.00  0.00    +0.000 F 
ATOM     20  C   UNL     1       4.174   2.688  11.057  0.00  0.00    +0.000 A 
ATOM     21  C   UNL     1       3.867   3.694  11.969  0.00  0.00    +0.000 A 
ATOM     22  C   UNL     1       4.871   4.214  12.795  0.00  0.00    +0.000 A 
ATOM     23  C   UNL     1       6.182   3.729  12.708  0.00  0.00    +0.000 A 
ATOM     24  C   UNL     1       6.450   2.709  11.778  0.00  0.00    +0.000 A 
ATOM     25  F   UNL     1       7.694   2.222  11.669  0.00  0.00    +0.000 F 
ATOM     26  C   UNL     1       5.461   2.188  10.954  0.00  0.00    +0.000 A 
ENDBRANCH  18  23
ENDBRANCH  17  18
ENDBRANCH   1  17
TORSDOF 3
ENDMDL
MODEL 4
REMARK VINA RESULT:      -7.9      1.879      2.728
REMARK  Name = 
REMARK  3 active torsions:
REMARK  status: ('A' for Active; 'I' for Inactive)
REMARK    1  A    between atoms: C_5  and  C_6
REMARK    2  A    between atoms: C_6  and  C_7
REMARK    3  A    between atoms: C_7  and  N_8
REMARK                            x       y       z     vdW  Elec       q    Type
REMARK                         _______ _______ _______ _____ _____    ______ ____
ROOT
ATOM      1  N   UNL     1       6.346   4.252  15.653  0.00  0.00    +0.000 NA
ATOM      2  C   UNL     1       6.994   4.786  16.856  0.00  0.00    +0.000 C 
ATOM      3  C   UNL     1       6.159   5.839  17.588  0.00  0.00    +0.000 C 
ATOM      4  C   UNL     1       4.730   5.349  17.913  0.00  0.00    +0.000 C 
ATOM      5  C   UNL     1       3.903   6.559  18.386  0.00  0.00    +0.000 C 
ATOM      6  C   UNL     1       2.501   6.139  18.802  0.00  0.00    +0.000 C 
ATOM      7  C   UNL     1       2.519   4.835  19.547  0.00  0.00    +0.000 A 
ATOM      8  C   UNL     1       1.336   4.349  20.124  0.00  0.00    +0.000 A 
ATOM      9  C   UNL     1       1.319   3.112  20.772  0.00  0.00    +0.000 A 
ATOM     10  C   UNL     1       2.488   2.360  20.864  0.00  0.00    +0.000 A 
ATOM     11  C   UNL     1       3.662   2.839  20.295  0.00  0.00    +0.000 A 
ATOM     12  F   UNL     1       4.773   2.091  20.374  0.00  0.00    +0.000 F 
ATOM     13  C   UNL     1       3.681   4.055  19.613  0.00  0.00    +0.000 A 
ATOM     14  O   UNL     1       4.857   4.407  19.001  0.00  0.00    +0.000 OA
ATOM     15  C   UNL     1       4.100   4.649  16.684  0.00  0.00    +0.000 C 
ATOM     16  C   UNL     1       5.056   3.655  16.024  0.00  0.00    +0.000 C 
ENDROOT
BRANCH   1  17
ATOM     17  C   UNL     1       6.208   5.210  14.541  0.00  0.00    +0.000 C 
BRANCH  17  18
ATOM     18  C   UNL     1       7.070   4.933  13.292  0.00  0.00    +0.000 C 
BRANCH  18  23
ATOM     19  F   UNL     1       5.865   0.255  10.370  0.00  0.00    +0.000 F 
ATOM     20  C   UNL     1       6.168   1.366  11.050  0.00  0.00    +0.000 A 
ATOM     21  C   UNL     1       7.501   1.738  11.195  0.00  0.00    +0.000 A 
ATOM     22  C   UNL     1       7.827   2.894  11.915  0.00  0.00    +0.000 A 
ATOM     23  C   UNL     1       6.819   3.678  12.491  0.00  0.00    +0.000 A 
ATOM     24  C   UNL     1       5.484   3.271  12.317  0.00  0.00    +0.000 A 
ATOM     25  F   UNL     1       4.495   3.998  12.856  0.00  0.00    +0.000 F 
ATOM     26  C   UNL     1       5.152   2.125  11.607  0.00  0.00    +0.000 A 
ENDBRANCH  18  23
ENDBRANCH  17  18
ENDBRANCH   1  17
TORSDOF 3
ENDMDL
MODEL 5
REMARK VINA RESULT:      -7.8      3.265      4.531
REMARK  Name = 
REMARK  3 active torsions:
REMARK  status: ('A' for Active; 'I' for Inactive)
REMARK    1  A    between atoms: C_5  and  C_6
REMARK    2  A    between atoms: C_6  and  C_7
REMARK    3  A    between atoms: C_7  and  N_8
REMARK                            x       y       z     vdW  Elec       q    Type
REMARK                         _______ _______ _______ _____ _____    ______ ____
ROOT
ATOM      1  N   UNL     1       2.842   3.899  18.888  0.00  0.00    +0.000 NA
ATOM      2  C   UNL     1       3.878   4.698  19.553  0.00  0.00    +0.000 C 
ATOM      3  C   UNL     1       4.171   6.028  18.855  0.00  0.00    +0.000 C 
ATOM      4  C   UNL     1       2.899   6.874  18.621  0.00  0.00    +0.000 C 
ATOM      5  C   UNL     1       3.263   8.037  17.680  0.00  0.00    +0.000 C 
ATOM      6  C   UNL     1       2.074   8.964  17.466  0.00  0.00    +0.000 C 
ATOM      7  C   UNL     1       1.305   9.169  18.739  0.00  0.00    +0.000 A 
ATOM      8  C   UNL     1       0.251  10.094  18.772  0.00  0.00    +0.000 A 
ATOM      9  C   UNL     1      -0.514  10.258  19.929  0.00  0.00    +0.000 A 
ATOM     10  C   UNL     1      -0.219   9.512  21.068  0.00  0.00    +0.000 A 
ATOM     11  C   UNL     1       0.826   8.596  21.040  0.00  0.00    +0.000 A 
ATOM     12  F   UNL     1       1.081   7.870  22.139  0.00  0.00    +0.000 F 
ATOM     13  C   UNL     1       1.571   8.397  19.878  0.00  0.00    +0.000 A 
ATOM     14  O   UNL     1       2.520   7.407  19.910  0.00  0.00    +0.000 OA
ATOM     15  C   UNL     1       1.755   5.996  18.060  0.00  0.00    +0.000 C 
ATOM     16  C   UNL     1       1.599   4.680  18.821  0.00  0.00    +0.000 C 
ENDROOT
BRANCH   1  17
ATOM     17  C   UNL     1       3.221   3.357  17.571  0.00  0.00    +0.000 C 
BRANCH  17  18
ATOM     18  C   UNL     1       4.711   3.005  17.381  0.00  0.00    +0.000 C 
BRANCH  18  23
ATOM     19  F   UNL     1       7.737   5.514  13.329  0.00  0.00    +0.000 F 
ATOM     20  C   UNL     1       7.014   4.905  14.275  0.00  0.00    +0.000 A 
ATOM     21  C   UNL     1       5.854   4.224  13.918  0.00  0.00    +0.000 A 
ATOM     22  C   UNL     1       5.086   3.593  14.903  0.00  0.00    +0.000 A 
ATOM     23  C   UNL     1       5.476   3.644  16.247  0.00  0.00    +0.000 A 
ATOM     24  C   UNL     1       6.658   4.338  16.567  0.00  0.00    +0.000 A 
ATOM     25  F   UNL     1       7.060   4.407  17.844  0.00  0.00    +0.000 F 
ATOM     26  C   UNL     1       7.425   4.968  15.596  0.00  0.00    +0.000 A 
ENDBRANCH  18  23
ENDBRANCH  17  18
ENDBRANCH   1  17
TORSDOF 3
ENDMDL
MODEL 6
REMARK VINA RESULT:      -7.7      5.372      8.310
REMARK  Name = 
REMARK  3 active torsions:
REMARK  status: ('A' for Active; 'I' for Inactive)
REMARK    1  A    between atoms: C_5  and  C_6
REMARK    2  A    between atoms: C_6  and  C_7
REMARK    3  A    between atoms: C_7  and  N_8
REMARK                            x       y       z     vdW  Elec       q    Type
REMARK                         _______ _______ _______ _____ _____    ______ ____
ROOT
ATOM      1  N   UNL     1       1.749   8.710  19.674  0.00  0.00    +0.000 NA
ATOM      2  C   UNL     1       1.970   7.711  20.726  0.00  0.00    +0.000 C 
ATOM      3  C   UNL     1       1.651   6.280  20.290  0.00  0.00    +0.000 C 
ATOM      4  C   UNL     1       2.383   5.872  18.991  0.00  0.00    +0.000 C 
ATOM      5  C   UNL     1       1.785   4.542  18.500  0.00  0.00    +0.000 C 
ATOM      6  C   UNL     1       2.513   4.034  17.263  0.00  0.00    +0.000 C 
ATOM      7  C   UNL     1       3.993   4.261  17.368  0.00  0.00    +0.000 A 
ATOM      8  C   UNL     1       4.846   3.744  16.382  0.00  0.00    +0.000 A 
ATOM      9  C   UNL     1       6.220   3.992  16.431  0.00  0.00    +0.000 A 
ATOM     10  C   UNL     1       6.753   4.742  17.476  0.00  0.00    +0.000 A 
ATOM     11  C   UNL     1       5.912   5.255  18.456  0.00  0.00    +0.000 A 
ATOM     12  F   UNL     1       6.440   5.995  19.442  0.00  0.00    +0.000 F 
ATOM     13  C   UNL     1       4.534   5.045  18.395  0.00  0.00    +0.000 A 
ATOM     14  O   UNL     1       3.768   5.666  19.349  0.00  0.00    +0.000 OA
ATOM     15  C   UNL     1       2.278   6.994  17.930  0.00  0.00    +0.000 C 
ATOM     16  C   UNL     1       2.579   8.377  18.509  0.00  0.00    +0.000 C 
ENDROOT
BRANCH   1  17
ATOM     17  C   UNL     1       0.338   8.922  19.300  0.00  0.00    +0.000 C 
BRANCH  17  18
ATOM     18  C   UNL     1       0.050  10.126  18.380  0.00  0.00    +0.000 C 
BRANCH  18  23
ATOM     19  F   UNL     1      -5.307  11.259  17.002  0.00  0.00    +0.000 F 
ATOM     20  C   UNL     1      -4.033  10.989  17.308  0.00  0.00    +0.000 A 
ATOM     21  C   UNL     1      -3.297  10.142  16.485  0.00  0.00    +0.000 A 
ATOM     22  C   UNL     1      -1.967   9.845  16.804  0.00  0.00    +0.000 A 
ATOM     23  C   UNL     1      -1.372  10.394  17.948  0.00  0.00    +0.000 A 
ATOM     24  C   UNL     1      -2.148  11.249  18.750  0.00  0.00    +0.000 A 
ATOM     25  F   UNL     1      -1.611  11.791  19.853  0.00  0.00    +0.000 F 
ATOM     26  C   UNL     1      -3.469  11.548  18.442  0.00  0.00    +0.000 A 
ENDBRANCH  18  23
ENDBRANCH  17  18
ENDBRANCH   1  17
TORSDOF 3
ENDMDL
MODEL 7
REMARK VINA RESULT:      -7.4      5.368      8.219
REMARK  Name = 
REMARK  3 active torsions:
REMARK  status: ('A' for Active; 'I' for Inactive)
REMARK    1  A    between atoms: C_5  and  C_6
REMARK    2  A    between atoms: C_6  and  C_7
REMARK    3  A    between atoms: C_7  and  N_8
REMARK                            x       y       z     vdW  Elec       q    Type
REMARK                         _______ _______ _______ _____ _____    ______ ____
ROOT
ATOM      1  N   UNL     1       1.691   8.731  19.922  0.00  0.00    +0.000 NA
ATOM      2  C   UNL     1       1.894   7.698  20.944  0.00  0.00    +0.000 C 
ATOM      3  C   UNL     1       1.540   6.287  20.471  0.00  0.00    +0.000 C 
ATOM      4  C   UNL     1       2.255   5.899  19.157  0.00  0.00    +0.000 C 
ATOM      5  C   UNL     1       1.623   4.596  18.632  0.00  0.00    +0.000 C 
ATOM      6  C   UNL     1       2.332   4.107  17.377  0.00  0.00    +0.000 C 
ATOM      7  C   UNL     1       3.818   4.296  17.480  0.00  0.00    +0.000 A 
ATOM      8  C   UNL     1       4.653   3.787  16.476  0.00  0.00    +0.000 A 
ATOM      9  C   UNL     1       6.033   4.001  16.523  0.00  0.00    +0.000 A 
ATOM     10  C   UNL     1       6.590   4.710  17.586  0.00  0.00    +0.000 A 
ATOM     11  C   UNL     1       5.765   5.214  18.584  0.00  0.00    +0.000 A 
ATOM     12  F   UNL     1       6.316   5.914  19.588  0.00  0.00    +0.000 F 
ATOM     13  C   UNL     1       4.383   5.039  18.526  0.00  0.00    +0.000 A 
ATOM     14  O   UNL     1       3.637   5.650  19.501  0.00  0.00    +0.000 OA
ATOM     15  C   UNL     1       2.171   7.052  18.128  0.00  0.00    +0.000 C 
ATOM     16  C   UNL     1       2.507   8.410  18.743  0.00  0.00    +0.000 C 
ENDROOT
BRANCH   1  17
ATOM     17  C   UNL     1       0.284   8.985  19.562  0.00  0.00    +0.000 C 
BRANCH  17  18
ATOM     18  C   UNL     1      -0.005  10.318  18.841  0.00  0.00    +0.000 C 
BRANCH  18  23
ATOM     19  F   UNL     1      -5.248  11.330  17.008  0.00  0.00    +0.000 F 
ATOM     20  C   UNL     1      -4.012  11.093  17.462  0.00  0.00    +0.000 A 
ATOM     21  C   UNL     1      -3.565  11.754  18.603  0.00  0.00    +0.000 A 
ATOM     22  C   UNL     1      -2.269  11.521  19.078  0.00  0.00    +0.000 A 
ATOM     23  C   UNL     1      -1.420  10.628  18.413  0.00  0.00    +0.000 A 
ATOM     24  C   UNL     1      -1.912   9.976  17.267  0.00  0.00    +0.000 A 
ATOM     25  F   UNL     1      -1.124   9.115  16.606  0.00  0.00    +0.000 F 
ATOM     26  C   UNL     1      -3.195  10.203  16.788  0.00  0.00    +0.000 A 
ENDBRANCH  18  23
ENDBRANCH  17  18
ENDBRANCH   1  17
TORSDOF 3
ENDMDL
MODEL 8
REMARK VINA RESULT:      -7.3      7.688     10.446
REMARK  Name = 
REMARK  3 active torsions:
REMARK  status: ('A' for Active; 'I' for Inactive)
REMARK    1  A    between atoms: C_5  and  C_6
REMARK    2  A    between atoms: C_6  and  C_7
REMARK    3  A    between atoms: C_7  and  N_8
REMARK                            x       y       z     vdW  Elec       q    Type
REMARK                         _______ _______ _______ _____ _____    ______ ____
ROOT
ATOM      1  N   UNL     1       8.391  10.673  18.797  0.00  0.00    +0.000 NA
ATOM      2  C   UNL     1       9.344  10.862  19.896  0.00  0.00    +0.000 C 
ATOM      3  C   UNL     1      10.754  11.229  19.430  0.00  0.00    +0.000 C 
ATOM      4  C   UNL     1      10.773  12.447  18.479  0.00  0.00    +0.000 C 
ATOM      5  C   UNL     1      12.179  12.553  17.861  0.00  0.00    +0.000 C 
ATOM      6  C   UNL     1      12.298  13.781  16.970  0.00  0.00    +0.000 C 
ATOM      7  C   UNL     1      11.592  14.962  17.571  0.00  0.00    +0.000 A 
ATOM      8  C   UNL     1      11.700  16.220  16.960  0.00  0.00    +0.000 A 
ATOM      9  C   UNL     1      11.006  17.320  17.470  0.00  0.00    +0.000 A 
ATOM     10  C   UNL     1      10.214  17.174  18.607  0.00  0.00    +0.000 A 
ATOM     11  C   UNL     1      10.106  15.930  19.217  0.00  0.00    +0.000 A 
ATOM     12  F   UNL     1       9.321  15.803  20.297  0.00  0.00    +0.000 F 
ATOM     13  C   UNL     1      10.764  14.818  18.692  0.00  0.00    +0.000 A 
ATOM     14  O   UNL     1      10.527  13.611  19.300  0.00  0.00    +0.000 OA
ATOM     15  C   UNL     1       9.664  12.319  17.407  0.00  0.00    +0.000 C 
ATOM     16  C   UNL     1       8.318  11.907  18.002  0.00  0.00    +0.000 C 
ENDROOT
BRANCH   1  17
ATOM     17  C   UNL     1       8.638   9.490  17.952  0.00  0.00    +0.000 C 
BRANCH  17  18
ATOM     18  C   UNL     1       8.515   8.119  18.647  0.00  0.00    +0.000 C 
BRANCH  18  23
ATOM     19  F   UNL     1       5.145   4.063  16.629  0.00  0.00    +0.000 F 
ATOM     20  C   UNL     1       5.929   5.038  17.103  0.00  0.00    +0.000 A 
ATOM     21  C   UNL     1       5.825   6.319  16.569  0.00  0.00    +0.000 A 
ATOM     22  C   UNL     1       6.649   7.343  17.052  0.00  0.00    +0.000 A 
ATOM     23  C   UNL     1       7.578   7.086  18.068  0.00  0.00    +0.000 A 
ATOM     24  C   UNL     1       7.647   5.779  18.585  0.00  0.00    +0.000 A 
ATOM     25  F   UNL     1       8.526   5.498  19.558  0.00  0.00    +0.000 F 
ATOM     26  C   UNL     1       6.836   4.757  18.111  0.00  0.00    +0.000 A 
ENDBRANCH  18  23
ENDBRANCH  17  18
ENDBRANCH   1  17
TORSDOF 3
ENDMDL
MODEL 9
REMARK VINA RESULT:      -7.3      1.819      2.493
REMARK  Name = 
REMARK  3 active torsions:
REMARK  status: ('A' for Active; 'I' for Inactive)
REMARK    1  A    between atoms: C_5  and  C_6
REMARK    2  A    between atoms: C_6  and  C_7
REMARK    3  A    between atoms: C_7  and  N_8
REMARK                            x       y       z     vdW  Elec       q    Type
REMARK                         _______ _______ _______ _____ _____    ______ ____
ROOT
ATOM      1  N   UNL     1       6.877   4.197  16.367  0.00  0.00    +0.000 NA
ATOM      2  C   UNL     1       7.273   4.787  17.650  0.00  0.00    +0.000 C 
ATOM      3  C   UNL     1       6.290   5.836  18.173  0.00  0.00    +0.000 C 
ATOM      4  C   UNL     1       4.837   5.314  18.241  0.00  0.00    +0.000 C 
ATOM      5  C   UNL     1       3.907   6.513  18.506  0.00  0.00    +0.000 C 
ATOM      6  C   UNL     1       2.462   6.063  18.665  0.00  0.00    +0.000 C 
ATOM      7  C   UNL     1       2.369   4.785  19.447  0.00  0.00    +0.000 A 
ATOM      8  C   UNL     1       1.111   4.282  19.808  0.00  0.00    +0.000 A 
ATOM      9  C   UNL     1       1.001   3.065  20.486  0.00  0.00    +0.000 A 
ATOM     10  C   UNL     1       2.149   2.352  20.824  0.00  0.00    +0.000 A 
ATOM     11  C   UNL     1       3.398   2.848  20.469  0.00  0.00    +0.000 A 
ATOM     12  F   UNL     1       4.491   2.137  20.782  0.00  0.00    +0.000 F 
ATOM     13  C   UNL     1       3.516   4.043  19.759  0.00  0.00    +0.000 A 
ATOM     14  O   UNL     1       4.779   4.411  19.367  0.00  0.00    +0.000 OA
ATOM     15  C   UNL     1       4.468   4.557  16.942  0.00  0.00    +0.000 C 
ATOM     16  C   UNL     1       5.554   3.573  16.509  0.00  0.00    +0.000 C 
ENDROOT
BRANCH   1  17
ATOM     17  C   UNL     1       6.929   5.115  15.214  0.00  0.00    +0.000 C 
BRANCH  17  18
ATOM     18  C   UNL     1       7.478   4.527  13.898  0.00  0.00    +0.000 C 
BRANCH  18  23
ATOM     19  F   UNL     1       3.709   2.079  10.481  0.00  0.00    +0.000 F 
ATOM     20  C   UNL     1       4.617   2.656  11.276  0.00  0.00    +0.000 A 
ATOM     21  C   UNL     1       5.945   2.244  11.209  0.00  0.00    +0.000 A 
ATOM     22  C   UNL     1       6.899   2.835  12.046  0.00  0.00    +0.000 A 
ATOM     23  C   UNL     1       6.526   3.838  12.950  0.00  0.00    +0.000 A 
ATOM     24  C   UNL     1       5.175   4.229  12.982  0.00  0.00    +0.000 A 
ATOM     25  F   UNL     1       4.784   5.186  13.837  0.00  0.00    +0.000 F 
ATOM     26  C   UNL     1       4.222   3.647  12.158  0.00  0.00    +0.000 A 
ENDBRANCH  18  23
ENDBRANCH  17  18
ENDBRANCH   1  17
TORSDOF 3
ENDMDL
