MODEL 1
REMARK VINA RESULT:      -7.9      0.000      0.000
REMARK  Name = 
REMARK  6 active torsions:
REMARK  status: ('A' for Active; 'I' for Inactive)
REMARK    1  A    between atoms: N_1  and  S_2
REMARK    2  A    between atoms: S_2  and  C_5
REMARK    3  A    between atoms: C_8  and  N_9
REMARK    4  A    between atoms: N_9  and  C_10
REMARK    5  A    between atoms: C_18  and  C_19
REMARK    6  A    between atoms: C_19  and  O_21
REMARK                            x       y       z     vdW  Elec       q    Type
REMARK                         _______ _______ _______ _____ _____    ______ ____
ROOT
ATOM      1  C   UNL     1       2.773   8.454  17.960  0.00  0.00    +0.000 C 
ATOM      2  C   UNL     1       3.112   7.137  18.016  0.00  0.00    +0.000 C 
ATOM      3  C   UNL     1       2.842   6.611  19.417  0.00  0.00    +0.000 C 
ATOM      4  O   UNL     1       1.879   6.847  20.117  0.00  0.00    +0.000 OA
ATOM      5  N   UNL     1       3.893   5.779  19.712  0.00  0.00    +0.000 N 
ATOM      6  C   UNL     1       4.617   5.473  18.576  0.00  0.00    +0.000 A 
ATOM      7  C   UNL     1       5.474   4.392  18.468  0.00  0.00    +0.000 A 
ATOM      8  C   UNL     1       6.064   4.170  17.232  0.00  0.00    +0.000 A 
ATOM      9  C   UNL     1       5.848   5.069  16.165  0.00  0.00    +0.000 A 
ATOM     10  C   UNL     1       4.957   6.175  16.305  0.00  0.00    +0.000 A 
ATOM     11  C   UNL     1       4.281   6.339  17.516  0.00  0.00    +0.000 A 
ATOM     12  H   UNL     1       4.065   5.423  20.638  0.00  0.00    +0.000 HD
ENDROOT
BRANCH   1  13
ATOM     13  N   UNL     1       1.429   8.837  17.687  0.00  0.00    +0.000 N 
ATOM     14  H   UNL     1       0.905   8.058  17.290  0.00  0.00    +0.000 HD
BRANCH  13  18
ATOM     15  C   UNL     1      -1.213  11.540  19.648  0.00  0.00    +0.000 A 
ATOM     16  C   UNL     1       0.007  11.223  20.253  0.00  0.00    +0.000 A 
ATOM     17  C   UNL     1       0.892  10.318  19.630  0.00  0.00    +0.000 A 
ATOM     18  C   UNL     1       0.562   9.702  18.419  0.00  0.00    +0.000 A 
ATOM     19  C   UNL     1      -0.679  10.040  17.835  0.00  0.00    +0.000 A 
ATOM     20  C   UNL     1      -1.558  10.950  18.434  0.00  0.00    +0.000 A 
BRANCH  15  21
ATOM     21  S   UNL     1      -2.290  12.721  20.407  0.00  0.00    +0.000 S 
ATOM     22  O   UNL     1      -1.737  14.043  20.201  0.00  0.00    +0.000 OA
ATOM     23  O   UNL     1      -2.667  12.254  21.719  0.00  0.00    +0.000 OA
BRANCH  21  24
ATOM     24  N   UNL     1      -3.676  12.646  19.489  0.00  0.00    +0.000 NA
ATOM     25  H   UNL     1      -4.295  13.429  19.716  0.00  0.00    +0.000 HD
ATOM     26  H   UNL     1      -4.124  11.738  19.613  0.00  0.00    +0.000 HD
ENDBRANCH  21  24
ENDBRANCH  15  21
ENDBRANCH  13  18
ENDBRANCH   1  13
BRANCH   9  27
ATOM     27  C   UNL     1       6.618   4.763  14.926  0.00  0.00    +0.000 C 
ATOM     28  O   UNL     1       7.503   5.488  14.502  0.00  0.00    +0.000 OA
BRANCH  27  29
ATOM     29  O   UNL     1       6.342   3.560  14.386  0.00  0.00    +0.000 OA
ATOM     30  H   UNL     1       5.498   3.507  13.912  0.00  0.00    +0.000 HD
ENDBRANCH  27  29
ENDBRANCH   9  27
TORSDOF 6
ENDMDL
MODEL 2
REMARK VINA RESULT:      -7.8      0.714      1.237
REMARK  Name = 
REMARK  6 active torsions:
REMARK  status: ('A' for Active; 'I' for Inactive)
REMARK    1  A    between atoms: N_1  and  S_2
REMARK    2  A    between atoms: S_2  and  C_5
REMARK    3  A    between atoms: C_8  and  N_9
REMARK    4  A    between atoms: N_9  and  C_10
REMARK    5  A    between atoms: C_18  and  C_19
REMARK    6  A    between atoms: C_19  and  O_21
REMARK                            x       y       z     vdW  Elec       q    Type
REMARK                         _______ _______ _______ _____ _____    ______ ____
ROOT
ATOM      1  C   UNL     1       2.681   8.453  17.917  0.00  0.00    +0.000 C 
ATOM      2  C   UNL     1       3.050   7.147  18.017  0.00  0.00    +0.000 C 
ATOM      3  C   UNL     1       2.751   6.649  19.423  0.00  0.00    +0.000 C 
ATOM      4  O   UNL     1       1.761   6.879  20.088  0.00  0.00    +0.000 OA
ATOM      5  N   UNL     1       3.812   5.851  19.770  0.00  0.00    +0.000 N 
ATOM      6  C   UNL     1       4.577   5.535  18.663  0.00  0.00    +0.000 A 
ATOM      7  C   UNL     1       5.462   4.473  18.609  0.00  0.00    +0.000 A 
ATOM      8  C   UNL     1       6.094   4.234  17.396  0.00  0.00    +0.000 A 
ATOM      9  C   UNL     1       5.889   5.101  16.301  0.00  0.00    +0.000 A 
ATOM     10  C   UNL     1       4.967   6.187  16.386  0.00  0.00    +0.000 A 
ATOM     11  C   UNL     1       4.251   6.365  17.572  0.00  0.00    +0.000 A 
ATOM     12  H   UNL     1       3.965   5.523  20.709  0.00  0.00    +0.000 HD
ENDROOT
BRANCH   1  13
ATOM     13  N   UNL     1       1.337   8.795  17.595  0.00  0.00    +0.000 N 
ATOM     14  H   UNL     1       0.810   7.968  17.317  0.00  0.00    +0.000 HD
BRANCH  13  18
ATOM     15  C   UNL     1      -1.160  11.585  19.623  0.00  0.00    +0.000 A 
ATOM     16  C   UNL     1      -1.660  10.916  18.502  0.00  0.00    +0.000 A 
ATOM     17  C   UNL     1      -0.847   9.998  17.804  0.00  0.00    +0.000 A 
ATOM     18  C   UNL     1       0.474   9.760  18.196  0.00  0.00    +0.000 A 
ATOM     19  C   UNL     1       0.952  10.455  19.330  0.00  0.00    +0.000 A 
ATOM     20  C   UNL     1       0.148  11.355  20.041  0.00  0.00    +0.000 A 
BRANCH  15  21
ATOM     21  S   UNL     1      -2.206  12.689  20.527  0.00  0.00    +0.000 S 
ATOM     22  O   UNL     1      -1.827  12.640  21.923  0.00  0.00    +0.000 OA
ATOM     23  O   UNL     1      -3.574  12.506  20.108  0.00  0.00    +0.000 OA
BRANCH  21  24
ATOM     24  N   UNL     1      -1.767  14.197  19.976  0.00  0.00    +0.000 NA
ATOM     25  H   UNL     1      -0.904  14.138  19.429  0.00  0.00    +0.000 HD
ATOM     26  H   UNL     1      -1.693  14.843  20.762  0.00  0.00    +0.000 HD
ENDBRANCH  21  24
ENDBRANCH  15  21
ENDBRANCH  13  18
ENDBRANCH   1  13
BRANCH   9  27
ATOM     27  C   UNL     1       6.702   4.783  15.093  0.00  0.00    +0.000 C 
ATOM     28  O   UNL     1       7.642   5.471  14.731  0.00  0.00    +0.000 OA
BRANCH  27  29
ATOM     29  O   UNL     1       6.392   3.608  14.511  0.00  0.00    +0.000 OA
ATOM     30  H   UNL     1       6.526   2.826  15.068  0.00  0.00    +0.000 HD
ENDBRANCH  27  29
ENDBRANCH   9  27
TORSDOF 6
ENDMDL
MODEL 3
REMARK VINA RESULT:      -7.6      3.715      8.678
REMARK  Name = 
REMARK  6 active torsions:
REMARK  status: ('A' for Active; 'I' for Inactive)
REMARK    1  A    between atoms: N_1  and  S_2
REMARK    2  A    between atoms: S_2  and  C_5
REMARK    3  A    between atoms: C_8  and  N_9
REMARK    4  A    between atoms: N_9  and  C_10
REMARK    5  A    between atoms: C_18  and  C_19
REMARK    6  A    between atoms: C_19  and  O_21
REMARK                            x       y       z     vdW  Elec       q    Type
REMARK                         _______ _______ _______ _____ _____    ______ ____
ROOT
ATOM      1  C   UNL     1       0.226   8.394  21.025  0.00  0.00    +0.000 C 
ATOM      2  C   UNL     1       0.200   9.571  20.342  0.00  0.00    +0.000 C 
ATOM      3  C   UNL     1       0.574  10.704  21.284  0.00  0.00    +0.000 C 
ATOM      4  O   UNL     1       1.452  10.702  22.122  0.00  0.00    +0.000 OA
ATOM      5  N   UNL     1      -0.259  11.747  20.962  0.00  0.00    +0.000 N 
ATOM      6  C   UNL     1      -0.884  11.526  19.749  0.00  0.00    +0.000 A 
ATOM      7  C   UNL     1      -1.467  12.520  18.984  0.00  0.00    +0.000 A 
ATOM      8  C   UNL     1      -1.981  12.150  17.748  0.00  0.00    +0.000 A 
ATOM      9  C   UNL     1      -1.971  10.797  17.346  0.00  0.00    +0.000 A 
ATOM     10  C   UNL     1      -1.360   9.794  18.157  0.00  0.00    +0.000 A 
ATOM     11  C   UNL     1      -0.749  10.181  19.351  0.00  0.00    +0.000 A 
ATOM     12  H   UNL     1      -0.351  12.570  21.535  0.00  0.00    +0.000 HD
ENDROOT
BRANCH   1  13
ATOM     13  N   UNL     1       1.447   7.676  21.169  0.00  0.00    +0.000 N 
ATOM     14  H   UNL     1       1.680   7.553  22.154  0.00  0.00    +0.000 HD
BRANCH  13  18
ATOM     15  C   UNL     1       2.877   4.557  18.647  0.00  0.00    +0.000 A 
ATOM     16  C   UNL     1       2.366   4.231  19.907  0.00  0.00    +0.000 A 
ATOM     17  C   UNL     1       1.900   5.249  20.767  0.00  0.00    +0.000 A 
ATOM     18  C   UNL     1       1.964   6.595  20.394  0.00  0.00    +0.000 A 
ATOM     19  C   UNL     1       2.490   6.892  19.116  0.00  0.00    +0.000 A 
ATOM     20  C   UNL     1       2.939   5.890  18.247  0.00  0.00    +0.000 A 
BRANCH  15  21
ATOM     21  S   UNL     1       3.403   3.270  17.553  0.00  0.00    +0.000 S 
ATOM     22  O   UNL     1       4.317   3.838  16.584  0.00  0.00    +0.000 OA
ATOM     23  O   UNL     1       2.262   2.487  17.147  0.00  0.00    +0.000 OA
BRANCH  21  24
ATOM     24  N   UNL     1       4.313   2.269  18.521  0.00  0.00    +0.000 NA
ATOM     25  H   UNL     1       4.323   1.319  18.140  0.00  0.00    +0.000 HD
ATOM     26  H   UNL     1       3.966   2.307  19.479  0.00  0.00    +0.000 HD
ENDBRANCH  21  24
ENDBRANCH  15  21
ENDBRANCH  13  18
ENDBRANCH   1  13
BRANCH   9  27
ATOM     27  C   UNL     1      -2.640  10.530  16.041  0.00  0.00    +0.000 C 
ATOM     28  O   UNL     1      -2.816   9.403  15.608  0.00  0.00    +0.000 OA
BRANCH  27  29
ATOM     29  O   UNL     1      -3.145  11.627  15.443  0.00  0.00    +0.000 OA
ATOM     30  H   UNL     1      -2.530  12.372  15.367  0.00  0.00    +0.000 HD
ENDBRANCH  27  29
ENDBRANCH   9  27
TORSDOF 6
ENDMDL
MODEL 4
REMARK VINA RESULT:      -7.6      2.856      3.664
REMARK  Name = 
REMARK  6 active torsions:
REMARK  status: ('A' for Active; 'I' for Inactive)
REMARK    1  A    between atoms: N_1  and  S_2
REMARK    2  A    between atoms: S_2  and  C_5
REMARK    3  A    between atoms: C_8  and  N_9
REMARK    4  A    between atoms: N_9  and  C_10
REMARK    5  A    between atoms: C_18  and  C_19
REMARK    6  A    between atoms: C_19  and  O_21
REMARK                            x       y       z     vdW  Elec       q    Type
REMARK                         _______ _______ _______ _____ _____    ______ ____
ROOT
ATOM      1  C   UNL     1       1.396   7.294  20.673  0.00  0.00    +0.000 C 
ATOM      2  C   UNL     1       2.400   6.883  19.852  0.00  0.00    +0.000 C 
ATOM      3  C   UNL     1       2.400   7.738  18.595  0.00  0.00    +0.000 C 
ATOM      4  O   UNL     1       2.239   8.940  18.525  0.00  0.00    +0.000 OA
ATOM      5  N   UNL     1       2.663   6.878  17.558  0.00  0.00    +0.000 N 
ATOM      6  C   UNL     1       3.132   5.666  18.027  0.00  0.00    +0.000 A 
ATOM      7  C   UNL     1       3.828   4.752  17.256  0.00  0.00    +0.000 A 
ATOM      8  C   UNL     1       4.306   3.617  17.894  0.00  0.00    +0.000 A 
ATOM      9  C   UNL     1       4.013   3.385  19.256  0.00  0.00    +0.000 A 
ATOM     10  C   UNL     1       3.294   4.348  20.026  0.00  0.00    +0.000 A 
ATOM     11  C   UNL     1       2.904   5.539  19.411  0.00  0.00    +0.000 A 
ATOM     12  H   UNL     1       2.556   7.139  16.591  0.00  0.00    +0.000 HD
ENDROOT
BRANCH   1  13
ATOM     13  N   UNL     1       1.608   8.370  21.581  0.00  0.00    +0.000 N 
ATOM     14  H   UNL     1       2.592   8.634  21.606  0.00  0.00    +0.000 HD
BRANCH  13  18
ATOM     15  C   UNL     1      -1.059  11.567  22.478  0.00  0.00    +0.000 A 
ATOM     16  C   UNL     1      -0.188  11.693  21.391  0.00  0.00    +0.000 A 
ATOM     17  C   UNL     1       0.716  10.653  21.084  0.00  0.00    +0.000 A 
ATOM     18  C   UNL     1       0.780   9.497  21.867  0.00  0.00    +0.000 A 
ATOM     19  C   UNL     1      -0.110   9.401  22.960  0.00  0.00    +0.000 A 
ATOM     20  C   UNL     1      -1.023  10.418  23.265  0.00  0.00    +0.000 A 
BRANCH  15  21
ATOM     21  S   UNL     1      -2.228  12.849  22.820  0.00  0.00    +0.000 S 
ATOM     22  O   UNL     1      -2.826  13.269  21.571  0.00  0.00    +0.000 OA
ATOM     23  O   UNL     1      -1.646  13.799  23.737  0.00  0.00    +0.000 OA
BRANCH  21  24
ATOM     24  N   UNL     1      -3.429  12.077  23.676  0.00  0.00    +0.000 NA
ATOM     25  H   UNL     1      -4.323  12.156  23.183  0.00  0.00    +0.000 HD
ATOM     26  H   UNL     1      -3.467  12.447  24.626  0.00  0.00    +0.000 HD
ENDBRANCH  21  24
ENDBRANCH  15  21
ENDBRANCH  13  18
ENDBRANCH   1  13
BRANCH   9  27
ATOM     27  C   UNL     1       4.507   2.083  19.787  0.00  0.00    +0.000 C 
ATOM     28  O   UNL     1       4.904   1.945  20.932  0.00  0.00    +0.000 OA
BRANCH  27  29
ATOM     29  O   UNL     1       4.358   1.047  18.938  0.00  0.00    +0.000 OA
ATOM     30  H   UNL     1       3.821   0.314  19.276  0.00  0.00    +0.000 HD
ENDBRANCH  27  29
ENDBRANCH   9  27
TORSDOF 6
ENDMDL
MODEL 5
REMARK VINA RESULT:      -7.6      0.809      1.497
REMARK  Name = 
REMARK  6 active torsions:
REMARK  status: ('A' for Active; 'I' for Inactive)
REMARK    1  A    between atoms: N_1  and  S_2
REMARK    2  A    between atoms: S_2  and  C_5
REMARK    3  A    between atoms: C_8  and  N_9
REMARK    4  A    between atoms: N_9  and  C_10
REMARK    5  A    between atoms: C_18  and  C_19
REMARK    6  A    between atoms: C_19  and  O_21
REMARK                            x       y       z     vdW  Elec       q    Type
REMARK                         _______ _______ _______ _____ _____    ______ ____
ROOT
ATOM      1  C   UNL     1       2.607   8.524  18.058  0.00  0.00    +0.000 C 
ATOM      2  C   UNL     1       2.945   7.207  18.112  0.00  0.00    +0.000 C 
ATOM      3  C   UNL     1       2.650   6.672  19.504  0.00  0.00    +0.000 C 
ATOM      4  O   UNL     1       1.675   6.904  20.189  0.00  0.00    +0.000 OA
ATOM      5  N   UNL     1       3.696   5.838  19.813  0.00  0.00    +0.000 N 
ATOM      6  C   UNL     1       4.440   5.539  18.687  0.00  0.00    +0.000 A 
ATOM      7  C   UNL     1       5.298   4.459  18.588  0.00  0.00    +0.000 A 
ATOM      8  C   UNL     1       5.910   4.244  17.361  0.00  0.00    +0.000 A 
ATOM      9  C   UNL     1       5.712   5.150  16.296  0.00  0.00    +0.000 A 
ATOM     10  C   UNL     1       4.819   6.255  16.427  0.00  0.00    +0.000 A 
ATOM     11  C   UNL     1       4.121   6.411  17.627  0.00  0.00    +0.000 A 
ATOM     12  H   UNL     1       3.852   5.477  20.739  0.00  0.00    +0.000 HD
ENDROOT
BRANCH   1  13
ATOM     13  N   UNL     1       1.267   8.908  17.763  0.00  0.00    +0.000 N 
ATOM     14  H   UNL     1       0.722   8.106  17.449  0.00  0.00    +0.000 HD
BRANCH  13  18
ATOM     15  C   UNL     1      -1.185  11.622  19.944  0.00  0.00    +0.000 A 
ATOM     16  C   UNL     1      -1.637  11.137  18.713  0.00  0.00    +0.000 A 
ATOM     17  C   UNL     1      -0.835  10.249  17.964  0.00  0.00    +0.000 A 
ATOM     18  C   UNL     1       0.428   9.858  18.419  0.00  0.00    +0.000 A 
ATOM     19  C   UNL     1       0.858  10.369  19.665  0.00  0.00    +0.000 A 
ATOM     20  C   UNL     1       0.064  11.236  20.425  0.00  0.00    +0.000 A 
BRANCH  15  21
ATOM     21  S   UNL     1      -2.222  12.688  20.903  0.00  0.00    +0.000 S 
ATOM     22  O   UNL     1      -3.587  12.529  20.448  0.00  0.00    +0.000 OA
ATOM     23  O   UNL     1      -1.607  13.988  21.010  0.00  0.00    +0.000 OA
BRANCH  21  24
ATOM     24  N   UNL     1      -2.161  12.035  22.432  0.00  0.00    +0.000 NA
ATOM     25  H   UNL     1      -1.634  11.157  22.423  0.00  0.00    +0.000 HD
ATOM     26  H   UNL     1      -3.106  11.926  22.799  0.00  0.00    +0.000 HD
ENDBRANCH  21  24
ENDBRANCH  15  21
ENDBRANCH  13  18
ENDBRANCH   1  13
BRANCH   9  27
ATOM     27  C   UNL     1       6.504   4.851  15.069  0.00  0.00    +0.000 C 
ATOM     28  O   UNL     1       6.104   4.106  14.190  0.00  0.00    +0.000 OA
BRANCH  27  29
ATOM     29  O   UNL     1       7.638   5.570  14.953  0.00  0.00    +0.000 OA
ATOM     30  H   UNL     1       7.540   6.421  14.500  0.00  0.00    +0.000 HD
ENDBRANCH  27  29
ENDBRANCH   9  27
TORSDOF 6
ENDMDL
MODEL 6
REMARK VINA RESULT:      -7.5      3.073      4.497
REMARK  Name = 
REMARK  6 active torsions:
REMARK  status: ('A' for Active; 'I' for Inactive)
REMARK    1  A    between atoms: N_1  and  S_2
REMARK    2  A    between atoms: S_2  and  C_5
REMARK    3  A    between atoms: C_8  and  N_9
REMARK    4  A    between atoms: N_9  and  C_10
REMARK    5  A    between atoms: C_18  and  C_19
REMARK    6  A    between atoms: C_19  and  O_21
REMARK                            x       y       z     vdW  Elec       q    Type
REMARK                         _______ _______ _______ _____ _____    ______ ____
ROOT
ATOM      1  C   UNL     1       4.288   5.997  16.739  0.00  0.00    +0.000 C 
ATOM      2  C   UNL     1       5.321   5.307  16.185  0.00  0.00    +0.000 C 
ATOM      3  C   UNL     1       6.635   5.892  16.679  0.00  0.00    +0.000 C 
ATOM      4  O   UNL     1       6.900   6.250  17.809  0.00  0.00    +0.000 OA
ATOM      5  N   UNL     1       7.474   5.894  15.594  0.00  0.00    +0.000 N 
ATOM      6  C   UNL     1       6.970   5.108  14.575  0.00  0.00    +0.000 A 
ATOM      7  C   UNL     1       7.728   4.607  13.533  0.00  0.00    +0.000 A 
ATOM      8  C   UNL     1       7.092   3.763  12.634  0.00  0.00    +0.000 A 
ATOM      9  C   UNL     1       5.708   3.505  12.751  0.00  0.00    +0.000 A 
ATOM     10  C   UNL     1       4.953   4.034  13.840  0.00  0.00    +0.000 A 
ATOM     11  C   UNL     1       5.614   4.798  14.804  0.00  0.00    +0.000 A 
ATOM     12  H   UNL     1       8.355   6.382  15.585  0.00  0.00    +0.000 HD
ENDROOT
BRANCH   1  13
ATOM     13  N   UNL     1       3.794   5.638  18.026  0.00  0.00    +0.000 N 
ATOM     14  H   UNL     1       4.510   5.150  18.564  0.00  0.00    +0.000 HD
BRANCH  13  18
ATOM     15  C   UNL     1       1.323   7.971  20.592  0.00  0.00    +0.000 A 
ATOM     16  C   UNL     1       1.603   6.646  20.939  0.00  0.00    +0.000 A 
ATOM     17  C   UNL     1       2.407   5.848  20.097  0.00  0.00    +0.000 A 
ATOM     18  C   UNL     1       2.914   6.350  18.895  0.00  0.00    +0.000 A 
ATOM     19  C   UNL     1       2.610   7.691  18.570  0.00  0.00    +0.000 A 
ATOM     20  C   UNL     1       1.828   8.498  19.406  0.00  0.00    +0.000 A 
BRANCH  15  21
ATOM     21  S   UNL     1       0.364   8.982  21.682  0.00  0.00    +0.000 S 
ATOM     22  O   UNL     1       1.259   9.610  22.630  0.00  0.00    +0.000 OA
ATOM     23  O   UNL     1      -0.803   8.251  22.113  0.00  0.00    +0.000 OA
BRANCH  21  24
ATOM     24  N   UNL     1      -0.207  10.199  20.701  0.00  0.00    +0.000 NA
ATOM     25  H   UNL     1       0.457  10.979  20.681  0.00  0.00    +0.000 HD
ATOM     26  H   UNL     1      -1.138  10.480  21.006  0.00  0.00    +0.000 HD
ENDBRANCH  21  24
ENDBRANCH  15  21
ENDBRANCH  13  18
ENDBRANCH   1  13
BRANCH   9  27
ATOM     27  C   UNL     1       5.137   2.660  11.665  0.00  0.00    +0.000 C 
ATOM     28  O   UNL     1       4.139   2.975  11.038  0.00  0.00    +0.000 OA
BRANCH  27  29
ATOM     29  O   UNL     1       5.885   1.584  11.349  0.00  0.00    +0.000 OA
ATOM     30  H   UNL     1       6.430   1.237  12.071  0.00  0.00    +0.000 HD
ENDBRANCH  27  29
ENDBRANCH   9  27
TORSDOF 6
ENDMDL
MODEL 7
REMARK VINA RESULT:      -7.5      3.835      8.780
REMARK  Name = 
REMARK  6 active torsions:
REMARK  status: ('A' for Active; 'I' for Inactive)
REMARK    1  A    between atoms: N_1  and  S_2
REMARK    2  A    between atoms: S_2  and  C_5
REMARK    3  A    between atoms: C_8  and  N_9
REMARK    4  A    between atoms: N_9  and  C_10
REMARK    5  A    between atoms: C_18  and  C_19
REMARK    6  A    between atoms: C_19  and  O_21
REMARK                            x       y       z     vdW  Elec       q    Type
REMARK                         _______ _______ _______ _____ _____    ______ ____
ROOT
ATOM      1  C   UNL     1       0.234   8.324  20.970  0.00  0.00    +0.000 C 
ATOM      2  C   UNL     1       0.237   9.501  20.287  0.00  0.00    +0.000 C 
ATOM      3  C   UNL     1       0.663  10.621  21.223  0.00  0.00    +0.000 C 
ATOM      4  O   UNL     1       1.553  10.589  22.048  0.00  0.00    +0.000 OA
ATOM      5  N   UNL     1      -0.138  11.691  20.913  0.00  0.00    +0.000 N 
ATOM      6  C   UNL     1      -0.789  11.491  19.710  0.00  0.00    +0.000 A 
ATOM      7  C   UNL     1      -1.349  12.504  18.953  0.00  0.00    +0.000 A 
ATOM      8  C   UNL     1      -1.894  12.153  17.726  0.00  0.00    +0.000 A 
ATOM      9  C   UNL     1      -1.935  10.800  17.324  0.00  0.00    +0.000 A 
ATOM     10  C   UNL     1      -1.347   9.777  18.125  0.00  0.00    +0.000 A 
ATOM     11  C   UNL     1      -0.705  10.143  19.310  0.00  0.00    +0.000 A 
ATOM     12  H   UNL     1      -0.194  12.516  21.487  0.00  0.00    +0.000 HD
ENDROOT
BRANCH   1  13
ATOM     13  N   UNL     1       1.432   7.565  21.096  0.00  0.00    +0.000 N 
ATOM     14  H   UNL     1       1.681   7.442  22.077  0.00  0.00    +0.000 HD
BRANCH  13  18
ATOM     15  C   UNL     1       2.898   4.158  19.003  0.00  0.00    +0.000 A 
ATOM     16  C   UNL     1       3.116   5.431  18.466  0.00  0.00    +0.000 A 
ATOM     17  C   UNL     1       2.626   6.574  19.133  0.00  0.00    +0.000 A 
ATOM     18  C   UNL     1       1.896   6.460  20.320  0.00  0.00    +0.000 A 
ATOM     19  C   UNL     1       1.689   5.160  20.834  0.00  0.00    +0.000 A 
ATOM     20  C   UNL     1       2.185   4.020  20.191  0.00  0.00    +0.000 A 
BRANCH  15  21
ATOM     21  S   UNL     1       3.567   2.736  18.190  0.00  0.00    +0.000 S 
ATOM     22  O   UNL     1       4.108   1.847  19.196  0.00  0.00    +0.000 OA
ATOM     23  O   UNL     1       4.347   3.155  17.052  0.00  0.00    +0.000 OA
BRANCH  21  24
ATOM     24  N   UNL     1       2.230   1.970  17.561  0.00  0.00    +0.000 NA
ATOM     25  H   UNL     1       2.437   1.606  16.626  0.00  0.00    +0.000 HD
ATOM     26  H   UNL     1       1.432   2.605  17.570  0.00  0.00    +0.000 HD
ENDBRANCH  21  24
ENDBRANCH  15  21
ENDBRANCH  13  18
ENDBRANCH   1  13
BRANCH   9  27
ATOM     27  C   UNL     1      -2.633  10.556  16.029  0.00  0.00    +0.000 C 
ATOM     28  O   UNL     1      -2.814   9.438  15.577  0.00  0.00    +0.000 OA
BRANCH  27  29
ATOM     29  O   UNL     1      -3.156  11.663  15.465  0.00  0.00    +0.000 OA
ATOM     30  H   UNL     1      -3.705  11.503  14.683  0.00  0.00    +0.000 HD
ENDBRANCH  27  29
ENDBRANCH   9  27
TORSDOF 6
ENDMDL
MODEL 8
REMARK VINA RESULT:      -7.5      3.340      8.718
REMARK  Name = 
REMARK  6 active torsions:
REMARK  status: ('A' for Active; 'I' for Inactive)
REMARK    1  A    between atoms: N_1  and  S_2
REMARK    2  A    between atoms: S_2  and  C_5
REMARK    3  A    between atoms: C_8  and  N_9
REMARK    4  A    between atoms: N_9  and  C_10
REMARK    5  A    between atoms: C_18  and  C_19
REMARK    6  A    between atoms: C_19  and  O_21
REMARK                            x       y       z     vdW  Elec       q    Type
REMARK                         _______ _______ _______ _____ _____    ______ ____
ROOT
ATOM      1  C   UNL     1       0.538   7.783  21.050  0.00  0.00    +0.000 C 
ATOM      2  C   UNL     1       0.386   9.128  20.913  0.00  0.00    +0.000 C 
ATOM      3  C   UNL     1       0.708   9.805  22.235  0.00  0.00    +0.000 C 
ATOM      4  O   UNL     1       1.621   9.541  22.992  0.00  0.00    +0.000 OA
ATOM      5  N   UNL     1      -0.220  10.806  22.378  0.00  0.00    +0.000 N 
ATOM      6  C   UNL     1      -0.879  11.044  21.187  0.00  0.00    +0.000 A 
ATOM      7  C   UNL     1      -1.575  12.205  20.904  0.00  0.00    +0.000 A 
ATOM      8  C   UNL     1      -2.113  12.329  19.630  0.00  0.00    +0.000 A 
ATOM      9  C   UNL     1      -2.011  11.267  18.706  0.00  0.00    +0.000 A 
ATOM     10  C   UNL     1      -1.284  10.081  19.026  0.00  0.00    +0.000 A 
ATOM     11  C   UNL     1      -0.653   9.999  20.269  0.00  0.00    +0.000 A 
ATOM     12  H   UNL     1      -0.352  11.310  23.240  0.00  0.00    +0.000 HD
ENDROOT
BRANCH   1  13
ATOM     13  N   UNL     1       1.819   7.185  20.876  0.00  0.00    +0.000 N 
ATOM     14  H   UNL     1       1.963   6.435  21.552  0.00  0.00    +0.000 HD
BRANCH  13  18
ATOM     15  C   UNL     1       4.195   6.342  17.444  0.00  0.00    +0.000 A 
ATOM     16  C   UNL     1       3.372   7.472  17.440  0.00  0.00    +0.000 A 
ATOM     17  C   UNL     1       2.564   7.764  18.559  0.00  0.00    +0.000 A 
ATOM     18  C   UNL     1       2.546   6.924  19.676  0.00  0.00    +0.000 A 
ATOM     19  C   UNL     1       3.386   5.787  19.648  0.00  0.00    +0.000 A 
ATOM     20  C   UNL     1       4.205   5.497  18.551  0.00  0.00    +0.000 A 
BRANCH  15  21
ATOM     21  S   UNL     1       5.248   6.016  16.060  0.00  0.00    +0.000 S 
ATOM     22  O   UNL     1       5.015   7.035  15.058  0.00  0.00    +0.000 OA
ATOM     23  O   UNL     1       5.197   4.611  15.737  0.00  0.00    +0.000 OA
BRANCH  21  24
ATOM     24  N   UNL     1       6.780   6.285  16.652  0.00  0.00    +0.000 NA
ATOM     25  H   UNL     1       7.447   5.644  16.214  0.00  0.00    +0.000 HD
ATOM     26  H   UNL     1       6.774   6.216  17.669  0.00  0.00    +0.000 HD
ENDBRANCH  21  24
ENDBRANCH  15  21
ENDBRANCH  13  18
ENDBRANCH   1  13
BRANCH   9  27
ATOM     27  C   UNL     1      -2.714  11.496  17.412  0.00  0.00    +0.000 C 
ATOM     28  O   UNL     1      -3.925  11.625  17.332  0.00  0.00    +0.000 OA
BRANCH  27  29
ATOM     29  O   UNL     1      -1.892  11.675  16.359  0.00  0.00    +0.000 OA
ATOM     30  H   UNL     1      -2.096  12.444  15.806  0.00  0.00    +0.000 HD
ENDBRANCH  27  29
ENDBRANCH   9  27
TORSDOF 6
ENDMDL
MODEL 9
REMARK VINA RESULT:      -7.5      2.886      3.570
REMARK  Name = 
REMARK  6 active torsions:
REMARK  status: ('A' for Active; 'I' for Inactive)
REMARK    1  A    between atoms: N_1  and  S_2
REMARK    2  A    between atoms: S_2  and  C_5
REMARK    3  A    between atoms: C_8  and  N_9
REMARK    4  A    between atoms: N_9  and  C_10
REMARK    5  A    between atoms: C_18  and  C_19
REMARK    6  A    between atoms: C_19  and  O_21
REMARK                            x       y       z     vdW  Elec       q    Type
REMARK                         _______ _______ _______ _____ _____    ______ ____
ROOT
ATOM      1  C   UNL     1       1.416   7.134  20.499  0.00  0.00    +0.000 C 
ATOM      2  C   UNL     1       2.444   6.741  19.700  0.00  0.00    +0.000 C 
ATOM      3  C   UNL     1       2.495   7.639  18.474  0.00  0.00    +0.000 C 
ATOM      4  O   UNL     1       2.347   8.844  18.439  0.00  0.00    +0.000 OA
ATOM      5  N   UNL     1       2.785   6.812  17.417  0.00  0.00    +0.000 N 
ATOM      6  C   UNL     1       3.226   5.580  17.859  0.00  0.00    +0.000 A 
ATOM      7  C   UNL     1       3.940   4.686  17.082  0.00  0.00    +0.000 A 
ATOM      8  C   UNL     1       4.386   3.524  17.696  0.00  0.00    +0.000 A 
ATOM      9  C   UNL     1       4.044   3.249  19.039  0.00  0.00    +0.000 A 
ATOM     10  C   UNL     1       3.308   4.192  19.817  0.00  0.00    +0.000 A 
ATOM     11  C   UNL     1       2.950   5.408  19.231  0.00  0.00    +0.000 A 
ATOM     12  H   UNL     1       2.714   7.107  16.457  0.00  0.00    +0.000 HD
ENDROOT
BRANCH   1  13
ATOM     13  N   UNL     1       1.606   8.176  21.452  0.00  0.00    +0.000 N 
ATOM     14  H   UNL     1       2.575   8.495  21.450  0.00  0.00    +0.000 HD
BRANCH  13  18
ATOM     15  C   UNL     1      -0.806  11.512  22.540  0.00  0.00    +0.000 A 
ATOM     16  C   UNL     1      -0.939  10.316  23.252  0.00  0.00    +0.000 A 
ATOM     17  C   UNL     1      -0.162   9.192  22.900  0.00  0.00    +0.000 A 
ATOM     18  C   UNL     1       0.731   9.239  21.825  0.00  0.00    +0.000 A 
ATOM     19  C   UNL     1       0.840  10.461  21.123  0.00  0.00    +0.000 A 
ATOM     20  C   UNL     1       0.087  11.588  21.474  0.00  0.00    +0.000 A 
BRANCH  15  21
ATOM     21  S   UNL     1      -1.741  12.933  23.026  0.00  0.00    +0.000 S 
ATOM     22  O   UNL     1      -0.870  13.824  23.764  0.00  0.00    +0.000 OA
ATOM     23  O   UNL     1      -3.016  12.513  23.554  0.00  0.00    +0.000 OA
BRANCH  21  24
ATOM     24  N   UNL     1      -2.081  13.699  21.588  0.00  0.00    +0.000 NA
ATOM     25  H   UNL     1      -2.143  14.711  21.731  0.00  0.00    +0.000 HD
ATOM     26  H   UNL     1      -2.928  13.305  21.179  0.00  0.00    +0.000 HD
ENDBRANCH  21  24
ENDBRANCH  15  21
ENDBRANCH  13  18
ENDBRANCH   1  13
BRANCH   9  27
ATOM     27  C   UNL     1       4.507   1.925  19.541  0.00  0.00    +0.000 C 
ATOM     28  O   UNL     1       4.999   1.773  20.647  0.00  0.00    +0.000 OA
BRANCH  27  29
ATOM     29  O   UNL     1       4.222   0.892  18.724  0.00  0.00    +0.000 OA
ATOM     30  H   UNL     1       3.929   0.084  19.171  0.00  0.00    +0.000 HD
ENDBRANCH  27  29
ENDBRANCH   9  27
TORSDOF 6
ENDMDL
