MODEL 1
REMARK VINA RESULT:      -6.6      0.000      0.000
REMARK  Name = 
REMARK  6 active torsions:
REMARK  status: ('A' for Active; 'I' for Inactive)
REMARK    1  A    between atoms: C_1  and  N_2
REMARK    2  A    between atoms: N_2  and  C_3
REMARK    3  A    between atoms: C_3  and  C_4
REMARK    4  A    between atoms: N_6  and  C_7
REMARK    5  A    between atoms: C_10  and  S_11
REMARK    6  A    between atoms: S_11  and  N_12
REMARK                            x       y       z     vdW  Elec       q    Type
REMARK                         _______ _______ _______ _____ _____    ______ ____
ROOT
ATOM      1  C   UNL     1       4.603   4.017  17.222  0.00  0.00    +0.000 A 
ATOM      2  C   UNL     1       3.257   3.664  17.094  0.00  0.00    +0.000 A 
ATOM      3  C   UNL     1       2.400   3.707  18.193  0.00  0.00    +0.000 A 
ATOM      4  C   UNL     1       2.888   4.101  19.438  0.00  0.00    +0.000 A 
ATOM      5  C   UNL     1       4.228   4.461  19.595  0.00  0.00    +0.000 A 
ATOM      6  C   UNL     1       5.074   4.399  18.486  0.00  0.00    +0.000 A 
ATOM      7  F   UNL     1       6.364   4.738  18.641  0.00  0.00    +0.000 F 
ENDROOT
BRANCH   1  10
ATOM      8  C   UNL     1       5.836   5.035  15.312  0.00  0.00    +0.000 C 
ATOM      9  O   UNL     1       5.521   6.210  15.494  0.00  0.00    +0.000 OA
ATOM     10  N   UNL     1       5.504   3.971  16.134  0.00  0.00    +0.000 N 
ATOM     11  H   UNL     1       5.968   3.082  15.958  0.00  0.00    +0.000 HD
BRANCH   8  12
ATOM     12  C   UNL     1       6.683   4.645  14.102  0.00  0.00    +0.000 C 
BRANCH  12  14
ATOM     13  C   UNL     1       6.000   3.324  12.185  0.00  0.00    +0.000 C 
ATOM     14  N   UNL     1       6.353   3.296  13.606  0.00  0.00    +0.000 NA
ATOM     15  H   UNL     1       7.188   2.717  13.707  0.00  0.00    +0.000 HD
ENDBRANCH  12  14
ENDBRANCH   8  12
ENDBRANCH   1  10
BRANCH   4  16
ATOM     16  S   UNL     1       1.773   4.163  20.805  0.00  0.00    +0.000 S 
ATOM     17  O   UNL     1       2.343   3.438  21.917  0.00  0.00    +0.000 OA
ATOM     18  O   UNL     1       1.260   5.507  20.935  0.00  0.00    +0.000 OA
BRANCH  16  19
ATOM     19  N   UNL     1       0.500   3.231  20.243  0.00  0.00    +0.000 NA
ATOM     20  H   UNL     1       0.813   2.273  20.085  0.00  0.00    +0.000 HD
ATOM     21  H   UNL     1      -0.297   3.306  20.877  0.00  0.00    +0.000 HD
ENDBRANCH  16  19
ENDBRANCH   4  16
TORSDOF 5
ENDMDL
MODEL 2
REMARK VINA RESULT:      -6.4      0.891      1.170
REMARK  Name = 
REMARK  6 active torsions:
REMARK  status: ('A' for Active; 'I' for Inactive)
REMARK    1  A    between atoms: C_1  and  N_2
REMARK    2  A    between atoms: N_2  and  C_3
REMARK    3  A    between atoms: C_3  and  C_4
REMARK    4  A    between atoms: N_6  and  C_7
REMARK    5  A    between atoms: C_10  and  S_11
REMARK    6  A    between atoms: S_11  and  N_12
REMARK                            x       y       z     vdW  Elec       q    Type
REMARK                         _______ _______ _______ _____ _____    ______ ____
ROOT
ATOM      1  C   UNL     1       4.645   3.953  17.080  0.00  0.00    +0.000 A 
ATOM      2  C   UNL     1       3.273   3.704  16.976  0.00  0.00    +0.000 A 
ATOM      3  C   UNL     1       2.451   3.750  18.101  0.00  0.00    +0.000 A 
ATOM      4  C   UNL     1       3.000   4.041  19.349  0.00  0.00    +0.000 A 
ATOM      5  C   UNL     1       4.366   4.295  19.484  0.00  0.00    +0.000 A 
ATOM      6  C   UNL     1       5.175   4.233  18.348  0.00  0.00    +0.000 A 
ATOM      7  F   UNL     1       6.491   4.470  18.481  0.00  0.00    +0.000 F 
ENDROOT
BRANCH   1  10
ATOM      8  C   UNL     1       5.897   4.981  15.188  0.00  0.00    +0.000 C 
ATOM      9  O   UNL     1       5.674   6.164  15.440  0.00  0.00    +0.000 OA
ATOM     10  N   UNL     1       5.510   3.901  15.965  0.00  0.00    +0.000 N 
ATOM     11  H   UNL     1       5.903   2.991  15.730  0.00  0.00    +0.000 HD
BRANCH   8  12
ATOM     12  C   UNL     1       6.680   4.597  13.935  0.00  0.00    +0.000 C 
BRANCH  12  14
ATOM     13  C   UNL     1       5.783   3.250  12.127  0.00  0.00    +0.000 C 
ATOM     14  N   UNL     1       6.356   3.233  13.475  0.00  0.00    +0.000 NA
ATOM     15  H   UNL     1       7.229   2.706  13.434  0.00  0.00    +0.000 HD
ENDBRANCH  12  14
ENDBRANCH   8  12
ENDBRANCH   1  10
BRANCH   4  16
ATOM     16  S   UNL     1       1.930   4.110  20.752  0.00  0.00    +0.000 S 
ATOM     17  O   UNL     1       0.562   3.957  20.314  0.00  0.00    +0.000 OA
ATOM     18  O   UNL     1       2.498   3.318  21.818  0.00  0.00    +0.000 OA
BRANCH  16  19
ATOM     19  N   UNL     1       2.095   5.709  21.222  0.00  0.00    +0.000 NA
ATOM     20  H   UNL     1       2.627   5.764  22.090  0.00  0.00    +0.000 HD
ATOM     21  H   UNL     1       2.492   6.260  20.459  0.00  0.00    +0.000 HD
ENDBRANCH  16  19
ENDBRANCH   4  16
TORSDOF 5
ENDMDL
MODEL 3
REMARK VINA RESULT:      -6.4      0.889      1.021
REMARK  Name = 
REMARK  6 active torsions:
REMARK  status: ('A' for Active; 'I' for Inactive)
REMARK    1  A    between atoms: C_1  and  N_2
REMARK    2  A    between atoms: N_2  and  C_3
REMARK    3  A    between atoms: C_3  and  C_4
REMARK    4  A    between atoms: N_6  and  C_7
REMARK    5  A    between atoms: C_10  and  S_11
REMARK    6  A    between atoms: S_11  and  N_12
REMARK                            x       y       z     vdW  Elec       q    Type
REMARK                         _______ _______ _______ _____ _____    ______ ____
ROOT
ATOM      1  C   UNL     1       4.663   3.936  17.301  0.00  0.00    +0.000 A 
ATOM      2  C   UNL     1       3.324   3.564  17.148  0.00  0.00    +0.000 A 
ATOM      3  C   UNL     1       2.442   3.609  18.228  0.00  0.00    +0.000 A 
ATOM      4  C   UNL     1       2.898   4.024  19.478  0.00  0.00    +0.000 A 
ATOM      5  C   UNL     1       4.230   4.402  19.660  0.00  0.00    +0.000 A 
ATOM      6  C   UNL     1       5.101   4.338  18.572  0.00  0.00    +0.000 A 
ATOM      7  F   UNL     1       6.383   4.695  18.751  0.00  0.00    +0.000 F 
ENDROOT
BRANCH   1  10
ATOM      8  C   UNL     1       5.868   4.923  15.358  0.00  0.00    +0.000 C 
ATOM      9  O   UNL     1       5.473   6.083  15.466  0.00  0.00    +0.000 OA
ATOM     10  N   UNL     1       5.588   3.888  16.234  0.00  0.00    +0.000 N 
ATOM     11  H   UNL     1       6.113   3.023  16.119  0.00  0.00    +0.000 HD
BRANCH   8  12
ATOM     12  C   UNL     1       6.764   4.523  14.188  0.00  0.00    +0.000 C 
BRANCH  12  14
ATOM     13  C   UNL     1       8.199   5.632  12.576  0.00  0.00    +0.000 C 
ATOM     14  N   UNL     1       7.880   5.469  13.996  0.00  0.00    +0.000 NA
ATOM     15  H   UNL     1       7.580   6.377  14.354  0.00  0.00    +0.000 HD
ENDBRANCH  12  14
ENDBRANCH   8  12
ENDBRANCH   1  10
BRANCH   4  16
ATOM     16  S   UNL     1       1.753   4.088  20.820  0.00  0.00    +0.000 S 
ATOM     17  O   UNL     1       2.303   3.376  21.950  0.00  0.00    +0.000 OA
ATOM     18  O   UNL     1       1.226   5.429  20.927  0.00  0.00    +0.000 OA
BRANCH  16  19
ATOM     19  N   UNL     1       0.499   3.142  20.236  0.00  0.00    +0.000 NA
ATOM     20  H   UNL     1       0.669   2.904  19.259  0.00  0.00    +0.000 HD
ATOM     21  H   UNL     1       0.361   2.330  20.841  0.00  0.00    +0.000 HD
ENDBRANCH  16  19
ENDBRANCH   4  16
TORSDOF 5
ENDMDL
MODEL 4
REMARK VINA RESULT:      -6.3      1.308      1.339
REMARK  Name = 
REMARK  6 active torsions:
REMARK  status: ('A' for Active; 'I' for Inactive)
REMARK    1  A    between atoms: C_1  and  N_2
REMARK    2  A    between atoms: N_2  and  C_3
REMARK    3  A    between atoms: C_3  and  C_4
REMARK    4  A    between atoms: N_6  and  C_7
REMARK    5  A    between atoms: C_10  and  S_11
REMARK    6  A    between atoms: S_11  and  N_12
REMARK                            x       y       z     vdW  Elec       q    Type
REMARK                         _______ _______ _______ _____ _____    ______ ____
ROOT
ATOM      1  C   UNL     1       4.270   4.048  17.014  0.00  0.00    +0.000 A 
ATOM      2  C   UNL     1       3.972   2.873  17.711  0.00  0.00    +0.000 A 
ATOM      3  C   UNL     1       3.214   2.909  18.881  0.00  0.00    +0.000 A 
ATOM      4  C   UNL     1       2.752   4.130  19.370  0.00  0.00    +0.000 A 
ATOM      5  C   UNL     1       3.033   5.319  18.694  0.00  0.00    +0.000 A 
ATOM      6  C   UNL     1       3.803   5.265  17.531  0.00  0.00    +0.000 A 
ATOM      7  F   UNL     1       4.079   6.411  16.888  0.00  0.00    +0.000 F 
ENDROOT
BRANCH   1  10
ATOM      8  C   UNL     1       6.402   4.325  15.756  0.00  0.00    +0.000 C 
ATOM      9  O   UNL     1       7.165   4.454  16.712  0.00  0.00    +0.000 OA
ATOM     10  N   UNL     1       5.047   4.051  15.833  0.00  0.00    +0.000 N 
ATOM     11  H   UNL     1       4.569   3.804  14.968  0.00  0.00    +0.000 HD
BRANCH   8  12
ATOM     12  C   UNL     1       6.932   4.446  14.330  0.00  0.00    +0.000 C 
BRANCH  12  14
ATOM     13  C   UNL     1       6.802   3.623  12.051  0.00  0.00    +0.000 C 
ATOM     14  N   UNL     1       6.269   3.502  13.409  0.00  0.00    +0.000 NA
ATOM     15  H   UNL     1       6.470   2.558  13.739  0.00  0.00    +0.000 HD
ENDBRANCH  12  14
ENDBRANCH   8  12
ENDBRANCH   1  10
BRANCH   4  16
ATOM     16  S   UNL     1       1.780   4.141  20.843  0.00  0.00    +0.000 S 
ATOM     17  O   UNL     1       2.453   3.370  21.862  0.00  0.00    +0.000 OA
ATOM     18  O   UNL     1       1.292   5.480  21.077  0.00  0.00    +0.000 OA
BRANCH  16  19
ATOM     19  N   UNL     1       0.450   3.236  20.374  0.00  0.00    +0.000 NA
ATOM     20  H   UNL     1       0.756   2.393  19.888  0.00  0.00    +0.000 HD
ATOM     21  H   UNL     1      -0.151   3.054  21.179  0.00  0.00    +0.000 HD
ENDBRANCH  16  19
ENDBRANCH   4  16
TORSDOF 5
ENDMDL
MODEL 5
REMARK VINA RESULT:      -6.2      0.915      1.040
REMARK  Name = 
REMARK  6 active torsions:
REMARK  status: ('A' for Active; 'I' for Inactive)
REMARK    1  A    between atoms: C_1  and  N_2
REMARK    2  A    between atoms: N_2  and  C_3
REMARK    3  A    between atoms: C_3  and  C_4
REMARK    4  A    between atoms: N_6  and  C_7
REMARK    5  A    between atoms: C_10  and  S_11
REMARK    6  A    between atoms: S_11  and  N_12
REMARK                            x       y       z     vdW  Elec       q    Type
REMARK                         _______ _______ _______ _____ _____    ______ ____
ROOT
ATOM      1  C   UNL     1       4.636   3.860  17.121  0.00  0.00    +0.000 A 
ATOM      2  C   UNL     1       3.284   3.534  16.986  0.00  0.00    +0.000 A 
ATOM      3  C   UNL     1       2.439   3.519  18.095  0.00  0.00    +0.000 A 
ATOM      4  C   UNL     1       2.946   3.826  19.357  0.00  0.00    +0.000 A 
ATOM      5  C   UNL     1       4.292   4.157  19.522  0.00  0.00    +0.000 A 
ATOM      6  C   UNL     1       5.126   4.154  18.402  0.00  0.00    +0.000 A 
ATOM      7  F   UNL     1       6.422   4.465  18.564  0.00  0.00    +0.000 F 
ENDROOT
BRANCH   1  10
ATOM      8  C   UNL     1       5.909   4.990  15.302  0.00  0.00    +0.000 C 
ATOM      9  O   UNL     1       5.661   6.157  15.600  0.00  0.00    +0.000 OA
ATOM     10  N   UNL     1       5.525   3.871  16.022  0.00  0.00    +0.000 N 
ATOM     11  H   UNL     1       5.938   2.979  15.756  0.00  0.00    +0.000 HD
BRANCH   8  12
ATOM     12  C   UNL     1       6.724   4.674  14.050  0.00  0.00    +0.000 C 
BRANCH  12  14
ATOM     13  C   UNL     1       6.482   3.367  12.020  0.00  0.00    +0.000 C 
ATOM     14  N   UNL     1       6.379   3.358  13.481  0.00  0.00    +0.000 NA
ATOM     15  H   UNL     1       7.055   2.681  13.836  0.00  0.00    +0.000 HD
ENDBRANCH  12  14
ENDBRANCH   8  12
ENDBRANCH   1  10
BRANCH   4  16
ATOM     16  S   UNL     1       1.846   3.817  20.738  0.00  0.00    +0.000 S 
ATOM     17  O   UNL     1       1.805   5.136  21.323  0.00  0.00    +0.000 OA
ATOM     18  O   UNL     1       0.651   3.085  20.385  0.00  0.00    +0.000 OA
BRANCH  16  19
ATOM     19  N   UNL     1       2.679   2.849  21.823  0.00  0.00    +0.000 NA
ATOM     20  H   UNL     1       2.748   3.319  22.726  0.00  0.00    +0.000 HD
ATOM     21  H   UNL     1       2.248   1.925  21.871  0.00  0.00    +0.000 HD
ENDBRANCH  16  19
ENDBRANCH   4  16
TORSDOF 5
ENDMDL
MODEL 6
REMARK VINA RESULT:      -6.1      1.267      1.540
REMARK  Name = 
REMARK  6 active torsions:
REMARK  status: ('A' for Active; 'I' for Inactive)
REMARK    1  A    between atoms: C_1  and  N_2
REMARK    2  A    between atoms: N_2  and  C_3
REMARK    3  A    between atoms: C_3  and  C_4
REMARK    4  A    between atoms: N_6  and  C_7
REMARK    5  A    between atoms: C_10  and  S_11
REMARK    6  A    between atoms: S_11  and  N_12
REMARK                            x       y       z     vdW  Elec       q    Type
REMARK                         _______ _______ _______ _____ _____    ______ ____
ROOT
ATOM      1  C   UNL     1       4.761   3.919  17.267  0.00  0.00    +0.000 A 
ATOM      2  C   UNL     1       3.421   3.549  17.123  0.00  0.00    +0.000 A 
ATOM      3  C   UNL     1       2.540   3.619  18.202  0.00  0.00    +0.000 A 
ATOM      4  C   UNL     1       2.999   4.057  19.444  0.00  0.00    +0.000 A 
ATOM      5  C   UNL     1       4.332   4.434  19.616  0.00  0.00    +0.000 A 
ATOM      6  C   UNL     1       5.202   4.345  18.528  0.00  0.00    +0.000 A 
ATOM      7  F   UNL     1       6.486   4.700  18.698  0.00  0.00    +0.000 F 
ENDROOT
BRANCH   1  10
ATOM      8  C   UNL     1       6.086   4.905  15.403  0.00  0.00    +0.000 C 
ATOM      9  O   UNL     1       5.823   6.091  15.596  0.00  0.00    +0.000 OA
ATOM     10  N   UNL     1       5.685   3.846  16.200  0.00  0.00    +0.000 N 
ATOM     11  H   UNL     1       6.110   2.938  16.021  0.00  0.00    +0.000 HD
BRANCH   8  12
ATOM     12  C   UNL     1       6.942   4.494  14.207  0.00  0.00    +0.000 C 
BRANCH  12  14
ATOM     13  C   UNL     1       8.093   5.626  12.396  0.00  0.00    +0.000 C 
ATOM     14  N   UNL     1       7.927   5.532  13.848  0.00  0.00    +0.000 NA
ATOM     15  H   UNL     1       7.566   6.428  14.178  0.00  0.00    +0.000 HD
ENDBRANCH  12  14
ENDBRANCH   8  12
ENDBRANCH   1  10
BRANCH   4  16
ATOM     16  S   UNL     1       1.856   4.153  20.785  0.00  0.00    +0.000 S 
ATOM     17  O   UNL     1       0.515   3.970  20.282  0.00  0.00    +0.000 OA
ATOM     18  O   UNL     1       2.376   3.399  21.903  0.00  0.00    +0.000 OA
BRANCH  16  19
ATOM     19  N   UNL     1       1.978   5.767  21.216  0.00  0.00    +0.000 NA
ATOM     20  H   UNL     1       2.712   6.218  20.670  0.00  0.00    +0.000 HD
ATOM     21  H   UNL     1       1.066   6.221  21.137  0.00  0.00    +0.000 HD
ENDBRANCH  16  19
ENDBRANCH   4  16
TORSDOF 5
ENDMDL
MODEL 7
REMARK VINA RESULT:      -6.1      1.100      1.605
REMARK  Name = 
REMARK  6 active torsions:
REMARK  status: ('A' for Active; 'I' for Inactive)
REMARK    1  A    between atoms: C_1  and  N_2
REMARK    2  A    between atoms: N_2  and  C_3
REMARK    3  A    between atoms: C_3  and  C_4
REMARK    4  A    between atoms: N_6  and  C_7
REMARK    5  A    between atoms: C_10  and  S_11
REMARK    6  A    between atoms: S_11  and  N_12
REMARK                            x       y       z     vdW  Elec       q    Type
REMARK                         _______ _______ _______ _____ _____    ______ ____
ROOT
ATOM      1  C   UNL     1       4.818   4.097  17.406  0.00  0.00    +0.000 A 
ATOM      2  C   UNL     1       5.197   4.580  18.662  0.00  0.00    +0.000 A 
ATOM      3  C   UNL     1       4.278   4.652  19.708  0.00  0.00    +0.000 A 
ATOM      4  C   UNL     1       2.961   4.243  19.502  0.00  0.00    +0.000 A 
ATOM      5  C   UNL     1       2.554   3.756  18.259  0.00  0.00    +0.000 A 
ATOM      6  C   UNL     1       3.485   3.703  17.220  0.00  0.00    +0.000 A 
ATOM      7  F   UNL     1       3.089   3.241  16.023  0.00  0.00    +0.000 F 
ENDROOT
BRANCH   1  10
ATOM      8  C   UNL     1       5.921   5.011  15.369  0.00  0.00    +0.000 C 
ATOM      9  O   UNL     1       5.468   6.153  15.410  0.00  0.00    +0.000 OA
ATOM     10  N   UNL     1       5.718   4.025  16.320  0.00  0.00    +0.000 N 
ATOM     11  H   UNL     1       6.285   3.182  16.248  0.00  0.00    +0.000 HD
BRANCH   8  12
ATOM     12  C   UNL     1       6.808   4.578  14.204  0.00  0.00    +0.000 C 
BRANCH  12  14
ATOM     13  C   UNL     1       5.740   3.452  12.339  0.00  0.00    +0.000 C 
ATOM     14  N   UNL     1       6.390   3.281  13.640  0.00  0.00    +0.000 NA
ATOM     15  H   UNL     1       7.232   2.722  13.496  0.00  0.00    +0.000 HD
ENDBRANCH  12  14
ENDBRANCH   8  12
ENDBRANCH   1  10
BRANCH   4  16
ATOM     16  S   UNL     1       1.826   4.329  20.851  0.00  0.00    +0.000 S 
ATOM     17  O   UNL     1       2.361   3.590  21.971  0.00  0.00    +0.000 OA
ATOM     18  O   UNL     1       1.340   5.684  20.975  0.00  0.00    +0.000 OA
BRANCH  16  19
ATOM     19  N   UNL     1       0.541   3.426  20.267  0.00  0.00    +0.000 NA
ATOM     20  H   UNL     1      -0.235   4.042  20.024  0.00  0.00    +0.000 HD
ATOM     21  H   UNL     1       0.852   2.832  19.497  0.00  0.00    +0.000 HD
ENDBRANCH  16  19
ENDBRANCH   4  16
TORSDOF 5
ENDMDL
MODEL 8
REMARK VINA RESULT:      -6.1      1.599      1.788
REMARK  Name = 
REMARK  6 active torsions:
REMARK  status: ('A' for Active; 'I' for Inactive)
REMARK    1  A    between atoms: C_1  and  N_2
REMARK    2  A    between atoms: N_2  and  C_3
REMARK    3  A    between atoms: C_3  and  C_4
REMARK    4  A    between atoms: N_6  and  C_7
REMARK    5  A    between atoms: C_10  and  S_11
REMARK    6  A    between atoms: S_11  and  N_12
REMARK                            x       y       z     vdW  Elec       q    Type
REMARK                         _______ _______ _______ _____ _____    ______ ____
ROOT
ATOM      1  C   UNL     1       4.438   4.190  16.865  0.00  0.00    +0.000 A 
ATOM      2  C   UNL     1       4.096   3.040  17.582  0.00  0.00    +0.000 A 
ATOM      3  C   UNL     1       3.333   3.124  18.746  0.00  0.00    +0.000 A 
ATOM      4  C   UNL     1       2.911   4.369  19.210  0.00  0.00    +0.000 A 
ATOM      5  C   UNL     1       3.237   5.535  18.514  0.00  0.00    +0.000 A 
ATOM      6  C   UNL     1       4.011   5.432  17.357  0.00  0.00    +0.000 A 
ATOM      7  F   UNL     1       4.331   6.556  16.695  0.00  0.00    +0.000 F 
ENDROOT
BRANCH   1  10
ATOM      8  C   UNL     1       6.575   4.424  15.607  0.00  0.00    +0.000 C 
ATOM      9  O   UNL     1       7.332   4.601  16.560  0.00  0.00    +0.000 OA
ATOM     10  N   UNL     1       5.222   4.145  15.690  0.00  0.00    +0.000 N 
ATOM     11  H   UNL     1       4.750   3.856  14.835  0.00  0.00    +0.000 HD
BRANCH   8  12
ATOM     12  C   UNL     1       7.112   4.484  14.179  0.00  0.00    +0.000 C 
BRANCH  12  14
ATOM     13  C   UNL     1       6.871   3.690  11.899  0.00  0.00    +0.000 C 
ATOM     14  N   UNL     1       6.395   3.561  13.278  0.00  0.00    +0.000 NA
ATOM     15  H   UNL     1       6.595   2.610  13.588  0.00  0.00    +0.000 HD
ENDBRANCH  12  14
ENDBRANCH   8  12
ENDBRANCH   1  10
BRANCH   4  16
ATOM     16  S   UNL     1       1.932   4.440  20.677  0.00  0.00    +0.000 S 
ATOM     17  O   UNL     1       0.542   4.252  20.331  0.00  0.00    +0.000 OA
ATOM     18  O   UNL     1       2.585   3.679  21.717  0.00  0.00    +0.000 OA
BRANCH  16  19
ATOM     19  N   UNL     1       2.092   6.051  21.110  0.00  0.00    +0.000 NA
ATOM     20  H   UNL     1       3.040   6.372  20.910  0.00  0.00    +0.000 HD
ATOM     21  H   UNL     1       1.364   6.609  20.661  0.00  0.00    +0.000 HD
ENDBRANCH  16  19
ENDBRANCH   4  16
TORSDOF 5
ENDMDL
MODEL 9
REMARK VINA RESULT:      -6.1      3.519      4.250
REMARK  Name = 
REMARK  6 active torsions:
REMARK  status: ('A' for Active; 'I' for Inactive)
REMARK    1  A    between atoms: C_1  and  N_2
REMARK    2  A    between atoms: N_2  and  C_3
REMARK    3  A    between atoms: C_3  and  C_4
REMARK    4  A    between atoms: N_6  and  C_7
REMARK    5  A    between atoms: C_10  and  S_11
REMARK    6  A    between atoms: S_11  and  N_12
REMARK                            x       y       z     vdW  Elec       q    Type
REMARK                         _______ _______ _______ _____ _____    ______ ____
ROOT
ATOM      1  C   UNL     1       5.240   5.994  18.097  0.00  0.00    +0.000 A 
ATOM      2  C   UNL     1       4.140   5.753  17.270  0.00  0.00    +0.000 A 
ATOM      3  C   UNL     1       3.406   4.573  17.382  0.00  0.00    +0.000 A 
ATOM      4  C   UNL     1       3.774   3.615  18.326  0.00  0.00    +0.000 A 
ATOM      5  C   UNL     1       4.868   3.829  19.167  0.00  0.00    +0.000 A 
ATOM      6  C   UNL     1       5.598   5.011  19.032  0.00  0.00    +0.000 A 
ATOM      7  F   UNL     1       6.654   5.211  19.836  0.00  0.00    +0.000 F 
ENDROOT
BRANCH   1  10
ATOM      8  C   UNL     1       7.211   7.301  17.315  0.00  0.00    +0.000 C 
ATOM      9  O   UNL     1       7.701   6.462  16.560  0.00  0.00    +0.000 OA
ATOM     10  N   UNL     1       6.016   7.172  18.002  0.00  0.00    +0.000 N 
ATOM     11  H   UNL     1       5.647   8.004  18.458  0.00  0.00    +0.000 HD
BRANCH   8  12
ATOM     12  C   UNL     1       7.922   8.631  17.548  0.00  0.00    +0.000 C 
BRANCH  12  14
ATOM     13  C   UNL     1       9.175   9.979  19.130  0.00  0.00    +0.000 C 
ATOM     14  N   UNL     1       8.701   8.633  18.801  0.00  0.00    +0.000 NA
ATOM     15  H   UNL     1       8.078   8.331  19.551  0.00  0.00    +0.000 HD
ENDBRANCH  12  14
ENDBRANCH   8  12
ENDBRANCH   1  10
BRANCH   4  16
ATOM     16  S   UNL     1       2.814   2.140  18.456  0.00  0.00    +0.000 S 
ATOM     17  O   UNL     1       2.232   2.066  19.776  0.00  0.00    +0.000 OA
ATOM     18  O   UNL     1       2.033   1.977  17.251  0.00  0.00    +0.000 OA
BRANCH  16  19
ATOM     19  N   UNL     1       4.002   0.960  18.403  0.00  0.00    +0.000 NA
ATOM     20  H   UNL     1       4.295   0.717  19.349  0.00  0.00    +0.000 HD
ATOM     21  H   UNL     1       3.680   0.162  17.853  0.00  0.00    +0.000 HD
ENDBRANCH  16  19
ENDBRANCH   4  16
TORSDOF 5
ENDMDL
