MODEL 1
REMARK VINA RESULT:      -7.5      0.000      0.000
REMARK  Name = 
REMARK  8 active torsions:
REMARK  status: ('A' for Active; 'I' for Inactive)
REMARK    1  A    between atoms: N_2  and  CA_3
REMARK    2  A    between atoms: CA_3  and  C_4
REMARK    3  A    between atoms: CA_3  and  C_20
REMARK    4  A    between atoms: N_6  and  CA_7
REMARK    5  A    between atoms: CA_11  and  C_12
REMARK    6  A    between atoms: C_12  and  OXT_14
REMARK    7  A    between atoms: C_15  and  C_16
REMARK    8  A    between atoms: C_15  and  C_17
REMARK                            x       y       z     vdW  Elec       q    Type
REMARK                         _______ _______ _______ _____ _____    ______ ____
ROOT
ATOM      1  CA  UNL     1       3.879   5.722  17.423  0.00  0.00    +0.000 C 
ATOM      2  C   UNL     1       3.953   5.641  18.969  0.00  0.00    +0.000 C 
ATOM      3  O   UNL     1       4.706   5.934  19.867  0.00  0.00    +0.000 OA
ATOM      4  N   UNL     1       2.811   4.896  19.058  0.00  0.00    +0.000 N 
ATOM      5  CA  UNL     1       2.852   3.634  19.812  0.00  0.00    +0.000 C 
ATOM      6  C   UNL     1       2.168   2.561  18.953  0.00  0.00    +0.000 C 
ATOM      7  C   UNL     1       2.664   1.147  19.276  0.00  0.00    +0.000 C 
ATOM      8  C   UNL     1       0.635   2.604  18.971  0.00  0.00    +0.000 C 
ATOM      9  S   UNL     1       2.741   3.013  17.243  0.00  0.00    +0.000 S 
ATOM     10  C   UNL     1       2.643   4.802  17.586  0.00  0.00    +0.000 C 
ENDROOT
BRANCH   1  13
ATOM     11  C   UNL     1       6.159   6.051  16.422  0.00  0.00    +0.000 C 
ATOM     12  O   UNL     1       6.149   7.254  16.665  0.00  0.00    +0.000 OA
ATOM     13  N   UNL     1       5.075   5.235  16.704  0.00  0.00    +0.000 N 
ATOM     14  H   UNL     1       5.288   4.239  16.621  0.00  0.00    +0.000 HD
BRANCH  11  15
ATOM     15  CA  UNL     1       7.345   5.310  15.734  0.00  0.00    +0.000 C 
BRANCH  15  16
ATOM     16  C   UNL     1       6.958   4.771  14.365  0.00  0.00    +0.000 A 
ATOM     17  C   UNL     1       5.874   3.892  14.218  0.00  0.00    +0.000 A 
ATOM     18  C   UNL     1       5.562   3.354  12.963  0.00  0.00    +0.000 A 
ATOM     19  C   UNL     1       6.325   3.683  11.844  0.00  0.00    +0.000 A 
ATOM     20  C   UNL     1       7.374   4.583  11.969  0.00  0.00    +0.000 A 
ATOM     21  C   UNL     1       7.666   5.140  13.212  0.00  0.00    +0.000 A 
ENDBRANCH  15  16
BRANCH  15  23
ATOM     22  C   UNL     1       7.882   4.596  17.886  0.00  0.00    +0.000 C 
ATOM     23  N   UNL     1       7.783   4.224  16.657  0.00  0.00    +0.000 NA
ENDBRANCH  15  23
ENDBRANCH  11  15
ENDBRANCH   1  13
BRANCH   5  24
ATOM     24  C   UNL     1       2.312   3.796  21.235  0.00  0.00    +0.000 C 
ATOM     25  O   UNL     1       2.122   2.872  22.012  0.00  0.00    +0.000 OA
BRANCH  24  26
ATOM     26  OXT UNL     1       2.195   5.088  21.633  0.00  0.00    +0.000 OA
ATOM     27  HXT UNL     1       1.562   5.204  22.377  0.00  0.00    +0.000 HD
ENDBRANCH  24  26
ENDBRANCH   5  24
TORSDOF 6
ENDMDL
MODEL 2
REMARK VINA RESULT:      -6.9      4.562      7.775
REMARK  Name = 
REMARK  8 active torsions:
REMARK  status: ('A' for Active; 'I' for Inactive)
REMARK    1  A    between atoms: N_2  and  CA_3
REMARK    2  A    between atoms: CA_3  and  C_4
REMARK    3  A    between atoms: CA_3  and  C_20
REMARK    4  A    between atoms: N_6  and  CA_7
REMARK    5  A    between atoms: CA_11  and  C_12
REMARK    6  A    between atoms: C_12  and  OXT_14
REMARK    7  A    between atoms: C_15  and  C_16
REMARK    8  A    between atoms: C_15  and  C_17
REMARK                            x       y       z     vdW  Elec       q    Type
REMARK                         _______ _______ _______ _____ _____    ______ ____
ROOT
ATOM      1  CA  UNL     1       2.441   6.878  17.830  0.00  0.00    +0.000 C 
ATOM      2  C   UNL     1       2.462   5.591  18.693  0.00  0.00    +0.000 C 
ATOM      3  O   UNL     1       1.889   5.118  19.647  0.00  0.00    +0.000 OA
ATOM      4  N   UNL     1       3.581   5.107  18.077  0.00  0.00    +0.000 N 
ATOM      5  CA  UNL     1       4.720   4.697  18.911  0.00  0.00    +0.000 C 
ATOM      6  C   UNL     1       5.987   5.306  18.294  0.00  0.00    +0.000 C 
ATOM      7  C   UNL     1       7.103   5.510  19.325  0.00  0.00    +0.000 C 
ATOM      8  C   UNL     1       6.526   4.561  17.067  0.00  0.00    +0.000 C 
ATOM      9  S   UNL     1       5.383   6.975  17.740  0.00  0.00    +0.000 S 
ATOM     10  C   UNL     1       3.757   6.317  17.234  0.00  0.00    +0.000 C 
ENDROOT
BRANCH   1  13
ATOM     11  C   UNL     1       1.457   9.104  18.453  0.00  0.00    +0.000 C 
ATOM     12  O   UNL     1       0.557   8.995  17.625  0.00  0.00    +0.000 OA
ATOM     13  N   UNL     1       2.453   8.149  18.585  0.00  0.00    +0.000 N 
ATOM     14  H   UNL     1       3.022   8.275  19.423  0.00  0.00    +0.000 HD
BRANCH  11  15
ATOM     15  CA  UNL     1       1.622  10.326  19.405  0.00  0.00    +0.000 C 
BRANCH  15  16
ATOM     16  C   UNL     1       0.740  10.205  20.639  0.00  0.00    +0.000 A 
ATOM     17  C   UNL     1       0.038  11.314  21.134  0.00  0.00    +0.000 A 
ATOM     18  C   UNL     1      -0.724  11.207  22.305  0.00  0.00    +0.000 A 
ATOM     19  C   UNL     1      -0.792   9.998  22.994  0.00  0.00    +0.000 A 
ATOM     20  C   UNL     1      -0.135   8.883  22.493  0.00  0.00    +0.000 A 
ATOM     21  C   UNL     1       0.599   8.983  21.313  0.00  0.00    +0.000 A 
ENDBRANCH  15  16
BRANCH  15  23
ATOM     22  C   UNL     1       2.341  12.251  18.306  0.00  0.00    +0.000 C 
ATOM     23  N   UNL     1       1.306  11.549  18.612  0.00  0.00    +0.000 NA
ENDBRANCH  15  23
ENDBRANCH  11  15
ENDBRANCH   1  13
BRANCH   5  24
ATOM     24  C   UNL     1       4.750   3.184  19.142  0.00  0.00    +0.000 C 
ATOM     25  O   UNL     1       5.206   2.646  20.140  0.00  0.00    +0.000 OA
BRANCH  24  26
ATOM     26  OXT UNL     1       4.083   2.472  18.199  0.00  0.00    +0.000 OA
ATOM     27  HXT UNL     1       4.603   1.714  17.852  0.00  0.00    +0.000 HD
ENDBRANCH  24  26
ENDBRANCH   5  24
TORSDOF 6
ENDMDL
MODEL 3
REMARK VINA RESULT:      -6.8      4.656      7.832
REMARK  Name = 
REMARK  8 active torsions:
REMARK  status: ('A' for Active; 'I' for Inactive)
REMARK    1  A    between atoms: N_2  and  CA_3
REMARK    2  A    between atoms: CA_3  and  C_4
REMARK    3  A    between atoms: CA_3  and  C_20
REMARK    4  A    between atoms: N_6  and  CA_7
REMARK    5  A    between atoms: CA_11  and  C_12
REMARK    6  A    between atoms: C_12  and  OXT_14
REMARK    7  A    between atoms: C_15  and  C_16
REMARK    8  A    between atoms: C_15  and  C_17
REMARK                            x       y       z     vdW  Elec       q    Type
REMARK                         _______ _______ _______ _____ _____    ______ ____
ROOT
ATOM      1  CA  UNL     1       2.071   6.878  18.225  0.00  0.00    +0.000 C 
ATOM      2  C   UNL     1       2.200   5.618  19.118  0.00  0.00    +0.000 C 
ATOM      3  O   UNL     1       1.764   5.183  20.158  0.00  0.00    +0.000 OA
ATOM      4  N   UNL     1       3.216   5.099  18.366  0.00  0.00    +0.000 N 
ATOM      5  CA  UNL     1       4.458   4.697  19.043  0.00  0.00    +0.000 C 
ATOM      6  C   UNL     1       5.631   5.269  18.234  0.00  0.00    +0.000 C 
ATOM      7  C   UNL     1       6.883   5.487  19.089  0.00  0.00    +0.000 C 
ATOM      8  C   UNL     1       5.982   4.478  16.967  0.00  0.00    +0.000 C 
ATOM      9  S   UNL     1       4.971   6.928  17.716  0.00  0.00    +0.000 S 
ATOM     10  C   UNL     1       3.283   6.279  17.468  0.00  0.00    +0.000 C 
ENDROOT
BRANCH   1  13
ATOM     11  C   UNL     1       1.374   9.251  18.666  0.00  0.00    +0.000 C 
ATOM     12  O   UNL     1       0.546   9.230  17.760  0.00  0.00    +0.000 OA
ATOM     13  N   UNL     1       2.202   8.171  18.928  0.00  0.00    +0.000 N 
ATOM     14  H   UNL     1       2.707   8.257  19.813  0.00  0.00    +0.000 HD
BRANCH  11  15
ATOM     15  CA  UNL     1       1.632  10.484  19.582  0.00  0.00    +0.000 C 
BRANCH  15  16
ATOM     16  C   UNL     1       0.791  10.433  20.850  0.00  0.00    +0.000 A 
ATOM     17  C   UNL     1       0.808   9.303  21.680  0.00  0.00    +0.000 A 
ATOM     18  C   UNL     1      -0.015   9.242  22.812  0.00  0.00    +0.000 A 
ATOM     19  C   UNL     1      -0.862  10.302  23.126  0.00  0.00    +0.000 A 
ATOM     20  C   UNL     1      -0.858  11.443  22.336  0.00  0.00    +0.000 A 
ATOM     21  C   UNL     1      -0.019  11.514  21.227  0.00  0.00    +0.000 A 
ENDBRANCH  15  16
BRANCH  15  23
ATOM     22  C   UNL     1       2.393  12.222  18.229  0.00  0.00    +0.000 C 
ATOM     23  N   UNL     1       1.347  11.703  18.773  0.00  0.00    +0.000 NA
ENDBRANCH  15  23
ENDBRANCH  11  15
ENDBRANCH   1  13
BRANCH   5  24
ATOM     24  C   UNL     1       4.504   3.193  19.317  0.00  0.00    +0.000 C 
ATOM     25  O   UNL     1       5.179   2.669  20.191  0.00  0.00    +0.000 OA
BRANCH  24  26
ATOM     26  OXT UNL     1       3.606   2.476  18.596  0.00  0.00    +0.000 OA
ATOM     27  HXT UNL     1       3.947   2.210  17.713  0.00  0.00    +0.000 HD
ENDBRANCH  24  26
ENDBRANCH   5  24
TORSDOF 6
ENDMDL
MODEL 4
REMARK VINA RESULT:      -6.6      0.689      1.311
REMARK  Name = 
REMARK  8 active torsions:
REMARK  status: ('A' for Active; 'I' for Inactive)
REMARK    1  A    between atoms: N_2  and  CA_3
REMARK    2  A    between atoms: CA_3  and  C_4
REMARK    3  A    between atoms: CA_3  and  C_20
REMARK    4  A    between atoms: N_6  and  CA_7
REMARK    5  A    between atoms: CA_11  and  C_12
REMARK    6  A    between atoms: C_12  and  OXT_14
REMARK    7  A    between atoms: C_15  and  C_16
REMARK    8  A    between atoms: C_15  and  C_17
REMARK                            x       y       z     vdW  Elec       q    Type
REMARK                         _______ _______ _______ _____ _____    ______ ____
ROOT
ATOM      1  CA  UNL     1       3.938   5.602  17.431  0.00  0.00    +0.000 C 
ATOM      2  C   UNL     1       4.130   5.450  18.961  0.00  0.00    +0.000 C 
ATOM      3  O   UNL     1       4.972   5.653  19.803  0.00  0.00    +0.000 OA
ATOM      4  N   UNL     1       2.949   4.782  19.117  0.00  0.00    +0.000 N 
ATOM      5  CA  UNL     1       2.959   3.489  19.819  0.00  0.00    +0.000 C 
ATOM      6  C   UNL     1       2.134   2.502  18.980  0.00  0.00    +0.000 C 
ATOM      7  C   UNL     1       2.551   1.046  19.208  0.00  0.00    +0.000 C 
ATOM      8  C   UNL     1       0.614   2.650  19.127  0.00  0.00    +0.000 C 
ATOM      9  S   UNL     1       2.598   2.986  17.246  0.00  0.00    +0.000 S 
ATOM     10  C   UNL     1       2.656   4.763  17.662  0.00  0.00    +0.000 C 
ENDROOT
BRANCH   1  13
ATOM     11  C   UNL     1       5.731   5.846  15.689  0.00  0.00    +0.000 C 
ATOM     12  O   UNL     1       5.412   7.007  15.449  0.00  0.00    +0.000 OA
ATOM     13  N   UNL     1       5.034   5.065  16.597  0.00  0.00    +0.000 N 
ATOM     14  H   UNL     1       5.513   4.193  16.829  0.00  0.00    +0.000 HD
BRANCH  11  15
ATOM     15  CA  UNL     1       6.901   5.100  14.980  0.00  0.00    +0.000 C 
BRANCH  15  16
ATOM     16  C   UNL     1       6.421   4.317  13.766  0.00  0.00    +0.000 A 
ATOM     17  C   UNL     1       7.323   3.896  12.779  0.00  0.00    +0.000 A 
ATOM     18  C   UNL     1       6.864   3.228  11.636  0.00  0.00    +0.000 A 
ATOM     19  C   UNL     1       5.504   2.976  11.465  0.00  0.00    +0.000 A 
ATOM     20  C   UNL     1       4.606   3.351  12.455  0.00  0.00    +0.000 A 
ATOM     21  C   UNL     1       5.067   3.990  13.604  0.00  0.00    +0.000 A 
ENDBRANCH  15  16
BRANCH  15  23
ATOM     22  C   UNL     1       7.625   4.746  17.167  0.00  0.00    +0.000 C 
ATOM     23  N   UNL     1       7.539   4.215  15.997  0.00  0.00    +0.000 NA
ENDBRANCH  15  23
ENDBRANCH  11  15
ENDBRANCH   1  13
BRANCH   5  24
ATOM     24  C   UNL     1       2.549   3.627  21.286  0.00  0.00    +0.000 C 
ATOM     25  O   UNL     1       1.977   4.599  21.756  0.00  0.00    +0.000 OA
BRANCH  24  26
ATOM     26  OXT UNL     1       2.741   2.500  22.018  0.00  0.00    +0.000 OA
ATOM     27  HXT UNL     1       2.272   2.519  22.882  0.00  0.00    +0.000 HD
ENDBRANCH  24  26
ENDBRANCH   5  24
TORSDOF 6
ENDMDL
MODEL 5
REMARK VINA RESULT:      -6.5     10.026     11.760
REMARK  Name = 
REMARK  8 active torsions:
REMARK  status: ('A' for Active; 'I' for Inactive)
REMARK    1  A    between atoms: N_2  and  CA_3
REMARK    2  A    between atoms: CA_3  and  C_4
REMARK    3  A    between atoms: CA_3  and  C_20
REMARK    4  A    between atoms: N_6  and  CA_7
REMARK    5  A    between atoms: CA_11  and  C_12
REMARK    6  A    between atoms: C_12  and  OXT_14
REMARK    7  A    between atoms: C_15  and  C_16
REMARK    8  A    between atoms: C_15  and  C_17
REMARK                            x       y       z     vdW  Elec       q    Type
REMARK                         _______ _______ _______ _____ _____    ______ ____
ROOT
ATOM      1  CA  UNL     1      -0.864  13.662  22.696  0.00  0.00    +0.000 C 
ATOM      2  C   UNL     1      -1.814  12.556  23.220  0.00  0.00    +0.000 C 
ATOM      3  O   UNL     1      -1.931  11.354  23.178  0.00  0.00    +0.000 OA
ATOM      4  N   UNL     1      -2.715  13.458  23.708  0.00  0.00    +0.000 N 
ATOM      5  CA  UNL     1      -4.125  13.330  23.309  0.00  0.00    +0.000 C 
ATOM      6  C   UNL     1      -4.617  14.725  22.899  0.00  0.00    +0.000 C 
ATOM      7  C   UNL     1      -5.783  14.667  21.906  0.00  0.00    +0.000 C 
ATOM      8  C   UNL     1      -4.960  15.655  24.069  0.00  0.00    +0.000 C 
ATOM      9  S   UNL     1      -3.130  15.418  22.025  0.00  0.00    +0.000 S 
ATOM     10  C   UNL     1      -1.967  14.631  23.191  0.00  0.00    +0.000 C 
ENDROOT
BRANCH   1  13
ATOM     11  C   UNL     1       0.496  12.800  20.768  0.00  0.00    +0.000 C 
ATOM     12  O   UNL     1       1.263  12.196  21.511  0.00  0.00    +0.000 OA
ATOM     13  N   UNL     1      -0.534  13.587  21.257  0.00  0.00    +0.000 N 
ATOM     14  H   UNL     1      -1.196  13.878  20.535  0.00  0.00    +0.000 HD
BRANCH  11  15
ATOM     15  CA  UNL     1       0.611  12.804  19.213  0.00  0.00    +0.000 C 
BRANCH  15  16
ATOM     16  C   UNL     1      -0.365  11.827  18.572  0.00  0.00    +0.000 A 
ATOM     17  C   UNL     1      -0.036  10.471  18.429  0.00  0.00    +0.000 A 
ATOM     18  C   UNL     1      -0.915   9.591  17.784  0.00  0.00    +0.000 A 
ATOM     19  C   UNL     1      -2.127  10.053  17.275  0.00  0.00    +0.000 A 
ATOM     20  C   UNL     1      -2.482  11.384  17.446  0.00  0.00    +0.000 A 
ATOM     21  C   UNL     1      -1.619  12.252  18.112  0.00  0.00    +0.000 A 
ENDBRANCH  15  16
BRANCH  15  23
ATOM     22  C   UNL     1       2.635  13.417  18.235  0.00  0.00    +0.000 C 
ATOM     23  N   UNL     1       2.027  12.480  18.875  0.00  0.00    +0.000 NA
ENDBRANCH  15  23
ENDBRANCH  11  15
ENDBRANCH   1  13
BRANCH   5  24
ATOM     24  C   UNL     1      -4.961  12.610  24.370  0.00  0.00    +0.000 C 
ATOM     25  O   UNL     1      -6.009  12.025  24.144  0.00  0.00    +0.000 OA
BRANCH  24  26
ATOM     26  OXT UNL     1      -4.363  12.543  25.586  0.00  0.00    +0.000 OA
ATOM     27  HXT UNL     1      -4.057  13.418  25.912  0.00  0.00    +0.000 HD
ENDBRANCH  24  26
ENDBRANCH   5  24
TORSDOF 6
ENDMDL
MODEL 6
REMARK VINA RESULT:      -6.5      9.291     10.691
REMARK  Name = 
REMARK  8 active torsions:
REMARK  status: ('A' for Active; 'I' for Inactive)
REMARK    1  A    between atoms: N_2  and  CA_3
REMARK    2  A    between atoms: CA_3  and  C_4
REMARK    3  A    between atoms: CA_3  and  C_20
REMARK    4  A    between atoms: N_6  and  CA_7
REMARK    5  A    between atoms: CA_11  and  C_12
REMARK    6  A    between atoms: C_12  and  OXT_14
REMARK    7  A    between atoms: C_15  and  C_16
REMARK    8  A    between atoms: C_15  and  C_17
REMARK                            x       y       z     vdW  Elec       q    Type
REMARK                         _______ _______ _______ _____ _____    ______ ____
ROOT
ATOM      1  CA  UNL     1       6.279  15.952  19.748  0.00  0.00    +0.000 C 
ATOM      2  C   UNL     1       5.588  15.143  20.876  0.00  0.00    +0.000 C 
ATOM      3  O   UNL     1       5.883  14.406  21.787  0.00  0.00    +0.000 OA
ATOM      4  N   UNL     1       4.335  15.415  20.404  0.00  0.00    +0.000 N 
ATOM      5  CA  UNL     1       3.416  14.292  20.164  0.00  0.00    +0.000 C 
ATOM      6  C   UNL     1       2.782  14.502  18.782  0.00  0.00    +0.000 C 
ATOM      7  C   UNL     1       2.328  13.188  18.138  0.00  0.00    +0.000 C 
ATOM      8  C   UNL     1       1.646  15.533  18.746  0.00  0.00    +0.000 C 
ATOM      9  S   UNL     1       4.209  15.179  17.801  0.00  0.00    +0.000 S 
ATOM     10  C   UNL     1       4.837  16.148  19.215  0.00  0.00    +0.000 C 
ENDROOT
BRANCH   1  13
ATOM     11  C   UNL     1       8.634  15.417  19.059  0.00  0.00    +0.000 C 
ATOM     12  O   UNL     1       9.098  16.311  19.761  0.00  0.00    +0.000 OA
ATOM     13  N   UNL     1       7.270  15.204  18.946  0.00  0.00    +0.000 N 
ATOM     14  H   UNL     1       7.037  14.324  18.481  0.00  0.00    +0.000 HD
BRANCH  11  15
ATOM     15  CA  UNL     1       9.499  14.460  18.184  0.00  0.00    +0.000 C 
BRANCH  15  16
ATOM     16  C   UNL     1       9.447  13.026  18.693  0.00  0.00    +0.000 A 
ATOM     17  C   UNL     1       9.780  12.721  20.021  0.00  0.00    +0.000 A 
ATOM     18  C   UNL     1       9.788  11.393  20.464  0.00  0.00    +0.000 A 
ATOM     19  C   UNL     1       9.465  10.356  19.590  0.00  0.00    +0.000 A 
ATOM     20  C   UNL     1       9.094  10.648  18.285  0.00  0.00    +0.000 A 
ATOM     21  C   UNL     1       9.059  11.972  17.854  0.00  0.00    +0.000 A 
ENDBRANCH  15  16
BRANCH  15  23
ATOM     22  C   UNL     1      11.289  15.395  17.022  0.00  0.00    +0.000 C 
ATOM     23  N   UNL     1      10.888  15.000  18.181  0.00  0.00    +0.000 NA
ENDBRANCH  15  23
ENDBRANCH  11  15
ENDBRANCH   1  13
BRANCH   5  24
ATOM     24  C   UNL     1       2.439  14.089  21.325  0.00  0.00    +0.000 C 
ATOM     25  O   UNL     1       1.571  13.230  21.356  0.00  0.00    +0.000 OA
BRANCH  24  26
ATOM     26  OXT UNL     1       2.708  14.860  22.409  0.00  0.00    +0.000 OA
ATOM     27  HXT UNL     1       3.540  14.604  22.865  0.00  0.00    +0.000 HD
ENDBRANCH  24  26
ENDBRANCH   5  24
TORSDOF 6
ENDMDL
MODEL 7
REMARK VINA RESULT:      -6.4      2.097      2.853
REMARK  Name = 
REMARK  8 active torsions:
REMARK  status: ('A' for Active; 'I' for Inactive)
REMARK    1  A    between atoms: N_2  and  CA_3
REMARK    2  A    between atoms: CA_3  and  C_4
REMARK    3  A    between atoms: CA_3  and  C_20
REMARK    4  A    between atoms: N_6  and  CA_7
REMARK    5  A    between atoms: CA_11  and  C_12
REMARK    6  A    between atoms: C_12  and  OXT_14
REMARK    7  A    between atoms: C_15  and  C_16
REMARK    8  A    between atoms: C_15  and  C_17
REMARK                            x       y       z     vdW  Elec       q    Type
REMARK                         _______ _______ _______ _____ _____    ______ ____
ROOT
ATOM      1  CA  UNL     1       4.688   3.000  17.869  0.00  0.00    +0.000 C 
ATOM      2  C   UNL     1       3.207   2.557  17.775  0.00  0.00    +0.000 C 
ATOM      3  O   UNL     1       2.395   2.246  16.936  0.00  0.00    +0.000 OA
ATOM      4  N   UNL     1       2.978   2.784  19.103  0.00  0.00    +0.000 N 
ATOM      5  CA  UNL     1       1.841   3.635  19.485  0.00  0.00    +0.000 C 
ATOM      6  C   UNL     1       2.347   4.637  20.533  0.00  0.00    +0.000 C 
ATOM      7  C   UNL     1       1.521   5.927  20.558  0.00  0.00    +0.000 C 
ATOM      8  C   UNL     1       2.488   4.067  21.950  0.00  0.00    +0.000 C 
ATOM      9  S   UNL     1       4.048   5.036  19.897  0.00  0.00    +0.000 S 
ATOM     10  C   UNL     1       4.341   3.321  19.344  0.00  0.00    +0.000 C 
ENDROOT
BRANCH   1  13
ATOM     11  C   UNL     1       6.376   4.592  16.905  0.00  0.00    +0.000 C 
ATOM     12  O   UNL     1       7.241   4.237  17.700  0.00  0.00    +0.000 OA
ATOM     13  N   UNL     1       5.086   4.086  16.948  0.00  0.00    +0.000 N 
ATOM     14  H   UNL     1       4.531   4.328  16.126  0.00  0.00    +0.000 HD
BRANCH  11  15
ATOM     15  CA  UNL     1       6.595   5.671  15.802  0.00  0.00    +0.000 C 
BRANCH  15  16
ATOM     16  C   UNL     1       6.791   5.044  14.429  0.00  0.00    +0.000 A 
ATOM     17  C   UNL     1       7.761   5.538  13.544  0.00  0.00    +0.000 A 
ATOM     18  C   UNL     1       7.894   4.994  12.260  0.00  0.00    +0.000 A 
ATOM     19  C   UNL     1       7.063   3.956  11.845  0.00  0.00    +0.000 A 
ATOM     20  C   UNL     1       6.127   3.430  12.725  0.00  0.00    +0.000 A 
ATOM     21  C   UNL     1       6.015   3.953  14.011  0.00  0.00    +0.000 A 
ENDBRANCH  15  16
BRANCH  15  23
ATOM     22  C   UNL     1       7.513   7.335  17.150  0.00  0.00    +0.000 C 
ATOM     23  N   UNL     1       7.771   6.489  16.214  0.00  0.00    +0.000 NA
ENDBRANCH  15  23
ENDBRANCH  11  15
ENDBRANCH   1  13
BRANCH   5  24
ATOM     24  C   UNL     1       0.614   2.812  19.882  0.00  0.00    +0.000 C 
ATOM     25  O   UNL     1      -0.136   2.261  19.090  0.00  0.00    +0.000 OA
BRANCH  24  26
ATOM     26  OXT UNL     1       0.497   2.612  21.219  0.00  0.00    +0.000 OA
ATOM     27  HXT UNL     1       0.502   3.449  21.735  0.00  0.00    +0.000 HD
ENDBRANCH  24  26
ENDBRANCH   5  24
TORSDOF 6
ENDMDL
MODEL 8
REMARK VINA RESULT:      -6.4     10.637     12.374
REMARK  Name = 
REMARK  8 active torsions:
REMARK  status: ('A' for Active; 'I' for Inactive)
REMARK    1  A    between atoms: N_2  and  CA_3
REMARK    2  A    between atoms: CA_3  and  C_4
REMARK    3  A    between atoms: CA_3  and  C_20
REMARK    4  A    between atoms: N_6  and  CA_7
REMARK    5  A    between atoms: CA_11  and  C_12
REMARK    6  A    between atoms: C_12  and  OXT_14
REMARK    7  A    between atoms: C_15  and  C_16
REMARK    8  A    between atoms: C_15  and  C_17
REMARK                            x       y       z     vdW  Elec       q    Type
REMARK                         _______ _______ _______ _____ _____    ______ ____
ROOT
ATOM      1  CA  UNL     1      -3.032  13.582  22.336  0.00  0.00    +0.000 C 
ATOM      2  C   UNL     1      -3.883  12.739  23.319  0.00  0.00    +0.000 C 
ATOM      3  O   UNL     1      -3.759  11.791  24.058  0.00  0.00    +0.000 OA
ATOM      4  N   UNL     1      -5.044  13.367  22.968  0.00  0.00    +0.000 N 
ATOM      5  CA  UNL     1      -6.193  12.544  22.561  0.00  0.00    +0.000 C 
ATOM      6  C   UNL     1      -6.768  13.157  21.276  0.00  0.00    +0.000 C 
ATOM      7  C   UNL     1      -7.507  12.128  20.415  0.00  0.00    +0.000 C 
ATOM      8  C   UNL     1      -7.643  14.398  21.492  0.00  0.00    +0.000 C 
ATOM      9  S   UNL     1      -5.228  13.683  20.377  0.00  0.00    +0.000 S 
ATOM     10  C   UNL     1      -4.394  14.192  21.919  0.00  0.00    +0.000 C 
ENDROOT
BRANCH   1  13
ATOM     11  C   UNL     1      -1.446  13.412  20.395  0.00  0.00    +0.000 C 
ATOM     12  O   UNL     1      -1.438  14.628  20.229  0.00  0.00    +0.000 OA
ATOM     13  N   UNL     1      -2.237  12.808  21.360  0.00  0.00    +0.000 N 
ATOM     14  H   UNL     1      -2.009  11.823  21.507  0.00  0.00    +0.000 HD
BRANCH  11  15
ATOM     15  CA  UNL     1      -0.627  12.409  19.529  0.00  0.00    +0.000 C 
BRANCH  15  16
ATOM     16  C   UNL     1      -1.527  11.570  18.632  0.00  0.00    +0.000 A 
ATOM     17  C   UNL     1      -1.059  10.383  18.050  0.00  0.00    +0.000 A 
ATOM     18  C   UNL     1      -1.874   9.649  17.179  0.00  0.00    +0.000 A 
ATOM     19  C   UNL     1      -3.161  10.090  16.879  0.00  0.00    +0.000 A 
ATOM     20  C   UNL     1      -3.652  11.241  17.481  0.00  0.00    +0.000 A 
ATOM     21  C   UNL     1      -2.850  11.954  18.368  0.00  0.00    +0.000 A 
ENDBRANCH  15  16
BRANCH  15  23
ATOM     22  C   UNL     1       1.384  11.963  20.618  0.00  0.00    +0.000 C 
ATOM     23  N   UNL     1       0.169  11.565  20.465  0.00  0.00    +0.000 NA
ENDBRANCH  15  23
ENDBRANCH  11  15
ENDBRANCH   1  13
BRANCH   5  24
ATOM     24  C   UNL     1      -7.187  12.337  23.706  0.00  0.00    +0.000 C 
ATOM     25  O   UNL     1      -7.917  11.363  23.821  0.00  0.00    +0.000 OA
BRANCH  24  26
ATOM     26  OXT UNL     1      -7.093  13.267  24.689  0.00  0.00    +0.000 OA
ATOM     27  HXT UNL     1      -6.285  13.164  25.240  0.00  0.00    +0.000 HD
ENDBRANCH  24  26
ENDBRANCH   5  24
TORSDOF 6
ENDMDL
MODEL 9
REMARK VINA RESULT:      -6.2     10.325     12.042
REMARK  Name = 
REMARK  8 active torsions:
REMARK  status: ('A' for Active; 'I' for Inactive)
REMARK    1  A    between atoms: N_2  and  CA_3
REMARK    2  A    between atoms: CA_3  and  C_4
REMARK    3  A    between atoms: CA_3  and  C_20
REMARK    4  A    between atoms: N_6  and  CA_7
REMARK    5  A    between atoms: CA_11  and  C_12
REMARK    6  A    between atoms: C_12  and  OXT_14
REMARK    7  A    between atoms: C_15  and  C_16
REMARK    8  A    between atoms: C_15  and  C_17
REMARK                            x       y       z     vdW  Elec       q    Type
REMARK                         _______ _______ _______ _____ _____    ______ ____
ROOT
ATOM      1  CA  UNL     1      -1.123  13.847  22.949  0.00  0.00    +0.000 C 
ATOM      2  C   UNL     1      -2.053  12.689  23.390  0.00  0.00    +0.000 C 
ATOM      3  O   UNL     1      -2.103  11.483  23.337  0.00  0.00    +0.000 OA
ATOM      4  N   UNL     1      -3.039  13.540  23.802  0.00  0.00    +0.000 N 
ATOM      5  CA  UNL     1      -4.402  13.339  23.286  0.00  0.00    +0.000 C 
ATOM      6  C   UNL     1      -4.932  14.708  22.838  0.00  0.00    +0.000 C 
ATOM      7  C   UNL     1      -6.006  14.595  21.752  0.00  0.00    +0.000 C 
ATOM      8  C   UNL     1      -5.420  15.612  23.977  0.00  0.00    +0.000 C 
ATOM      9  S   UNL     1      -3.415  15.484  22.093  0.00  0.00    +0.000 S 
ATOM     10  C   UNL     1      -2.313  14.753  23.351  0.00  0.00    +0.000 C 
ENDROOT
BRANCH   1  13
ATOM     11  C   UNL     1       0.668  13.831  21.187  0.00  0.00    +0.000 C 
ATOM     12  O   UNL     1       1.557  14.005  22.016  0.00  0.00    +0.000 OA
ATOM     13  N   UNL     1      -0.671  13.798  21.542  0.00  0.00    +0.000 N 
ATOM     14  H   UNL     1      -1.279  13.467  20.790  0.00  0.00    +0.000 HD
BRANCH  11  15
ATOM     15  CA  UNL     1       0.920  13.680  19.657  0.00  0.00    +0.000 C 
BRANCH  15  16
ATOM     16  C   UNL     1       0.159  12.499  19.071  0.00  0.00    +0.000 A 
ATOM     17  C   UNL     1      -0.972  12.699  18.267  0.00  0.00    +0.000 A 
ATOM     18  C   UNL     1      -1.701  11.606  17.782  0.00  0.00    +0.000 A 
ATOM     19  C   UNL     1      -1.312  10.305  18.094  0.00  0.00    +0.000 A 
ATOM     20  C   UNL     1      -0.170  10.092  18.855  0.00  0.00    +0.000 A 
ATOM     21  C   UNL     1       0.569  11.180  19.313  0.00  0.00    +0.000 A 
ENDBRANCH  15  16
BRANCH  15  23
ATOM     22  C   UNL     1       2.842  14.176  18.436  0.00  0.00    +0.000 C 
ATOM     23  N   UNL     1       2.393  13.544  19.464  0.00  0.00    +0.000 NA
ENDBRANCH  15  23
ENDBRANCH  11  15
ENDBRANCH   1  13
BRANCH   5  24
ATOM     24  C   UNL     1      -5.283  12.570  24.273  0.00  0.00    +0.000 C 
ATOM     25  O   UNL     1      -6.412  12.172  24.026  0.00  0.00    +0.000 OA
BRANCH  24  26
ATOM     26  OXT UNL     1      -4.650  12.225  25.422  0.00  0.00    +0.000 OA
ATOM     27  HXT UNL     1      -3.670  12.259  25.345  0.00  0.00    +0.000 HD
ENDBRANCH  24  26
ENDBRANCH   5  24
TORSDOF 6
ENDMDL
