MODEL 1
REMARK VINA RESULT:      -7.9      0.000      0.000
REMARK  Name = 
REMARK  8 active torsions:
REMARK  status: ('A' for Active; 'I' for Inactive)
REMARK    1  A    between atoms: C_1  and  N_2
REMARK    2  A    between atoms: N_2  and  C_3
REMARK    3  A    between atoms: C_3  and  C_4
REMARK    4  A    between atoms: C_4  and  C_5
REMARK    5  A    between atoms: C_21  and  C_23
REMARK    6  A    between atoms: C_23  and  C_24
REMARK    7  A    between atoms: C_24  and  C_25
REMARK    8  A    between atoms: C_25  and  N_26
REMARK                            x       y       z     vdW  Elec       q    Type
REMARK                         _______ _______ _______ _____ _____    ______ ____
ROOT
ATOM      1  C   UNL     1       2.528   6.763  18.763  0.00  0.00    +0.000 C 
ATOM      2  C   UNL     1       3.227   5.613  18.888  0.00  0.00    +0.000 C 
ATOM      3  C   UNL     1       2.601   4.491  19.621  0.00  0.00    +0.000 A 
ATOM      4  C   UNL     1       2.315   4.663  20.989  0.00  0.00    +0.000 A 
ATOM      5  C   UNL     1       1.867   3.597  21.763  0.00  0.00    +0.000 A 
ATOM      6  C   UNL     1       1.697   2.348  21.177  0.00  0.00    +0.000 A 
ATOM      7  C   UNL     1       1.964   2.169  19.818  0.00  0.00    +0.000 A 
ATOM      8  C   UNL     1       2.421   3.231  19.013  0.00  0.00    +0.000 A 
ATOM      9  C   UNL     1       2.741   2.894  17.561  0.00  0.00    +0.000 C 
ATOM     10  C   UNL     1       3.152   4.001  16.568  0.00  0.00    +0.000 C 
ATOM     11  C   UNL     1       4.450   4.656  16.979  0.00  0.00    +0.000 A 
ATOM     12  C   UNL     1       5.621   4.500  16.231  0.00  0.00    +0.000 A 
ATOM     13  C   UNL     1       6.833   4.990  16.722  0.00  0.00    +0.000 A 
ATOM     14  C   UNL     1       6.886   5.592  17.980  0.00  0.00    +0.000 A 
ATOM     15  C   UNL     1       5.720   5.789  18.712  0.00  0.00    +0.000 A 
ATOM     16  C   UNL     1       4.494   5.382  18.179  0.00  0.00    +0.000 A 
ENDROOT
BRANCH   1  17
ATOM     17  C   UNL     1       2.848   8.047  18.030  0.00  0.00    +0.000 C 
BRANCH  17  18
ATOM     18  C   UNL     1       1.668   8.986  17.729  0.00  0.00    +0.000 C 
BRANCH  18  20
ATOM     19  C   UNL     1       2.402  11.391  17.968  0.00  0.00    +0.000 C 
ATOM     20  N   UNL     1       1.585  10.281  18.409  0.00  0.00    +0.000 N 
ATOM     21  C   UNL     1       1.016  10.422  19.688  0.00  0.00    +0.000 C 
ATOM     22  O   UNL     1       1.247  11.386  20.386  0.00  0.00    +0.000 OA
BRANCH  21  23
ATOM     23  C   UNL     1       0.147   9.265  20.192  0.00  0.00    +0.000 C 
BRANCH  23  24
ATOM     24  C   UNL     1       0.531   8.773  21.591  0.00  0.00    +0.000 C 
BRANCH  24  25
ATOM     25  C   UNL     1      -0.465   9.217  22.663  0.00  0.00    +0.000 C 
BRANCH  25  26
ATOM     26  N   UNL     1      -0.198  10.590  23.084  0.00  0.00    +0.000 NA
ATOM     27  H   UNL     1      -0.219  10.648  24.101  0.00  0.00    +0.000 HD
ATOM     28  H   UNL     1      -0.952  11.194  22.760  0.00  0.00    +0.000 HD
ENDBRANCH  25  26
ENDBRANCH  24  25
ENDBRANCH  23  24
ENDBRANCH  21  23
ENDBRANCH  18  20
ENDBRANCH  17  18
ENDBRANCH   1  17
TORSDOF 7
ENDMDL
MODEL 2
REMARK VINA RESULT:      -7.6      1.094      4.015
REMARK  Name = 
REMARK  8 active torsions:
REMARK  status: ('A' for Active; 'I' for Inactive)
REMARK    1  A    between atoms: C_1  and  N_2
REMARK    2  A    between atoms: N_2  and  C_3
REMARK    3  A    between atoms: C_3  and  C_4
REMARK    4  A    between atoms: C_4  and  C_5
REMARK    5  A    between atoms: C_21  and  C_23
REMARK    6  A    between atoms: C_23  and  C_24
REMARK    7  A    between atoms: C_24  and  C_25
REMARK    8  A    between atoms: C_25  and  N_26
REMARK                            x       y       z     vdW  Elec       q    Type
REMARK                         _______ _______ _______ _____ _____    ______ ____
ROOT
ATOM      1  C   UNL     1       3.401   7.338  17.794  0.00  0.00    +0.000 C 
ATOM      2  C   UNL     1       3.676   6.028  17.605  0.00  0.00    +0.000 C 
ATOM      3  C   UNL     1       4.888   5.673  16.837  0.00  0.00    +0.000 A 
ATOM      4  C   UNL     1       4.959   6.056  15.484  0.00  0.00    +0.000 A 
ATOM      5  C   UNL     1       6.003   5.621  14.673  0.00  0.00    +0.000 A 
ATOM      6  C   UNL     1       6.990   4.802  15.207  0.00  0.00    +0.000 A 
ATOM      7  C   UNL     1       6.938   4.426  16.551  0.00  0.00    +0.000 A 
ATOM      8  C   UNL     1       5.890   4.850  17.392  0.00  0.00    +0.000 A 
ATOM      9  C   UNL     1       5.910   4.319  18.822  0.00  0.00    +0.000 C 
ATOM     10  C   UNL     1       4.868   4.800  19.854  0.00  0.00    +0.000 C 
ATOM     11  C   UNL     1       3.467   4.407  19.446  0.00  0.00    +0.000 A 
ATOM     12  C   UNL     1       2.731   3.458  20.162  0.00  0.00    +0.000 A 
ATOM     13  C   UNL     1       1.505   3.009  19.668  0.00  0.00    +0.000 A 
ATOM     14  C   UNL     1       1.035   3.468  18.437  0.00  0.00    +0.000 A 
ATOM     15  C   UNL     1       1.739   4.443  17.738  0.00  0.00    +0.000 A 
ATOM     16  C   UNL     1       2.920   4.961  18.278  0.00  0.00    +0.000 A 
ENDROOT
BRANCH   1  17
ATOM     17  C   UNL     1       2.300   8.020  18.576  0.00  0.00    +0.000 C 
BRANCH  17  18
ATOM     18  C   UNL     1       1.543   9.153  17.862  0.00  0.00    +0.000 C 
BRANCH  18  20
ATOM     19  C   UNL     1       2.407  11.521  18.024  0.00  0.00    +0.000 C 
ATOM     20  N   UNL     1       1.500  10.486  18.470  0.00  0.00    +0.000 N 
ATOM     21  C   UNL     1       0.867  10.728  19.703  0.00  0.00    +0.000 C 
ATOM     22  O   UNL     1       1.116  11.714  20.364  0.00  0.00    +0.000 OA
BRANCH  21  23
ATOM     23  C   UNL     1      -0.098   9.652  20.211  0.00  0.00    +0.000 C 
BRANCH  23  24
ATOM     24  C   UNL     1       0.374   8.960  21.492  0.00  0.00    +0.000 C 
BRANCH  24  25
ATOM     25  C   UNL     1      -0.474   9.334  22.708  0.00  0.00    +0.000 C 
BRANCH  25  26
ATOM     26  N   UNL     1      -0.292  10.741  23.055  0.00  0.00    +0.000 NA
ATOM     27  H   UNL     1       0.344  10.819  23.849  0.00  0.00    +0.000 HD
ATOM     28  H   UNL     1      -1.179  11.126  23.377  0.00  0.00    +0.000 HD
ENDBRANCH  25  26
ENDBRANCH  24  25
ENDBRANCH  23  24
ENDBRANCH  21  23
ENDBRANCH  18  20
ENDBRANCH  17  18
ENDBRANCH   1  17
TORSDOF 7
ENDMDL
MODEL 3
REMARK VINA RESULT:      -7.5      2.235      4.678
REMARK  Name = 
REMARK  8 active torsions:
REMARK  status: ('A' for Active; 'I' for Inactive)
REMARK    1  A    between atoms: C_1  and  N_2
REMARK    2  A    between atoms: N_2  and  C_3
REMARK    3  A    between atoms: C_3  and  C_4
REMARK    4  A    between atoms: C_4  and  C_5
REMARK    5  A    between atoms: C_21  and  C_23
REMARK    6  A    between atoms: C_23  and  C_24
REMARK    7  A    between atoms: C_24  and  C_25
REMARK    8  A    between atoms: C_25  and  N_26
REMARK                            x       y       z     vdW  Elec       q    Type
REMARK                         _______ _______ _______ _____ _____    ______ ____
ROOT
ATOM      1  C   UNL     1       3.206   7.362  17.737  0.00  0.00    +0.000 C 
ATOM      2  C   UNL     1       3.523   6.053  17.622  0.00  0.00    +0.000 C 
ATOM      3  C   UNL     1       4.800   5.698  16.967  0.00  0.00    +0.000 A 
ATOM      4  C   UNL     1       4.972   6.031  15.610  0.00  0.00    +0.000 A 
ATOM      5  C   UNL     1       6.086   5.592  14.902  0.00  0.00    +0.000 A 
ATOM      6  C   UNL     1       7.043   4.816  15.545  0.00  0.00    +0.000 A 
ATOM      7  C   UNL     1       6.891   4.490  16.894  0.00  0.00    +0.000 A 
ATOM      8  C   UNL     1       5.771   4.920  17.632  0.00  0.00    +0.000 A 
ATOM      9  C   UNL     1       5.685   4.443  19.078  0.00  0.00    +0.000 C 
ATOM     10  C   UNL     1       4.554   4.938  20.004  0.00  0.00    +0.000 C 
ATOM     11  C   UNL     1       3.199   4.498  19.502  0.00  0.00    +0.000 A 
ATOM     12  C   UNL     1       2.427   3.559  20.193  0.00  0.00    +0.000 A 
ATOM     13  C   UNL     1       1.254   3.063  19.621  0.00  0.00    +0.000 A 
ATOM     14  C   UNL     1       0.876   3.465  18.340  0.00  0.00    +0.000 A 
ATOM     15  C   UNL     1       1.614   4.429  17.662  0.00  0.00    +0.000 A 
ATOM     16  C   UNL     1       2.737   4.994  18.273  0.00  0.00    +0.000 A 
ENDROOT
BRANCH   1  17
ATOM     17  C   UNL     1       2.032   8.047  18.401  0.00  0.00    +0.000 C 
BRANCH  17  18
ATOM     18  C   UNL     1       1.629   9.424  17.846  0.00  0.00    +0.000 C 
BRANCH  18  20
ATOM     19  C   UNL     1       1.288  10.917  19.854  0.00  0.00    +0.000 C 
ATOM     20  N   UNL     1       0.775  10.303  18.649  0.00  0.00    +0.000 N 
ATOM     21  C   UNL     1      -0.625  10.315  18.514  0.00  0.00    +0.000 C 
ATOM     22  O   UNL     1      -1.345  10.763  19.381  0.00  0.00    +0.000 OA
BRANCH  21  23
ATOM     23  C   UNL     1      -1.207   9.669  17.252  0.00  0.00    +0.000 C 
BRANCH  23  24
ATOM     24  C   UNL     1      -2.732   9.768  17.160  0.00  0.00    +0.000 C 
BRANCH  24  25
ATOM     25  C   UNL     1      -3.198  11.073  16.512  0.00  0.00    +0.000 C 
BRANCH  25  26
ATOM     26  N   UNL     1      -3.687  12.008  17.522  0.00  0.00    +0.000 NA
ATOM     27  H   UNL     1      -4.284  11.515  18.186  0.00  0.00    +0.000 HD
ATOM     28  H   UNL     1      -4.288  12.700  17.077  0.00  0.00    +0.000 HD
ENDBRANCH  25  26
ENDBRANCH  24  25
ENDBRANCH  23  24
ENDBRANCH  21  23
ENDBRANCH  18  20
ENDBRANCH  17  18
ENDBRANCH   1  17
TORSDOF 7
ENDMDL
MODEL 4
REMARK VINA RESULT:      -7.3      1.804      2.548
REMARK  Name = 
REMARK  8 active torsions:
REMARK  status: ('A' for Active; 'I' for Inactive)
REMARK    1  A    between atoms: C_1  and  N_2
REMARK    2  A    between atoms: N_2  and  C_3
REMARK    3  A    between atoms: C_3  and  C_4
REMARK    4  A    between atoms: C_4  and  C_5
REMARK    5  A    between atoms: C_21  and  C_23
REMARK    6  A    between atoms: C_23  and  C_24
REMARK    7  A    between atoms: C_24  and  C_25
REMARK    8  A    between atoms: C_25  and  N_26
REMARK                            x       y       z     vdW  Elec       q    Type
REMARK                         _______ _______ _______ _____ _____    ______ ____
ROOT
ATOM      1  C   UNL     1       2.565   6.625  18.687  0.00  0.00    +0.000 C 
ATOM      2  C   UNL     1       3.269   5.484  18.857  0.00  0.00    +0.000 C 
ATOM      3  C   UNL     1       2.634   4.376  19.601  0.00  0.00    +0.000 A 
ATOM      4  C   UNL     1       2.312   4.577  20.956  0.00  0.00    +0.000 A 
ATOM      5  C   UNL     1       1.852   3.527  21.745  0.00  0.00    +0.000 A 
ATOM      6  C   UNL     1       1.706   2.263  21.185  0.00  0.00    +0.000 A 
ATOM      7  C   UNL     1       2.010   2.054  19.839  0.00  0.00    +0.000 A 
ATOM      8  C   UNL     1       2.479   3.100  19.020  0.00  0.00    +0.000 A 
ATOM      9  C   UNL     1       2.838   2.730  17.584  0.00  0.00    +0.000 C 
ATOM     10  C   UNL     1       3.265   3.817  16.575  0.00  0.00    +0.000 C 
ATOM     11  C   UNL     1       4.548   4.492  17.003  0.00  0.00    +0.000 A 
ATOM     12  C   UNL     1       5.739   4.327  16.289  0.00  0.00    +0.000 A 
ATOM     13  C   UNL     1       6.933   4.838  16.798  0.00  0.00    +0.000 A 
ATOM     14  C   UNL     1       6.951   5.471  18.042  0.00  0.00    +0.000 A 
ATOM     15  C   UNL     1       5.765   5.676  18.739  0.00  0.00    +0.000 A 
ATOM     16  C   UNL     1       4.555   5.247  18.185  0.00  0.00    +0.000 A 
ENDROOT
BRANCH   1  17
ATOM     17  C   UNL     1       2.894   7.894  17.931  0.00  0.00    +0.000 C 
BRANCH  17  18
ATOM     18  C   UNL     1       1.803   8.978  17.888  0.00  0.00    +0.000 C 
BRANCH  18  20
ATOM     19  C   UNL     1       1.611   8.887  20.405  0.00  0.00    +0.000 C 
ATOM     20  N   UNL     1       1.134   9.377  19.130  0.00  0.00    +0.000 N 
ATOM     21  C   UNL     1      -0.159   9.930  19.140  0.00  0.00    +0.000 C 
ATOM     22  O   UNL     1      -0.839   9.939  20.144  0.00  0.00    +0.000 OA
BRANCH  21  23
ATOM     23  C   UNL     1      -0.700  10.455  17.806  0.00  0.00    +0.000 C 
BRANCH  23  24
ATOM     24  C   UNL     1      -2.197  10.199  17.608  0.00  0.00    +0.000 C 
BRANCH  24  25
ATOM     25  C   UNL     1      -2.583  10.084  16.133  0.00  0.00    +0.000 C 
BRANCH  25  26
ATOM     26  N   UNL     1      -3.100  11.354  15.631  0.00  0.00    +0.000 NA
ATOM     27  H   UNL     1      -2.873  12.100  16.288  0.00  0.00    +0.000 HD
ATOM     28  H   UNL     1      -4.118  11.315  15.602  0.00  0.00    +0.000 HD
ENDBRANCH  25  26
ENDBRANCH  24  25
ENDBRANCH  23  24
ENDBRANCH  21  23
ENDBRANCH  18  20
ENDBRANCH  17  18
ENDBRANCH   1  17
TORSDOF 7
ENDMDL
MODEL 5
REMARK VINA RESULT:      -7.2      3.504      6.698
REMARK  Name = 
REMARK  8 active torsions:
REMARK  status: ('A' for Active; 'I' for Inactive)
REMARK    1  A    between atoms: C_1  and  N_2
REMARK    2  A    between atoms: N_2  and  C_3
REMARK    3  A    between atoms: C_3  and  C_4
REMARK    4  A    between atoms: C_4  and  C_5
REMARK    5  A    between atoms: C_21  and  C_23
REMARK    6  A    between atoms: C_23  and  C_24
REMARK    7  A    between atoms: C_24  and  C_25
REMARK    8  A    between atoms: C_25  and  N_26
REMARK                            x       y       z     vdW  Elec       q    Type
REMARK                         _______ _______ _______ _____ _____    ______ ____
ROOT
ATOM      1  C   UNL     1       4.246   6.293  17.945  0.00  0.00    +0.000 C 
ATOM      2  C   UNL     1       2.930   6.248  18.253  0.00  0.00    +0.000 C 
ATOM      3  C   UNL     1       2.318   4.927  18.511  0.00  0.00    +0.000 A 
ATOM      4  C   UNL     1       2.276   3.992  17.459  0.00  0.00    +0.000 A 
ATOM      5  C   UNL     1       1.582   2.794  17.597  0.00  0.00    +0.000 A 
ATOM      6  C   UNL     1       0.925   2.516  18.789  0.00  0.00    +0.000 A 
ATOM      7  C   UNL     1       0.971   3.429  19.844  0.00  0.00    +0.000 A 
ATOM      8  C   UNL     1       1.664   4.650  19.729  0.00  0.00    +0.000 A 
ATOM      9  C   UNL     1       1.585   5.592  20.927  0.00  0.00    +0.000 C 
ATOM     10  C   UNL     1       2.389   6.909  20.947  0.00  0.00    +0.000 C 
ATOM     11  C   UNL     1       1.943   7.843  19.846  0.00  0.00    +0.000 A 
ATOM     12  C   UNL     1       1.279   9.042  20.124  0.00  0.00    +0.000 A 
ATOM     13  C   UNL     1       0.747   9.802  19.080  0.00  0.00    +0.000 A 
ATOM     14  C   UNL     1       0.833   9.344  17.765  0.00  0.00    +0.000 A 
ATOM     15  C   UNL     1       1.528   8.174  17.476  0.00  0.00    +0.000 A 
ATOM     16  C   UNL     1       2.141   7.462  18.511  0.00  0.00    +0.000 A 
ENDROOT
BRANCH   1  17
ATOM     17  C   UNL     1       5.170   7.465  17.697  0.00  0.00    +0.000 C 
BRANCH  17  18
ATOM     18  C   UNL     1       6.668   7.148  17.550  0.00  0.00    +0.000 C 
BRANCH  18  20
ATOM     19  C   UNL     1       7.669   5.812  19.446  0.00  0.00    +0.000 C 
ATOM     20  N   UNL     1       7.193   5.887  18.082  0.00  0.00    +0.000 N 
ATOM     21  C   UNL     1       7.589   4.828  17.245  0.00  0.00    +0.000 C 
ATOM     22  O   UNL     1       8.325   3.948  17.637  0.00  0.00    +0.000 OA
BRANCH  21  23
ATOM     23  C   UNL     1       7.108   4.874  15.791  0.00  0.00    +0.000 C 
BRANCH  23  24
ATOM     24  C   UNL     1       5.870   4.012  15.527  0.00  0.00    +0.000 C 
BRANCH  24  25
ATOM     25  C   UNL     1       5.486   3.973  14.047  0.00  0.00    +0.000 C 
BRANCH  25  26
ATOM     26  N   UNL     1       6.667   4.126  13.200  0.00  0.00    +0.000 NA
ATOM     27  H   UNL     1       6.951   3.215  12.841  0.00  0.00    +0.000 HD
ATOM     28  H   UNL     1       7.448   4.452  13.768  0.00  0.00    +0.000 HD
ENDBRANCH  25  26
ENDBRANCH  24  25
ENDBRANCH  23  24
ENDBRANCH  21  23
ENDBRANCH  18  20
ENDBRANCH  17  18
ENDBRANCH   1  17
TORSDOF 7
ENDMDL
MODEL 6
REMARK VINA RESULT:      -7.2      1.419      1.833
REMARK  Name = 
REMARK  8 active torsions:
REMARK  status: ('A' for Active; 'I' for Inactive)
REMARK    1  A    between atoms: C_1  and  N_2
REMARK    2  A    between atoms: N_2  and  C_3
REMARK    3  A    between atoms: C_3  and  C_4
REMARK    4  A    between atoms: C_4  and  C_5
REMARK    5  A    between atoms: C_21  and  C_23
REMARK    6  A    between atoms: C_23  and  C_24
REMARK    7  A    between atoms: C_24  and  C_25
REMARK    8  A    between atoms: C_25  and  N_26
REMARK                            x       y       z     vdW  Elec       q    Type
REMARK                         _______ _______ _______ _____ _____    ______ ____
ROOT
ATOM      1  C   UNL     1       2.521   6.733  18.757  0.00  0.00    +0.000 C 
ATOM      2  C   UNL     1       3.229   5.588  18.881  0.00  0.00    +0.000 C 
ATOM      3  C   UNL     1       2.621   4.469  19.631  0.00  0.00    +0.000 A 
ATOM      4  C   UNL     1       2.353   4.649  21.002  0.00  0.00    +0.000 A 
ATOM      5  C   UNL     1       1.923   3.586  21.791  0.00  0.00    +0.000 A 
ATOM      6  C   UNL     1       1.752   2.332  21.217  0.00  0.00    +0.000 A 
ATOM      7  C   UNL     1       2.002   2.144  19.856  0.00  0.00    +0.000 A 
ATOM      8  C   UNL     1       2.441   3.202  19.037  0.00  0.00    +0.000 A 
ATOM      9  C   UNL     1       2.743   2.856  17.582  0.00  0.00    +0.000 C 
ATOM     10  C   UNL     1       3.132   3.958  16.575  0.00  0.00    +0.000 C 
ATOM     11  C   UNL     1       4.431   4.624  16.962  0.00  0.00    +0.000 A 
ATOM     12  C   UNL     1       5.593   4.470  16.199  0.00  0.00    +0.000 A 
ATOM     13  C   UNL     1       6.808   4.971  16.670  0.00  0.00    +0.000 A 
ATOM     14  C   UNL     1       6.875   5.583  17.922  0.00  0.00    +0.000 A 
ATOM     15  C   UNL     1       5.718   5.779  18.668  0.00  0.00    +0.000 A 
ATOM     16  C   UNL     1       4.487   5.360  18.156  0.00  0.00    +0.000 A 
ENDROOT
BRANCH   1  17
ATOM     17  C   UNL     1       2.823   8.013  18.010  0.00  0.00    +0.000 C 
BRANCH  17  18
ATOM     18  C   UNL     1       1.622   8.908  17.656  0.00  0.00    +0.000 C 
BRANCH  18  20
ATOM     19  C   UNL     1       2.786  11.143  17.818  0.00  0.00    +0.000 C 
ATOM     20  N   UNL     1       1.626  10.315  18.065  0.00  0.00    +0.000 N 
ATOM     21  C   UNL     1       0.706  10.827  18.997  0.00  0.00    +0.000 C 
ATOM     22  O   UNL     1       0.909  11.866  19.588  0.00  0.00    +0.000 OA
BRANCH  21  23
ATOM     23  C   UNL     1      -0.534   9.976  19.288  0.00  0.00    +0.000 C 
BRANCH  23  24
ATOM     24  C   UNL     1      -1.666  10.174  18.276  0.00  0.00    +0.000 C 
BRANCH  24  25
ATOM     25  C   UNL     1      -2.223  11.598  18.290  0.00  0.00    +0.000 C 
BRANCH  25  26
ATOM     26  N   UNL     1      -1.479  12.456  17.371  0.00  0.00    +0.000 NA
ATOM     27  H   UNL     1      -1.748  13.429  17.516  0.00  0.00    +0.000 HD
ATOM     28  H   UNL     1      -1.750  12.238  16.413  0.00  0.00    +0.000 HD
ENDBRANCH  25  26
ENDBRANCH  24  25
ENDBRANCH  23  24
ENDBRANCH  21  23
ENDBRANCH  18  20
ENDBRANCH  17  18
ENDBRANCH   1  17
TORSDOF 7
ENDMDL
MODEL 7
REMARK VINA RESULT:      -7.2      1.355      2.789
REMARK  Name = 
REMARK  8 active torsions:
REMARK  status: ('A' for Active; 'I' for Inactive)
REMARK    1  A    between atoms: C_1  and  N_2
REMARK    2  A    between atoms: N_2  and  C_3
REMARK    3  A    between atoms: C_3  and  C_4
REMARK    4  A    between atoms: C_4  and  C_5
REMARK    5  A    between atoms: C_21  and  C_23
REMARK    6  A    between atoms: C_23  and  C_24
REMARK    7  A    between atoms: C_24  and  C_25
REMARK    8  A    between atoms: C_25  and  N_26
REMARK                            x       y       z     vdW  Elec       q    Type
REMARK                         _______ _______ _______ _____ _____    ______ ____
ROOT
ATOM      1  C   UNL     1       2.622   6.747  18.669  0.00  0.00    +0.000 C 
ATOM      2  C   UNL     1       3.320   5.606  18.864  0.00  0.00    +0.000 C 
ATOM      3  C   UNL     1       2.653   4.491  19.569  0.00  0.00    +0.000 A 
ATOM      4  C   UNL     1       2.268   4.682  20.910  0.00  0.00    +0.000 A 
ATOM      5  C   UNL     1       1.775   3.625  21.669  0.00  0.00    +0.000 A 
ATOM      6  C   UNL     1       1.658   2.365  21.094  0.00  0.00    +0.000 A 
ATOM      7  C   UNL     1       2.024   2.166  19.761  0.00  0.00    +0.000 A 
ATOM      8  C   UNL     1       2.528   3.219  18.973  0.00  0.00    +0.000 A 
ATOM      9  C   UNL     1       2.955   2.861  17.553  0.00  0.00    +0.000 C 
ATOM     10  C   UNL     1       3.425   3.955  16.572  0.00  0.00    +0.000 C 
ATOM     11  C   UNL     1       4.685   4.630  17.064  0.00  0.00    +0.000 A 
ATOM     12  C   UNL     1       5.909   4.473  16.405  0.00  0.00    +0.000 A 
ATOM     13  C   UNL     1       7.077   4.983  16.973  0.00  0.00    +0.000 A 
ATOM     14  C   UNL     1       7.035   5.606  18.220  0.00  0.00    +0.000 A 
ATOM     15  C   UNL     1       5.817   5.804  18.863  0.00  0.00    +0.000 A 
ATOM     16  C   UNL     1       4.636   5.376  18.251  0.00  0.00    +0.000 A 
ENDROOT
BRANCH   1  17
ATOM     17  C   UNL     1       2.983   8.022  17.939  0.00  0.00    +0.000 C 
BRANCH  17  18
ATOM     18  C   UNL     1       1.878   9.085  17.814  0.00  0.00    +0.000 C 
BRANCH  18  20
ATOM     19  C   UNL     1       0.640   9.190  20.012  0.00  0.00    +0.000 C 
ATOM     20  N   UNL     1       1.455   9.830  19.003  0.00  0.00    +0.000 N 
ATOM     21  C   UNL     1       1.499  11.234  19.064  0.00  0.00    +0.000 C 
ATOM     22  O   UNL     1       0.850  11.857  19.876  0.00  0.00    +0.000 OA
BRANCH  21  23
ATOM     23  C   UNL     1       2.350  11.948  18.008  0.00  0.00    +0.000 C 
BRANCH  23  24
ATOM     24  C   UNL     1       2.297  13.475  18.108  0.00  0.00    +0.000 C 
BRANCH  24  25
ATOM     25  C   UNL     1       3.686  14.106  18.208  0.00  0.00    +0.000 C 
BRANCH  25  26
ATOM     26  N   UNL     1       3.847  15.168  17.219  0.00  0.00    +0.000 NA
ATOM     27  H   UNL     1       3.723  14.786  16.282  0.00  0.00    +0.000 HD
ATOM     28  H   UNL     1       4.806  15.513  17.248  0.00  0.00    +0.000 HD
ENDBRANCH  25  26
ENDBRANCH  24  25
ENDBRANCH  23  24
ENDBRANCH  21  23
ENDBRANCH  18  20
ENDBRANCH  17  18
ENDBRANCH   1  17
TORSDOF 7
ENDMDL
MODEL 8
REMARK VINA RESULT:      -7.2      1.835      4.954
REMARK  Name = 
REMARK  8 active torsions:
REMARK  status: ('A' for Active; 'I' for Inactive)
REMARK    1  A    between atoms: C_1  and  N_2
REMARK    2  A    between atoms: N_2  and  C_3
REMARK    3  A    between atoms: C_3  and  C_4
REMARK    4  A    between atoms: C_4  and  C_5
REMARK    5  A    between atoms: C_21  and  C_23
REMARK    6  A    between atoms: C_23  and  C_24
REMARK    7  A    between atoms: C_24  and  C_25
REMARK    8  A    between atoms: C_25  and  N_26
REMARK                            x       y       z     vdW  Elec       q    Type
REMARK                         _______ _______ _______ _____ _____    ______ ____
ROOT
ATOM      1  C   UNL     1       3.337   7.355  17.479  0.00  0.00    +0.000 C 
ATOM      2  C   UNL     1       3.655   6.041  17.445  0.00  0.00    +0.000 C 
ATOM      3  C   UNL     1       4.920   5.646  16.790  0.00  0.00    +0.000 A 
ATOM      4  C   UNL     1       5.065   5.890  15.411  0.00  0.00    +0.000 A 
ATOM      5  C   UNL     1       6.167   5.406  14.713  0.00  0.00    +0.000 A 
ATOM      6  C   UNL     1       7.139   4.676  15.387  0.00  0.00    +0.000 A 
ATOM      7  C   UNL     1       7.013   4.439  16.757  0.00  0.00    +0.000 A 
ATOM      8  C   UNL     1       5.906   4.916  17.486  0.00  0.00    +0.000 A 
ATOM      9  C   UNL     1       5.850   4.536  18.963  0.00  0.00    +0.000 C 
ATOM     10  C   UNL     1       4.735   5.088  19.875  0.00  0.00    +0.000 C 
ATOM     11  C   UNL     1       3.372   4.613  19.429  0.00  0.00    +0.000 A 
ATOM     12  C   UNL     1       2.616   3.721  20.196  0.00  0.00    +0.000 A 
ATOM     13  C   UNL     1       1.434   3.187  19.680  0.00  0.00    +0.000 A 
ATOM     14  C   UNL     1       1.030   3.502  18.383  0.00  0.00    +0.000 A 
ATOM     15  C   UNL     1       1.753   4.421  17.629  0.00  0.00    +0.000 A 
ATOM     16  C   UNL     1       2.885   5.027  18.180  0.00  0.00    +0.000 A 
ENDROOT
BRANCH   1  17
ATOM     17  C   UNL     1       2.174   8.080  18.119  0.00  0.00    +0.000 C 
BRANCH  17  18
ATOM     18  C   UNL     1       2.155   9.613  17.986  0.00  0.00    +0.000 C 
BRANCH  18  20
ATOM     19  C   UNL     1       0.135   9.782  19.491  0.00  0.00    +0.000 C 
ATOM     20  N   UNL     1       1.276  10.402  18.853  0.00  0.00    +0.000 N 
ATOM     21  C   UNL     1       1.266  11.808  18.831  0.00  0.00    +0.000 C 
ATOM     22  O   UNL     1       0.332  12.445  19.270  0.00  0.00    +0.000 OA
BRANCH  21  23
ATOM     23  C   UNL     1       2.456  12.500  18.159  0.00  0.00    +0.000 C 
BRANCH  23  24
ATOM     24  C   UNL     1       2.860  13.815  18.830  0.00  0.00    +0.000 C 
BRANCH  24  25
ATOM     25  C   UNL     1       4.110  14.435  18.205  0.00  0.00    +0.000 C 
BRANCH  25  26
ATOM     26  N   UNL     1       3.756  15.288  17.073  0.00  0.00    +0.000 NA
ATOM     27  H   UNL     1       3.234  14.746  16.385  0.00  0.00    +0.000 HD
ATOM     28  H   UNL     1       4.606  15.588  16.598  0.00  0.00    +0.000 HD
ENDBRANCH  25  26
ENDBRANCH  24  25
ENDBRANCH  23  24
ENDBRANCH  21  23
ENDBRANCH  18  20
ENDBRANCH  17  18
ENDBRANCH   1  17
TORSDOF 7
ENDMDL
MODEL 9
REMARK VINA RESULT:      -7.1      1.862      4.562
REMARK  Name = 
REMARK  8 active torsions:
REMARK  status: ('A' for Active; 'I' for Inactive)
REMARK    1  A    between atoms: C_1  and  N_2
REMARK    2  A    between atoms: N_2  and  C_3
REMARK    3  A    between atoms: C_3  and  C_4
REMARK    4  A    between atoms: C_4  and  C_5
REMARK    5  A    between atoms: C_21  and  C_23
REMARK    6  A    between atoms: C_23  and  C_24
REMARK    7  A    between atoms: C_24  and  C_25
REMARK    8  A    between atoms: C_25  and  N_26
REMARK                            x       y       z     vdW  Elec       q    Type
REMARK                         _______ _______ _______ _____ _____    ______ ____
ROOT
ATOM      1  C   UNL     1       3.116   7.055  17.330  0.00  0.00    +0.000 C 
ATOM      2  C   UNL     1       3.568   5.783  17.393  0.00  0.00    +0.000 C 
ATOM      3  C   UNL     1       4.899   5.486  16.823  0.00  0.00    +0.000 A 
ATOM      4  C   UNL     1       5.089   5.663  15.439  0.00  0.00    +0.000 A 
ATOM      5  C   UNL     1       6.270   5.259  14.823  0.00  0.00    +0.000 A 
ATOM      6  C   UNL     1       7.276   4.677  15.585  0.00  0.00    +0.000 A 
ATOM      7  C   UNL     1       7.104   4.508  16.960  0.00  0.00    +0.000 A 
ATOM      8  C   UNL     1       5.918   4.906  17.607  0.00  0.00    +0.000 A 
ATOM      9  C   UNL     1       5.826   4.608  19.100  0.00  0.00    +0.000 C 
ATOM     10  C   UNL     1       4.615   5.091  19.925  0.00  0.00    +0.000 C 
ATOM     11  C   UNL     1       3.332   4.450  19.449  0.00  0.00    +0.000 A 
ATOM     12  C   UNL     1       2.634   3.529  20.236  0.00  0.00    +0.000 A 
ATOM     13  C   UNL     1       1.542   2.843  19.703  0.00  0.00    +0.000 A 
ATOM     14  C   UNL     1       1.174   3.039  18.371  0.00  0.00    +0.000 A 
ATOM     15  C   UNL     1       1.836   3.983  17.593  0.00  0.00    +0.000 A 
ATOM     16  C   UNL     1       2.870   4.737  18.155  0.00  0.00    +0.000 A 
ENDROOT
BRANCH   1  17
ATOM     17  C   UNL     1       1.853   7.689  17.871  0.00  0.00    +0.000 C 
BRANCH  17  18
ATOM     18  C   UNL     1       2.016   9.008  18.644  0.00  0.00    +0.000 C 
BRANCH  18  20
ATOM     19  C   UNL     1       1.458   8.429  21.038  0.00  0.00    +0.000 C 
ATOM     20  N   UNL     1       1.228   9.235  19.859  0.00  0.00    +0.000 N 
ATOM     21  C   UNL     1       0.020   9.955  19.845  0.00  0.00    +0.000 C 
ATOM     22  O   UNL     1      -0.791   9.854  20.741  0.00  0.00    +0.000 OA
BRANCH  21  23
ATOM     23  C   UNL     1      -0.261  10.817  18.610  0.00  0.00    +0.000 C 
BRANCH  23  24
ATOM     24  C   UNL     1      -1.396  10.281  17.733  0.00  0.00    +0.000 C 
BRANCH  24  25
ATOM     25  C   UNL     1      -2.541  11.282  17.576  0.00  0.00    +0.000 C 
BRANCH  25  26
ATOM     26  N   UNL     1      -2.437  12.349  18.568  0.00  0.00    +0.000 NA
ATOM     27  H   UNL     1      -1.791  12.070  19.306  0.00  0.00    +0.000 HD
ATOM     28  H   UNL     1      -3.339  12.471  19.027  0.00  0.00    +0.000 HD
ENDBRANCH  25  26
ENDBRANCH  24  25
ENDBRANCH  23  24
ENDBRANCH  21  23
ENDBRANCH  18  20
ENDBRANCH  17  18
ENDBRANCH   1  17
TORSDOF 7
ENDMDL
