MODEL 1
REMARK VINA RESULT:      -8.0      0.000      0.000
REMARK  Name = 
REMARK  5 active torsions:
REMARK  status: ('A' for Active; 'I' for Inactive)
REMARK    1  A    between atoms: C_2  and  C_18
REMARK    2  A    between atoms: N_3  and  C_4
REMARK    3  A    between atoms: C_4  and  C_5
REMARK    4  A    between atoms: N_9  and  C_10
REMARK    5  A    between atoms: C_10  and  C_11
REMARK                            x       y       z     vdW  Elec       q    Type
REMARK                         _______ _______ _______ _____ _____    ______ ____
ROOT
ATOM      1  C   UNL     1       2.910   3.985  19.460  0.00  0.00    +0.000 C 
ATOM      2  C   UNL     1       1.336   3.945  19.367  0.00  0.00    +0.000 C 
ATOM      3  C   UNL     1       1.611   2.423  19.516  0.00  0.00    +0.000 C 
ATOM      4  C   UNL     1       2.420   2.090  18.276  0.00  0.00    +0.000 C 
ATOM      5  N   UNL     1       3.398   3.191  18.281  0.00  0.00    +0.000 NA
ATOM      6  C   UNL     1       2.689   2.856  20.544  0.00  0.00    +0.000 C 
ENDROOT
BRANCH   1   7
ATOM      7  C   UNL     1       3.692   5.210  19.865  0.00  0.00    +0.000 C 
BRANCH   7  10
ATOM      8  O   UNL     1       3.014   7.381  18.246  0.00  0.00    +0.000 OA
ATOM      9  C   UNL     1       2.486   7.305  19.354  0.00  0.00    +0.000 C 
ATOM     10  N   UNL     1       2.733   6.243  20.193  0.00  0.00    +0.000 N 
ATOM     11  H   UNL     1       2.377   6.269  21.143  0.00  0.00    +0.000 HD
BRANCH   9  12
ATOM     12  C   UNL     1       1.575   8.325  19.859  0.00  0.00    +0.000 A 
ATOM     13  C   UNL     1       1.088   8.424  21.152  0.00  0.00    +0.000 A 
ATOM     14  C   UNL     1       0.224   9.539  21.319  0.00  0.00    +0.000 A 
ATOM     15 BR   UNL     1      -0.567   9.897  22.997  0.00  0.00    +0.000 Br
ATOM     16  C   UNL     1       0.073  10.252  20.159  0.00  0.00    +0.000 A 
ATOM     17 BR   UNL     1      -0.980  11.790  19.948  0.00  0.00    +0.000 Br
ATOM     18  S   UNL     1       0.964   9.591  18.872  0.00  0.00    +0.000 S 
ENDBRANCH   9  12
ENDBRANCH   7  10
ENDBRANCH   1   7
BRANCH   5  19
ATOM     19  C   UNL     1       3.380   3.990  17.042  0.00  0.00    +0.000 C 
BRANCH  19  20
ATOM     20  C   UNL     1       4.762   4.256  16.478  0.00  0.00    +0.000 A 
ATOM     21  C   UNL     1       5.872   4.336  17.336  0.00  0.00    +0.000 A 
ATOM     22  C   UNL     1       7.144   4.601  16.828  0.00  0.00    +0.000 A 
ATOM     23  C   UNL     1       7.324   4.784  15.460  0.00  0.00    +0.000 A 
ATOM     24  C   UNL     1       6.233   4.696  14.596  0.00  0.00    +0.000 A 
ATOM     25  C   UNL     1       4.959   4.432  15.101  0.00  0.00    +0.000 A 
ENDBRANCH  19  20
ENDBRANCH   5  19
TORSDOF 5
ENDMDL
MODEL 2
REMARK VINA RESULT:      -8.0      4.365      6.808
REMARK  Name = 
REMARK  5 active torsions:
REMARK  status: ('A' for Active; 'I' for Inactive)
REMARK    1  A    between atoms: C_2  and  C_18
REMARK    2  A    between atoms: N_3  and  C_4
REMARK    3  A    between atoms: C_4  and  C_5
REMARK    4  A    between atoms: N_9  and  C_10
REMARK    5  A    between atoms: C_10  and  C_11
REMARK                            x       y       z     vdW  Elec       q    Type
REMARK                         _______ _______ _______ _____ _____    ______ ____
ROOT
ATOM      1  C   UNL     1       2.994   3.124  19.696  0.00  0.00    +0.000 C 
ATOM      2  C   UNL     1       2.070   2.785  20.928  0.00  0.00    +0.000 C 
ATOM      3  C   UNL     1       0.991   2.806  19.810  0.00  0.00    +0.000 C 
ATOM      4  C   UNL     1       1.035   4.238  19.307  0.00  0.00    +0.000 C 
ATOM      5  N   UNL     1       2.488   4.436  19.166  0.00  0.00    +0.000 NA
ATOM      6  C   UNL     1       2.063   2.088  18.948  0.00  0.00    +0.000 C 
ENDROOT
BRANCH   1   7
ATOM      7  C   UNL     1       4.484   2.878  19.676  0.00  0.00    +0.000 C 
BRANCH   7  10
ATOM      8  O   UNL     1       6.325   4.807  18.853  0.00  0.00    +0.000 OA
ATOM      9  C   UNL     1       5.818   4.093  17.989  0.00  0.00    +0.000 C 
ATOM     10  N   UNL     1       4.936   3.090  18.318  0.00  0.00    +0.000 N 
ATOM     11  H   UNL     1       4.446   2.599  17.577  0.00  0.00    +0.000 HD
BRANCH   9  12
ATOM     12  C   UNL     1       6.104   4.259  16.570  0.00  0.00    +0.000 A 
ATOM     13  C   UNL     1       5.370   3.736  15.518  0.00  0.00    +0.000 A 
ATOM     14  C   UNL     1       5.913   4.088  14.253  0.00  0.00    +0.000 A 
ATOM     15 BR   UNL     1       5.089   3.502  12.658  0.00  0.00    +0.000 Br
ATOM     16  C   UNL     1       7.039   4.859  14.374  0.00  0.00    +0.000 A 
ATOM     17 BR   UNL     1       8.061   5.534  12.952  0.00  0.00    +0.000 Br
ATOM     18  S   UNL     1       7.445   5.164  15.995  0.00  0.00    +0.000 S 
ENDBRANCH   9  12
ENDBRANCH   7  10
ENDBRANCH   1   7
BRANCH   5  19
ATOM     19  C   UNL     1       2.998   5.574  19.952  0.00  0.00    +0.000 C 
BRANCH  19  20
ATOM     20  C   UNL     1       2.468   6.915  19.482  0.00  0.00    +0.000 A 
ATOM     21  C   UNL     1       1.729   7.728  20.358  0.00  0.00    +0.000 A 
ATOM     22  C   UNL     1       1.220   8.954  19.928  0.00  0.00    +0.000 A 
ATOM     23  C   UNL     1       1.448   9.385  18.624  0.00  0.00    +0.000 A 
ATOM     24  C   UNL     1       2.189   8.593  17.749  0.00  0.00    +0.000 A 
ATOM     25  C   UNL     1       2.699   7.365  18.175  0.00  0.00    +0.000 A 
ENDBRANCH  19  20
ENDBRANCH   5  19
TORSDOF 5
ENDMDL
MODEL 3
REMARK VINA RESULT:      -7.9      4.380      6.850
REMARK  Name = 
REMARK  5 active torsions:
REMARK  status: ('A' for Active; 'I' for Inactive)
REMARK    1  A    between atoms: C_2  and  C_18
REMARK    2  A    between atoms: N_3  and  C_4
REMARK    3  A    between atoms: C_4  and  C_5
REMARK    4  A    between atoms: N_9  and  C_10
REMARK    5  A    between atoms: C_10  and  C_11
REMARK                            x       y       z     vdW  Elec       q    Type
REMARK                         _______ _______ _______ _____ _____    ______ ____
ROOT
ATOM      1  C   UNL     1       3.053   3.073  19.552  0.00  0.00    +0.000 C 
ATOM      2  C   UNL     1       2.115   2.463  20.663  0.00  0.00    +0.000 C 
ATOM      3  C   UNL     1       1.114   2.470  19.474  0.00  0.00    +0.000 C 
ATOM      4  C   UNL     1       0.979   3.944  19.138  0.00  0.00    +0.000 C 
ATOM      5  N   UNL     1       2.393   4.356  19.133  0.00  0.00    +0.000 NA
ATOM      6  C   UNL     1       2.331   2.017  18.624  0.00  0.00    +0.000 C 
ENDROOT
BRANCH   1   7
ATOM      7  C   UNL     1       4.561   3.039  19.621  0.00  0.00    +0.000 C 
BRANCH   7  10
ATOM      8  O   UNL     1       5.850   5.306  18.626  0.00  0.00    +0.000 OA
ATOM      9  C   UNL     1       5.645   4.376  17.848  0.00  0.00    +0.000 C 
ATOM     10  N   UNL     1       5.056   3.207  18.271  0.00  0.00    +0.000 N 
ATOM     11  H   UNL     1       4.793   2.508  17.584  0.00  0.00    +0.000 HD
BRANCH   9  12
ATOM     12  C   UNL     1       6.000   4.443  16.436  0.00  0.00    +0.000 A 
ATOM     13  C   UNL     1       5.326   3.833  15.390  0.00  0.00    +0.000 A 
ATOM     14  C   UNL     1       5.928   4.101  14.132  0.00  0.00    +0.000 A 
ATOM     15 BR   UNL     1       5.193   3.387  12.545  0.00  0.00    +0.000 Br
ATOM     16  C   UNL     1       7.036   4.898  14.250  0.00  0.00    +0.000 A 
ATOM     17 BR   UNL     1       8.119   5.485  12.836  0.00  0.00    +0.000 Br
ATOM     18  S   UNL     1       7.357   5.326  15.863  0.00  0.00    +0.000 S 
ENDBRANCH   9  12
ENDBRANCH   7  10
ENDBRANCH   1   7
BRANCH   5  19
ATOM     19  C   UNL     1       2.682   5.451  20.078  0.00  0.00    +0.000 C 
BRANCH  19  20
ATOM     20  C   UNL     1       2.278   6.817  19.559  0.00  0.00    +0.000 A 
ATOM     21  C   UNL     1       2.541   7.171  18.225  0.00  0.00    +0.000 A 
ATOM     22  C   UNL     1       2.191   8.433  17.744  0.00  0.00    +0.000 A 
ATOM     23  C   UNL     1       1.572   9.353  18.586  0.00  0.00    +0.000 A 
ATOM     24  C   UNL     1       1.295   9.010  19.908  0.00  0.00    +0.000 A 
ATOM     25  C   UNL     1       1.644   7.749  20.393  0.00  0.00    +0.000 A 
ENDBRANCH  19  20
ENDBRANCH   5  19
TORSDOF 5
ENDMDL
MODEL 4
REMARK VINA RESULT:      -7.8      0.914      1.480
REMARK  Name = 
REMARK  5 active torsions:
REMARK  status: ('A' for Active; 'I' for Inactive)
REMARK    1  A    between atoms: C_2  and  C_18
REMARK    2  A    between atoms: N_3  and  C_4
REMARK    3  A    between atoms: C_4  and  C_5
REMARK    4  A    between atoms: N_9  and  C_10
REMARK    5  A    between atoms: C_10  and  C_11
REMARK                            x       y       z     vdW  Elec       q    Type
REMARK                         _______ _______ _______ _____ _____    ______ ____
ROOT
ATOM      1  C   UNL     1       2.714   4.368  19.804  0.00  0.00    +0.000 C 
ATOM      2  C   UNL     1       1.150   4.223  19.665  0.00  0.00    +0.000 C 
ATOM      3  C   UNL     1       1.475   2.820  20.248  0.00  0.00    +0.000 C 
ATOM      4  C   UNL     1       2.361   2.196  19.184  0.00  0.00    +0.000 C 
ATOM      5  N   UNL     1       3.294   3.303  18.917  0.00  0.00    +0.000 NA
ATOM      6  C   UNL     1       2.481   3.578  21.154  0.00  0.00    +0.000 C 
ENDROOT
BRANCH   1   7
ATOM      7  C   UNL     1       3.427   5.697  19.878  0.00  0.00    +0.000 C 
BRANCH   7  10
ATOM      8  O   UNL     1       2.635   7.904  18.363  0.00  0.00    +0.000 OA
ATOM      9  C   UNL     1       2.144   7.771  19.483  0.00  0.00    +0.000 C 
ATOM     10  N   UNL     1       2.448   6.687  20.274  0.00  0.00    +0.000 N 
ATOM     11  H   UNL     1       2.121   6.668  21.235  0.00  0.00    +0.000 HD
BRANCH   9  12
ATOM     12  C   UNL     1       1.221   8.744  20.053  0.00  0.00    +0.000 A 
ATOM     13  C   UNL     1       0.501   9.701  19.356  0.00  0.00    +0.000 A 
ATOM     14  C   UNL     1      -0.314  10.491  20.210  0.00  0.00    +0.000 A 
ATOM     15 BR   UNL     1      -1.400  11.863  19.499  0.00  0.00    +0.000 Br
ATOM     16  C   UNL     1      -0.194  10.121  21.523  0.00  0.00    +0.000 A 
ATOM     17 BR   UNL     1      -1.096  10.907  22.968  0.00  0.00    +0.000 Br
ATOM     18  S   UNL     1       0.891   8.832  21.736  0.00  0.00    +0.000 S 
ENDBRANCH   9  12
ENDBRANCH   7  10
ENDBRANCH   1   7
BRANCH   5  19
ATOM     19  C   UNL     1       3.310   3.722  17.504  0.00  0.00    +0.000 C 
BRANCH  19  20
ATOM     20  C   UNL     1       4.696   4.059  16.992  0.00  0.00    +0.000 A 
ATOM     21  C   UNL     1       5.758   4.234  17.894  0.00  0.00    +0.000 A 
ATOM     22  C   UNL     1       7.033   4.566  17.433  0.00  0.00    +0.000 A 
ATOM     23  C   UNL     1       7.263   4.720  16.069  0.00  0.00    +0.000 A 
ATOM     24  C   UNL     1       6.220   4.538  15.162  0.00  0.00    +0.000 A 
ATOM     25  C   UNL     1       4.943   4.208  15.619  0.00  0.00    +0.000 A 
ENDBRANCH  19  20
ENDBRANCH   5  19
TORSDOF 5
ENDMDL
MODEL 5
REMARK VINA RESULT:      -7.7      0.456      1.031
REMARK  Name = 
REMARK  5 active torsions:
REMARK  status: ('A' for Active; 'I' for Inactive)
REMARK    1  A    between atoms: C_2  and  C_18
REMARK    2  A    between atoms: N_3  and  C_4
REMARK    3  A    between atoms: C_4  and  C_5
REMARK    4  A    between atoms: N_9  and  C_10
REMARK    5  A    between atoms: C_10  and  C_11
REMARK                            x       y       z     vdW  Elec       q    Type
REMARK                         _______ _______ _______ _____ _____    ______ ____
ROOT
ATOM      1  C   UNL     1       3.276   3.925  19.270  0.00  0.00    +0.000 C 
ATOM      2  C   UNL     1       1.704   3.792  19.286  0.00  0.00    +0.000 C 
ATOM      3  C   UNL     1       2.078   2.287  19.378  0.00  0.00    +0.000 C 
ATOM      4  C   UNL     1       2.816   2.029  18.076  0.00  0.00    +0.000 C 
ATOM      5  N   UNL     1       3.726   3.186  18.041  0.00  0.00    +0.000 NA
ATOM      6  C   UNL     1       3.199   2.763  20.339  0.00  0.00    +0.000 C 
ENDROOT
BRANCH   1   7
ATOM      7  C   UNL     1       4.012   5.187  19.650  0.00  0.00    +0.000 C 
BRANCH   7  10
ATOM      8  O   UNL     1       3.147   7.317  18.067  0.00  0.00    +0.000 OA
ATOM      9  C   UNL     1       2.676   7.215  19.198  0.00  0.00    +0.000 C 
ATOM     10  N   UNL     1       3.016   6.168  20.023  0.00  0.00    +0.000 N 
ATOM     11  H   UNL     1       2.704   6.177  20.989  0.00  0.00    +0.000 HD
BRANCH   9  12
ATOM     12  C   UNL     1       1.738   8.187  19.746  0.00  0.00    +0.000 A 
ATOM     13  C   UNL     1       1.270   8.233  21.049  0.00  0.00    +0.000 A 
ATOM     14  C   UNL     1       0.368   9.310  21.260  0.00  0.00    +0.000 A 
ATOM     15 BR   UNL     1      -0.406   9.594  22.960  0.00  0.00    +0.000 Br
ATOM     16  C   UNL     1       0.172  10.049  20.123  0.00  0.00    +0.000 A 
ATOM     17 BR   UNL     1      -0.940  11.552  19.972  0.00  0.00    +0.000 Br
ATOM     18  S   UNL     1       1.064   9.456  18.804  0.00  0.00    +0.000 S 
ENDBRANCH   9  12
ENDBRANCH   7  10
ENDBRANCH   1   7
BRANCH   5  19
ATOM     19  C   UNL     1       3.574   4.007  16.826  0.00  0.00    +0.000 C 
BRANCH  19  20
ATOM     20  C   UNL     1       4.891   4.326  16.147  0.00  0.00    +0.000 A 
ATOM     21  C   UNL     1       5.109   3.942  14.813  0.00  0.00    +0.000 A 
ATOM     22  C   UNL     1       6.325   4.213  14.186  0.00  0.00    +0.000 A 
ATOM     23  C   UNL     1       7.335   4.875  14.880  0.00  0.00    +0.000 A 
ATOM     24  C   UNL     1       7.128   5.271  16.200  0.00  0.00    +0.000 A 
ATOM     25  C   UNL     1       5.912   5.001  16.831  0.00  0.00    +0.000 A 
ENDBRANCH  19  20
ENDBRANCH   5  19
TORSDOF 5
ENDMDL
MODEL 6
REMARK VINA RESULT:      -7.7      1.117      1.946
REMARK  Name = 
REMARK  5 active torsions:
REMARK  status: ('A' for Active; 'I' for Inactive)
REMARK    1  A    between atoms: C_2  and  C_18
REMARK    2  A    between atoms: N_3  and  C_4
REMARK    3  A    between atoms: C_4  and  C_5
REMARK    4  A    between atoms: N_9  and  C_10
REMARK    5  A    between atoms: C_10  and  C_11
REMARK                            x       y       z     vdW  Elec       q    Type
REMARK                         _______ _______ _______ _____ _____    ______ ____
ROOT
ATOM      1  C   UNL     1       2.656   4.696  19.901  0.00  0.00    +0.000 C 
ATOM      2  C   UNL     1       1.119   4.371  19.761  0.00  0.00    +0.000 C 
ATOM      3  C   UNL     1       1.537   3.188  20.678  0.00  0.00    +0.000 C 
ATOM      4  C   UNL     1       2.525   2.414  19.823  0.00  0.00    +0.000 C 
ATOM      5  N   UNL     1       3.369   3.510  19.318  0.00  0.00    +0.000 NA
ATOM      6  C   UNL     1       2.427   4.237  21.396  0.00  0.00    +0.000 C 
ENDROOT
BRANCH   1   7
ATOM      7  C   UNL     1       3.245   6.066  19.665  0.00  0.00    +0.000 C 
BRANCH   7  10
ATOM      8  O   UNL     1       2.414   8.310  18.228  0.00  0.00    +0.000 OA
ATOM      9  C   UNL     1       1.940   8.141  19.350  0.00  0.00    +0.000 C 
ATOM     10  N   UNL     1       2.264   7.036  20.104  0.00  0.00    +0.000 N 
ATOM     11  H   UNL     1       1.952   6.986  21.068  0.00  0.00    +0.000 HD
BRANCH   9  12
ATOM     12  C   UNL     1       1.018   9.088  19.962  0.00  0.00    +0.000 A 
ATOM     13  C   UNL     1       0.254  10.036  19.301  0.00  0.00    +0.000 A 
ATOM     14  C   UNL     1      -0.547  10.801  20.190  0.00  0.00    +0.000 A 
ATOM     15 BR   UNL     1      -1.685  12.156  19.532  0.00  0.00    +0.000 Br
ATOM     16  C   UNL     1      -0.373  10.421  21.495  0.00  0.00    +0.000 A 
ATOM     17 BR   UNL     1      -1.239  11.174  22.979  0.00  0.00    +0.000 Br
ATOM     18  S   UNL     1       0.746   9.153  21.657  0.00  0.00    +0.000 S 
ENDBRANCH   9  12
ENDBRANCH   7  10
ENDBRANCH   1   7
BRANCH   5  19
ATOM     19  C   UNL     1       3.417   3.573  17.845  0.00  0.00    +0.000 C 
BRANCH  19  20
ATOM     20  C   UNL     1       4.769   3.997  17.305  0.00  0.00    +0.000 A 
ATOM     21  C   UNL     1       4.968   4.123  15.920  0.00  0.00    +0.000 A 
ATOM     22  C   UNL     1       6.215   4.492  15.413  0.00  0.00    +0.000 A 
ATOM     23  C   UNL     1       7.273   4.745  16.282  0.00  0.00    +0.000 A 
ATOM     24  C   UNL     1       7.086   4.635  17.658  0.00  0.00    +0.000 A 
ATOM     25  C   UNL     1       5.841   4.265  18.169  0.00  0.00    +0.000 A 
ENDBRANCH  19  20
ENDBRANCH   5  19
TORSDOF 5
ENDMDL
MODEL 7
REMARK VINA RESULT:      -7.7      4.475      6.904
REMARK  Name = 
REMARK  5 active torsions:
REMARK  status: ('A' for Active; 'I' for Inactive)
REMARK    1  A    between atoms: C_2  and  C_18
REMARK    2  A    between atoms: N_3  and  C_4
REMARK    3  A    between atoms: C_4  and  C_5
REMARK    4  A    between atoms: N_9  and  C_10
REMARK    5  A    between atoms: C_10  and  C_11
REMARK                            x       y       z     vdW  Elec       q    Type
REMARK                         _______ _______ _______ _____ _____    ______ ____
ROOT
ATOM      1  C   UNL     1       3.384   3.402  19.700  0.00  0.00    +0.000 C 
ATOM      2  C   UNL     1       2.644   2.643  20.869  0.00  0.00    +0.000 C 
ATOM      3  C   UNL     1       1.592   2.443  19.742  0.00  0.00    +0.000 C 
ATOM      4  C   UNL     1       1.162   3.861  19.408  0.00  0.00    +0.000 C 
ATOM      5  N   UNL     1       2.470   4.531  19.316  0.00  0.00    +0.000 NA
ATOM      6  C   UNL     1       2.821   2.214  18.822  0.00  0.00    +0.000 C 
ENDROOT
BRANCH   1   7
ATOM      7  C   UNL     1       4.872   3.652  19.678  0.00  0.00    +0.000 C 
BRANCH   7  10
ATOM      8  O   UNL     1       5.849   5.826  18.226  0.00  0.00    +0.000 OA
ATOM      9  C   UNL     1       5.724   4.754  17.637  0.00  0.00    +0.000 C 
ATOM     10  N   UNL     1       5.292   3.624  18.294  0.00  0.00    +0.000 N 
ATOM     11  H   UNL     1       5.086   2.788  17.757  0.00  0.00    +0.000 HD
BRANCH   9  12
ATOM     12  C   UNL     1       6.013   4.601  16.217  0.00  0.00    +0.000 A 
ATOM     13  C   UNL     1       7.009   5.251  15.507  0.00  0.00    +0.000 A 
ATOM     14  C   UNL     1       7.028   4.875  14.137  0.00  0.00    +0.000 A 
ATOM     15 BR   UNL     1       8.301   5.618  12.956  0.00  0.00    +0.000 Br
ATOM     16  C   UNL     1       6.054   3.959  13.841  0.00  0.00    +0.000 A 
ATOM     17 BR   UNL     1       5.736   3.205  12.153  0.00  0.00    +0.000 Br
ATOM     18  S   UNL     1       5.117   3.548  15.198  0.00  0.00    +0.000 S 
ENDBRANCH   9  12
ENDBRANCH   7  10
ENDBRANCH   1   7
BRANCH   5  19
ATOM     19  C   UNL     1       2.602   5.675  20.237  0.00  0.00    +0.000 C 
BRANCH  19  20
ATOM     20  C   UNL     1       2.256   7.005  19.598  0.00  0.00    +0.000 A 
ATOM     21  C   UNL     1       1.602   7.999  20.346  0.00  0.00    +0.000 A 
ATOM     22  C   UNL     1       1.261   9.218  19.760  0.00  0.00    +0.000 A 
ATOM     23  C   UNL     1       1.573   9.462  18.425  0.00  0.00    +0.000 A 
ATOM     24  C   UNL     1       2.231   8.489  17.675  0.00  0.00    +0.000 A 
ATOM     25  C   UNL     1       2.573   7.267  18.258  0.00  0.00    +0.000 A 
ENDBRANCH  19  20
ENDBRANCH   5  19
TORSDOF 5
ENDMDL
MODEL 8
REMARK VINA RESULT:      -7.6      1.201      1.344
REMARK  Name = 
REMARK  5 active torsions:
REMARK  status: ('A' for Active; 'I' for Inactive)
REMARK    1  A    between atoms: C_2  and  C_18
REMARK    2  A    between atoms: N_3  and  C_4
REMARK    3  A    between atoms: C_4  and  C_5
REMARK    4  A    between atoms: N_9  and  C_10
REMARK    5  A    between atoms: C_10  and  C_11
REMARK                            x       y       z     vdW  Elec       q    Type
REMARK                         _______ _______ _______ _____ _____    ______ ____
ROOT
ATOM      1  C   UNL     1       2.541   4.968  19.143  0.00  0.00    +0.000 C 
ATOM      2  C   UNL     1       1.210   4.123  19.205  0.00  0.00    +0.000 C 
ATOM      3  C   UNL     1       1.876   3.627  20.518  0.00  0.00    +0.000 C 
ATOM      4  C   UNL     1       3.146   2.950  20.033  0.00  0.00    +0.000 C 
ATOM      5  N   UNL     1       3.652   3.957  19.087  0.00  0.00    +0.000 NA
ATOM      6  C   UNL     1       2.306   5.107  20.700  0.00  0.00    +0.000 C 
ENDROOT
BRANCH   1   7
ATOM      7  C   UNL     1       2.691   6.234  18.335  0.00  0.00    +0.000 C 
BRANCH   7  10
ATOM      8  O   UNL     1       2.251   8.827  17.401  0.00  0.00    +0.000 OA
ATOM      9  C   UNL     1       1.859   8.551  18.534  0.00  0.00    +0.000 C 
ATOM     10  N   UNL     1       1.997   7.284  19.049  0.00  0.00    +0.000 N 
ATOM     11  H   UNL     1       1.772   7.119  20.026  0.00  0.00    +0.000 HD
BRANCH   9  12
ATOM     12  C   UNL     1       1.232   9.536  19.406  0.00  0.00    +0.000 A 
ATOM     13  C   UNL     1       0.635   9.286  20.631  0.00  0.00    +0.000 A 
ATOM     14  C   UNL     1       0.122  10.467  21.232  0.00  0.00    +0.000 A 
ATOM     15 BR   UNL     1      -0.735  10.393  22.914  0.00  0.00    +0.000 Br
ATOM     16  C   UNL     1       0.338  11.575  20.456  0.00  0.00    +0.000 A 
ATOM     17 BR   UNL     1      -0.181  13.327  20.882  0.00  0.00    +0.000 Br
ATOM     18  S   UNL     1       1.151  11.206  19.011  0.00  0.00    +0.000 S 
ENDBRANCH   9  12
ENDBRANCH   7  10
ENDBRANCH   1   7
BRANCH   5  19
ATOM     19  C   UNL     1       3.840   3.430  17.723  0.00  0.00    +0.000 C 
BRANCH  19  20
ATOM     20  C   UNL     1       5.053   4.005  17.017  0.00  0.00    +0.000 A 
ATOM     21  C   UNL     1       6.143   4.482  17.764  0.00  0.00    +0.000 A 
ATOM     22  C   UNL     1       7.254   5.032  17.124  0.00  0.00    +0.000 A 
ATOM     23  C   UNL     1       7.293   5.105  15.734  0.00  0.00    +0.000 A 
ATOM     24  C   UNL     1       6.223   4.625  14.981  0.00  0.00    +0.000 A 
ATOM     25  C   UNL     1       5.108   4.076  15.618  0.00  0.00    +0.000 A 
ENDBRANCH  19  20
ENDBRANCH   5  19
TORSDOF 5
ENDMDL
MODEL 9
REMARK VINA RESULT:      -7.6      1.022      1.485
REMARK  Name = 
REMARK  5 active torsions:
REMARK  status: ('A' for Active; 'I' for Inactive)
REMARK    1  A    between atoms: C_2  and  C_18
REMARK    2  A    between atoms: N_3  and  C_4
REMARK    3  A    between atoms: C_4  and  C_5
REMARK    4  A    between atoms: N_9  and  C_10
REMARK    5  A    between atoms: C_10  and  C_11
REMARK                            x       y       z     vdW  Elec       q    Type
REMARK                         _______ _______ _______ _____ _____    ______ ____
ROOT
ATOM      1  C   UNL     1       2.776   4.904  19.016  0.00  0.00    +0.000 C 
ATOM      2  C   UNL     1       1.360   4.210  19.024  0.00  0.00    +0.000 C 
ATOM      3  C   UNL     1       2.014   3.447  20.210  0.00  0.00    +0.000 C 
ATOM      4  C   UNL     1       3.176   2.719  19.560  0.00  0.00    +0.000 C 
ATOM      5  N   UNL     1       3.760   3.799  18.748  0.00  0.00    +0.000 NA
ATOM      6  C   UNL     1       2.618   4.826  20.587  0.00  0.00    +0.000 C 
ENDROOT
BRANCH   1   7
ATOM      7  C   UNL     1       3.040   6.256  18.399  0.00  0.00    +0.000 C 
BRANCH   7  10
ATOM      8  O   UNL     1       2.324   8.777  17.438  0.00  0.00    +0.000 OA
ATOM      9  C   UNL     1       1.922   8.453  18.554  0.00  0.00    +0.000 C 
ATOM     10  N   UNL     1       2.194   7.211  19.080  0.00  0.00    +0.000 N 
ATOM     11  H   UNL     1       1.951   7.019  20.047  0.00  0.00    +0.000 HD
BRANCH   9  12
ATOM     12  C   UNL     1       1.144   9.352  19.397  0.00  0.00    +0.000 A 
ATOM     13  C   UNL     1       0.758   9.122  20.707  0.00  0.00    +0.000 A 
ATOM     14  C   UNL     1       0.010  10.202  21.247  0.00  0.00    +0.000 A 
ATOM     15 BR   UNL     1      -0.628  10.134  23.024  0.00  0.00    +0.000 Br
ATOM     16  C   UNL     1      -0.156  11.217  20.342  0.00  0.00    +0.000 A 
ATOM     17 BR   UNL     1      -1.080  12.820  20.651  0.00  0.00    +0.000 Br
ATOM     18  S   UNL     1       0.581  10.880  18.849  0.00  0.00    +0.000 S 
ENDBRANCH   9  12
ENDBRANCH   7  10
ENDBRANCH   1   7
BRANCH   5  19
ATOM     19  C   UNL     1       3.832   3.472  17.312  0.00  0.00    +0.000 C 
BRANCH  19  20
ATOM     20  C   UNL     1       5.080   4.006  16.636  0.00  0.00    +0.000 A 
ATOM     21  C   UNL     1       5.142   4.091  15.235  0.00  0.00    +0.000 A 
ATOM     22  C   UNL     1       6.294   4.562  14.603  0.00  0.00    +0.000 A 
ATOM     23  C   UNL     1       7.393   4.957  15.362  0.00  0.00    +0.000 A 
ATOM     24  C   UNL     1       7.340   4.888  16.752  0.00  0.00    +0.000 A 
ATOM     25  C   UNL     1       6.190   4.417  17.388  0.00  0.00    +0.000 A 
ENDBRANCH  19  20
ENDBRANCH   5  19
TORSDOF 5
ENDMDL
