MODEL 1
REMARK VINA RESULT:      -8.0      0.000      0.000
REMARK  Name = 
REMARK  7 active torsions:
REMARK  status: ('A' for Active; 'I' for Inactive)
REMARK    1  A    between atoms: C_1  and  O_2
REMARK    2  A    between atoms: O_2  and  C_3
REMARK    3  A    between atoms: C_9  and  C_10
REMARK    4  A    between atoms: N_12  and  N_13
REMARK    5  A    between atoms: C_14  and  C_15
REMARK    6  A    between atoms: C_20  and  C_21
REMARK    7  A    between atoms: N_22  and  C_23
REMARK                            x       y       z     vdW  Elec       q    Type
REMARK                         _______ _______ _______ _____ _____    ______ ____
ROOT
ATOM      1  C   UNL     1       6.668   6.298  16.899  0.00  0.00    +0.000 A 
ATOM      2  C   UNL     1       6.881   4.947  16.647  0.00  0.00    +0.000 A 
ATOM      3  C   UNL     1       5.898   3.998  16.935  0.00  0.00    +0.000 A 
ATOM      4  C   UNL     1       4.684   4.437  17.486  0.00  0.00    +0.000 A 
ATOM      5  C   UNL     1       4.430   5.779  17.754  0.00  0.00    +0.000 A 
ATOM      6  C   UNL     1       5.446   6.718  17.449  0.00  0.00    +0.000 A 
ATOM      7  C   UNL     1       3.104   5.875  18.318  0.00  0.00    +0.000 A 
ATOM      8  C   UNL     1       2.604   4.570  18.397  0.00  0.00    +0.000 A 
ATOM      9  C   UNL     1       1.346   4.016  18.980  0.00  0.00    +0.000 C 
ATOM     10  N   UNL     1       3.568   3.728  17.875  0.00  0.00    +0.000 N 
ATOM     11  C   UNL     1       3.503   2.282  17.775  0.00  0.00    +0.000 C 
ENDROOT
BRANCH   7  12
ATOM     12  C   UNL     1       2.498   7.139  18.776  0.00  0.00    +0.000 C 
ATOM     13  O   UNL     1       2.155   8.004  17.971  0.00  0.00    +0.000 OA
ATOM     14  N   UNL     1       2.305   7.262  20.148  0.00  0.00    +0.000 N 
ATOM     15  H   UNL     1       2.497   6.484  20.764  0.00  0.00    +0.000 HD
BRANCH  14  16
ATOM     16  N   UNL     1       1.714   8.401  20.636  0.00  0.00    +0.000 NA
ATOM     17  C   UNL     1       0.542   8.290  21.175  0.00  0.00    +0.000 C 
BRANCH  17  18
ATOM     18  C   UNL     1      -0.123   9.462  21.699  0.00  0.00    +0.000 A 
ATOM     19  C   UNL     1      -0.540   9.716  22.993  0.00  0.00    +0.000 A 
ATOM     20  C   UNL     1      -1.183  10.978  23.120  0.00  0.00    +0.000 A 
ATOM     21  C   UNL     1      -1.231  11.656  21.923  0.00  0.00    +0.000 A 
ATOM     22  S   UNL     1      -0.490  10.768  20.657  0.00  0.00    +0.000 S 
ENDBRANCH  17  18
ENDBRANCH  14  16
ENDBRANCH   7  12
BRANCH   1  24
ATOM     23  C   UNL     1       7.793   8.229  17.708  0.00  0.00    +0.000 C 
ATOM     24  O   UNL     1       7.569   7.301  16.653  0.00  0.00    +0.000 OA
ENDBRANCH   1  24
TORSDOF 4
ENDMDL
MODEL 2
REMARK VINA RESULT:      -7.6      1.666      3.761
REMARK  Name = 
REMARK  7 active torsions:
REMARK  status: ('A' for Active; 'I' for Inactive)
REMARK    1  A    between atoms: C_1  and  O_2
REMARK    2  A    between atoms: O_2  and  C_3
REMARK    3  A    between atoms: C_9  and  C_10
REMARK    4  A    between atoms: N_12  and  N_13
REMARK    5  A    between atoms: C_14  and  C_15
REMARK    6  A    between atoms: C_20  and  C_21
REMARK    7  A    between atoms: N_22  and  C_23
REMARK                            x       y       z     vdW  Elec       q    Type
REMARK                         _______ _______ _______ _____ _____    ______ ____
ROOT
ATOM      1  C   UNL     1       2.092   2.688  19.486  0.00  0.00    +0.000 A 
ATOM      2  C   UNL     1       2.925   1.833  18.773  0.00  0.00    +0.000 A 
ATOM      3  C   UNL     1       3.853   2.332  17.856  0.00  0.00    +0.000 A 
ATOM      4  C   UNL     1       3.929   3.721  17.668  0.00  0.00    +0.000 A 
ATOM      5  C   UNL     1       3.114   4.611  18.361  0.00  0.00    +0.000 A 
ATOM      6  C   UNL     1       2.184   4.075  19.286  0.00  0.00    +0.000 A 
ATOM      7  C   UNL     1       3.446   5.947  17.924  0.00  0.00    +0.000 A 
ATOM      8  C   UNL     1       4.444   5.817  16.951  0.00  0.00    +0.000 A 
ATOM      9  C   UNL     1       5.113   6.816  16.067  0.00  0.00    +0.000 C 
ATOM     10  N   UNL     1       4.727   4.469  16.830  0.00  0.00    +0.000 N 
ATOM     11  C   UNL     1       5.677   3.854  15.923  0.00  0.00    +0.000 C 
ENDROOT
BRANCH   7  12
ATOM     12  C   UNL     1       2.757   7.160  18.401  0.00  0.00    +0.000 C 
ATOM     13  O   UNL     1       2.378   8.025  17.612  0.00  0.00    +0.000 OA
ATOM     14  N   UNL     1       2.529   7.234  19.772  0.00  0.00    +0.000 N 
ATOM     15  H   UNL     1       2.756   6.453  20.372  0.00  0.00    +0.000 HD
BRANCH  14  16
ATOM     16  N   UNL     1       1.862   8.323  20.276  0.00  0.00    +0.000 NA
ATOM     17  C   UNL     1       0.918   8.108  21.135  0.00  0.00    +0.000 C 
BRANCH  17  18
ATOM     18  C   UNL     1       0.183   9.222  21.691  0.00  0.00    +0.000 A 
ATOM     19  C   UNL     1      -0.266   9.404  22.987  0.00  0.00    +0.000 A 
ATOM     20  C   UNL     1      -0.978  10.624  23.150  0.00  0.00    +0.000 A 
ATOM     21  C   UNL     1      -1.044  11.344  21.979  0.00  0.00    +0.000 A 
ATOM     22  S   UNL     1      -0.238  10.546  20.693  0.00  0.00    +0.000 S 
ENDBRANCH  17  18
ENDBRANCH  14  16
ENDBRANCH   7  12
BRANCH   1  24
ATOM     23  C   UNL     1       1.345   2.738  21.742  0.00  0.00    +0.000 C 
ATOM     24  O   UNL     1       1.153   2.296  20.403  0.00  0.00    +0.000 OA
ENDBRANCH   1  24
TORSDOF 4
ENDMDL
MODEL 3
REMARK VINA RESULT:      -7.3      2.074      2.100
REMARK  Name = 
REMARK  7 active torsions:
REMARK  status: ('A' for Active; 'I' for Inactive)
REMARK    1  A    between atoms: C_1  and  O_2
REMARK    2  A    between atoms: O_2  and  C_3
REMARK    3  A    between atoms: C_9  and  C_10
REMARK    4  A    between atoms: N_12  and  N_13
REMARK    5  A    between atoms: C_14  and  C_15
REMARK    6  A    between atoms: C_20  and  C_21
REMARK    7  A    between atoms: N_22  and  C_23
REMARK                            x       y       z     vdW  Elec       q    Type
REMARK                         _______ _______ _______ _____ _____    ______ ____
ROOT
ATOM      1  C   UNL     1       6.829   6.280  16.851  0.00  0.00    +0.000 A 
ATOM      2  C   UNL     1       7.008   4.928  16.582  0.00  0.00    +0.000 A 
ATOM      3  C   UNL     1       5.988   4.005  16.824  0.00  0.00    +0.000 A 
ATOM      4  C   UNL     1       4.771   4.473  17.345  0.00  0.00    +0.000 A 
ATOM      5  C   UNL     1       4.550   5.817  17.628  0.00  0.00    +0.000 A 
ATOM      6  C   UNL     1       5.604   6.729  17.371  0.00  0.00    +0.000 A 
ATOM      7  C   UNL     1       3.211   5.945  18.154  0.00  0.00    +0.000 A 
ATOM      8  C   UNL     1       2.669   4.655  18.195  0.00  0.00    +0.000 A 
ATOM      9  C   UNL     1       1.378   4.131  18.730  0.00  0.00    +0.000 C 
ATOM     10  N   UNL     1       3.623   3.792  17.688  0.00  0.00    +0.000 N 
ATOM     11  C   UNL     1       3.517   2.351  17.561  0.00  0.00    +0.000 C 
ENDROOT
BRANCH   7  12
ATOM     12  C   UNL     1       2.631   7.219  18.615  0.00  0.00    +0.000 C 
ATOM     13  O   UNL     1       2.355   7.397  19.801  0.00  0.00    +0.000 OA
ATOM     14  N   UNL     1       2.462   8.201  17.643  0.00  0.00    +0.000 N 
ATOM     15  H   UNL     1       2.805   8.055  16.704  0.00  0.00    +0.000 HD
BRANCH  14  16
ATOM     16  N   UNL     1       1.957   9.422  18.015  0.00  0.00    +0.000 NA
ATOM     17  C   UNL     1       0.674   9.528  18.153  0.00  0.00    +0.000 C 
BRANCH  17  18
ATOM     18  C   UNL     1       0.094  10.795  18.538  0.00  0.00    +0.000 A 
ATOM     19  C   UNL     1      -1.224  11.207  18.450  0.00  0.00    +0.000 A 
ATOM     20  C   UNL     1      -1.409  12.540  18.909  0.00  0.00    +0.000 A 
ATOM     21  C   UNL     1      -0.232  13.105  19.343  0.00  0.00    +0.000 A 
ATOM     22  S   UNL     1       1.088  12.018  19.203  0.00  0.00    +0.000 S 
ENDBRANCH  17  18
ENDBRANCH  14  16
ENDBRANCH   7  12
BRANCH   1  24
ATOM     23  C   UNL     1       7.897   8.237  17.675  0.00  0.00    +0.000 C 
ATOM     24  O   UNL     1       7.767   7.259  16.650  0.00  0.00    +0.000 OA
ENDBRANCH   1  24
TORSDOF 4
ENDMDL
MODEL 4
REMARK VINA RESULT:      -7.3      4.539      7.064
REMARK  Name = 
REMARK  7 active torsions:
REMARK  status: ('A' for Active; 'I' for Inactive)
REMARK    1  A    between atoms: C_1  and  O_2
REMARK    2  A    between atoms: O_2  and  C_3
REMARK    3  A    between atoms: C_9  and  C_10
REMARK    4  A    between atoms: N_12  and  N_13
REMARK    5  A    between atoms: C_14  and  C_15
REMARK    6  A    between atoms: C_20  and  C_21
REMARK    7  A    between atoms: N_22  and  C_23
REMARK                            x       y       z     vdW  Elec       q    Type
REMARK                         _______ _______ _______ _____ _____    ______ ____
ROOT
ATOM      1  C   UNL     1       3.355   4.532  19.307  0.00  0.00    +0.000 A 
ATOM      2  C   UNL     1       2.777   3.843  18.247  0.00  0.00    +0.000 A 
ATOM      3  C   UNL     1       3.432   3.733  17.018  0.00  0.00    +0.000 A 
ATOM      4  C   UNL     1       4.693   4.334  16.875  0.00  0.00    +0.000 A 
ATOM      5  C   UNL     1       5.306   5.032  17.910  0.00  0.00    +0.000 A 
ATOM      6  C   UNL     1       4.617   5.125  19.145  0.00  0.00    +0.000 A 
ATOM      7  C   UNL     1       6.575   5.522  17.424  0.00  0.00    +0.000 A 
ATOM      8  C   UNL     1       6.676   5.120  16.086  0.00  0.00    +0.000 A 
ATOM      9  C   UNL     1       7.692   5.407  15.032  0.00  0.00    +0.000 C 
ATOM     10  N   UNL     1       5.538   4.394  15.788  0.00  0.00    +0.000 N 
ATOM     11  C   UNL     1       5.191   3.799  14.511  0.00  0.00    +0.000 C 
ENDROOT
BRANCH   7  12
ATOM     12  C   UNL     1       7.493   6.353  18.224  0.00  0.00    +0.000 C 
ATOM     13  O   UNL     1       8.092   5.883  19.190  0.00  0.00    +0.000 OA
ATOM     14  N   UNL     1       7.667   7.664  17.789  0.00  0.00    +0.000 N 
ATOM     15  H   UNL     1       7.244   7.977  16.927  0.00  0.00    +0.000 HD
BRANCH  14  16
ATOM     16  N   UNL     1       8.535   8.479  18.471  0.00  0.00    +0.000 NA
ATOM     17  C   UNL     1       8.489   9.750  18.227  0.00  0.00    +0.000 C 
BRANCH  17  18
ATOM     18  C   UNL     1       9.386  10.649  18.916  0.00  0.00    +0.000 A 
ATOM     19  C   UNL     1       9.529  10.856  20.277  0.00  0.00    +0.000 A 
ATOM     20  C   UNL     1      10.505  11.845  20.577  0.00  0.00    +0.000 A 
ATOM     21  C   UNL     1      11.086  12.359  19.441  0.00  0.00    +0.000 A 
ATOM     22  S   UNL     1      10.457  11.636  18.019  0.00  0.00    +0.000 S 
ENDBRANCH  17  18
ENDBRANCH  14  16
ENDBRANCH   7  12
BRANCH   1  24
ATOM     23  C   UNL     1       1.431   4.304  20.684  0.00  0.00    +0.000 C 
ATOM     24  O   UNL     1       2.792   4.696  20.546  0.00  0.00    +0.000 OA
ENDBRANCH   1  24
TORSDOF 4
ENDMDL
MODEL 5
REMARK VINA RESULT:      -7.2      2.218      2.494
REMARK  Name = 
REMARK  7 active torsions:
REMARK  status: ('A' for Active; 'I' for Inactive)
REMARK    1  A    between atoms: C_1  and  O_2
REMARK    2  A    between atoms: O_2  and  C_3
REMARK    3  A    between atoms: C_9  and  C_10
REMARK    4  A    between atoms: N_12  and  N_13
REMARK    5  A    between atoms: C_14  and  C_15
REMARK    6  A    between atoms: C_20  and  C_21
REMARK    7  A    between atoms: N_22  and  C_23
REMARK                            x       y       z     vdW  Elec       q    Type
REMARK                         _______ _______ _______ _____ _____    ______ ____
ROOT
ATOM      1  C   UNL     1       6.668   6.367  16.900  0.00  0.00    +0.000 A 
ATOM      2  C   UNL     1       6.899   5.025  16.618  0.00  0.00    +0.000 A 
ATOM      3  C   UNL     1       5.924   4.058  16.875  0.00  0.00    +0.000 A 
ATOM      4  C   UNL     1       4.700   4.471  17.424  0.00  0.00    +0.000 A 
ATOM      5  C   UNL     1       4.428   5.802  17.722  0.00  0.00    +0.000 A 
ATOM      6  C   UNL     1       5.437   6.760  17.449  0.00  0.00    +0.000 A 
ATOM      7  C   UNL     1       3.097   5.871  18.276  0.00  0.00    +0.000 A 
ATOM      8  C   UNL     1       2.611   4.558  18.320  0.00  0.00    +0.000 A 
ATOM      9  C   UNL     1       1.354   3.976  18.878  0.00  0.00    +0.000 C 
ATOM     10  N   UNL     1       3.590   3.739  17.787  0.00  0.00    +0.000 N 
ATOM     11  C   UNL     1       3.542   2.296  17.652  0.00  0.00    +0.000 C 
ENDROOT
BRANCH   7  12
ATOM     12  C   UNL     1       2.473   7.116  18.759  0.00  0.00    +0.000 C 
ATOM     13  O   UNL     1       2.334   7.330  19.962  0.00  0.00    +0.000 OA
ATOM     14  N   UNL     1       2.101   8.032  17.779  0.00  0.00    +0.000 N 
ATOM     15  H   UNL     1       2.334   7.868  16.810  0.00  0.00    +0.000 HD
BRANCH  14  16
ATOM     16  N   UNL     1       1.545   9.227  18.165  0.00  0.00    +0.000 NA
ATOM     17  C   UNL     1       2.245  10.302  17.995  0.00  0.00    +0.000 C 
BRANCH  17  18
ATOM     18  C   UNL     1       1.705  11.583  18.389  0.00  0.00    +0.000 A 
ATOM     19  C   UNL     1       2.273  12.839  18.265  0.00  0.00    +0.000 A 
ATOM     20  C   UNL     1       1.443  13.866  18.793  0.00  0.00    +0.000 A 
ATOM     21  C   UNL     1       0.263  13.368  19.296  0.00  0.00    +0.000 A 
ATOM     22  S   UNL     1       0.160  11.666  19.119  0.00  0.00    +0.000 S 
ENDBRANCH  17  18
ENDBRANCH  14  16
ENDBRANCH   7  12
BRANCH   1  24
ATOM     23  C   UNL     1       7.907   8.177  17.817  0.00  0.00    +0.000 C 
ATOM     24  O   UNL     1       7.560   7.385  16.687  0.00  0.00    +0.000 OA
ENDBRANCH   1  24
TORSDOF 4
ENDMDL
MODEL 6
REMARK VINA RESULT:      -7.1      1.391      1.559
REMARK  Name = 
REMARK  7 active torsions:
REMARK  status: ('A' for Active; 'I' for Inactive)
REMARK    1  A    between atoms: C_1  and  O_2
REMARK    2  A    between atoms: O_2  and  C_3
REMARK    3  A    between atoms: C_9  and  C_10
REMARK    4  A    between atoms: N_12  and  N_13
REMARK    5  A    between atoms: C_14  and  C_15
REMARK    6  A    between atoms: C_20  and  C_21
REMARK    7  A    between atoms: N_22  and  C_23
REMARK                            x       y       z     vdW  Elec       q    Type
REMARK                         _______ _______ _______ _____ _____    ______ ____
ROOT
ATOM      1  C   UNL     1       5.413   5.157  16.264  0.00  0.00    +0.000 A 
ATOM      2  C   UNL     1       5.405   3.767  16.310  0.00  0.00    +0.000 A 
ATOM      3  C   UNL     1       4.511   3.080  17.135  0.00  0.00    +0.000 A 
ATOM      4  C   UNL     1       3.615   3.824  17.918  0.00  0.00    +0.000 A 
ATOM      5  C   UNL     1       3.589   5.215  17.902  0.00  0.00    +0.000 A 
ATOM      6  C   UNL     1       4.508   5.883  17.054  0.00  0.00    +0.000 A 
ATOM      7  C   UNL     1       2.564   5.651  18.821  0.00  0.00    +0.000 A 
ATOM      8  C   UNL     1       2.015   4.495  19.389  0.00  0.00    +0.000 A 
ATOM      9  C   UNL     1       1.004   4.296  20.469  0.00  0.00    +0.000 C 
ATOM     10  N   UNL     1       2.654   3.411  18.815  0.00  0.00    +0.000 N 
ATOM     11  C   UNL     1       2.434   2.009  19.115  0.00  0.00    +0.000 C 
ENDROOT
BRANCH   7  12
ATOM     12  C   UNL     1       2.272   7.066  19.112  0.00  0.00    +0.000 C 
ATOM     13  O   UNL     1       2.394   7.928  18.244  0.00  0.00    +0.000 OA
ATOM     14  N   UNL     1       1.815   7.344  20.397  0.00  0.00    +0.000 N 
ATOM     15  H   UNL     1       1.622   6.593  21.045  0.00  0.00    +0.000 HD
BRANCH  14  16
ATOM     16  N   UNL     1       1.493   8.638  20.721  0.00  0.00    +0.000 NA
ATOM     17  C   UNL     1       0.425   8.837  21.424  0.00  0.00    +0.000 C 
BRANCH  17  18
ATOM     18  C   UNL     1       0.042  10.183  21.787  0.00  0.00    +0.000 A 
ATOM     19  C   UNL     1      -0.786  10.601  22.814  0.00  0.00    +0.000 A 
ATOM     20  C   UNL     1      -0.946  12.014  22.842  0.00  0.00    +0.000 A 
ATOM     21  C   UNL     1      -0.231  12.635  21.844  0.00  0.00    +0.000 A 
ATOM     22  S   UNL     1       0.637  11.509  20.886  0.00  0.00    +0.000 S 
ENDBRANCH  17  18
ENDBRANCH  14  16
ENDBRANCH   7  12
BRANCH   1  24
ATOM     23  C   UNL     1       6.999   5.232  14.496  0.00  0.00    +0.000 C 
ATOM     24  O   UNL     1       6.250   5.919  15.492  0.00  0.00    +0.000 OA
ENDBRANCH   1  24
TORSDOF 4
ENDMDL
MODEL 7
REMARK VINA RESULT:      -7.0      1.548      3.742
REMARK  Name = 
REMARK  7 active torsions:
REMARK  status: ('A' for Active; 'I' for Inactive)
REMARK    1  A    between atoms: C_1  and  O_2
REMARK    2  A    between atoms: O_2  and  C_3
REMARK    3  A    between atoms: C_9  and  C_10
REMARK    4  A    between atoms: N_12  and  N_13
REMARK    5  A    between atoms: C_14  and  C_15
REMARK    6  A    between atoms: C_20  and  C_21
REMARK    7  A    between atoms: N_22  and  C_23
REMARK                            x       y       z     vdW  Elec       q    Type
REMARK                         _______ _______ _______ _____ _____    ______ ____
ROOT
ATOM      1  C   UNL     1       1.925   3.088  17.892  0.00  0.00    +0.000 A 
ATOM      2  C   UNL     1       2.992   2.354  17.386  0.00  0.00    +0.000 A 
ATOM      3  C   UNL     1       4.203   2.973  17.066  0.00  0.00    +0.000 A 
ATOM      4  C   UNL     1       4.322   4.357  17.268  0.00  0.00    +0.000 A 
ATOM      5  C   UNL     1       3.279   5.128  17.771  0.00  0.00    +0.000 A 
ATOM      6  C   UNL     1       2.064   4.471  18.087  0.00  0.00    +0.000 A 
ATOM      7  C   UNL     1       3.733   6.497  17.841  0.00  0.00    +0.000 A 
ATOM      8  C   UNL     1       5.044   6.512  17.348  0.00  0.00    +0.000 A 
ATOM      9  C   UNL     1       5.995   7.630  17.075  0.00  0.00    +0.000 C 
ATOM     10  N   UNL     1       5.377   5.209  17.026  0.00  0.00    +0.000 N 
ATOM     11  C   UNL     1       6.626   4.744  16.454  0.00  0.00    +0.000 C 
ENDROOT
BRANCH   7  12
ATOM     12  C   UNL     1       2.886   7.620  18.283  0.00  0.00    +0.000 C 
ATOM     13  O   UNL     1       2.654   8.569  17.535  0.00  0.00    +0.000 OA
ATOM     14  N   UNL     1       2.343   7.510  19.559  0.00  0.00    +0.000 N 
ATOM     15  H   UNL     1       2.467   6.664  20.097  0.00  0.00    +0.000 HD
BRANCH  14  16
ATOM     16  N   UNL     1       1.518   8.508  20.017  0.00  0.00    +0.000 NA
ATOM     17  C   UNL     1       1.294   8.570  21.290  0.00  0.00    +0.000 C 
BRANCH  17  18
ATOM     18  C   UNL     1       0.428   9.599  21.820  0.00  0.00    +0.000 A 
ATOM     19  C   UNL     1      -0.410   9.546  22.919  0.00  0.00    +0.000 A 
ATOM     20  C   UNL     1      -1.127  10.758  23.116  0.00  0.00    +0.000 A 
ATOM     21  C   UNL     1      -0.811  11.705  22.169  0.00  0.00    +0.000 A 
ATOM     22  S   UNL     1       0.358  11.127  21.054  0.00  0.00    +0.000 S 
ENDBRANCH  17  18
ENDBRANCH  14  16
ENDBRANCH   7  12
BRANCH   1  24
ATOM     23  C   UNL     1       0.517   2.221  19.599  0.00  0.00    +0.000 C 
ATOM     24  O   UNL     1       0.701   2.573  18.233  0.00  0.00    +0.000 OA
ENDBRANCH   1  24
TORSDOF 4
ENDMDL
MODEL 8
REMARK VINA RESULT:      -7.0      2.598      4.284
REMARK  Name = 
REMARK  7 active torsions:
REMARK  status: ('A' for Active; 'I' for Inactive)
REMARK    1  A    between atoms: C_1  and  O_2
REMARK    2  A    between atoms: O_2  and  C_3
REMARK    3  A    between atoms: C_9  and  C_10
REMARK    4  A    between atoms: N_12  and  N_13
REMARK    5  A    between atoms: C_14  and  C_15
REMARK    6  A    between atoms: C_20  and  C_21
REMARK    7  A    between atoms: N_22  and  C_23
REMARK                            x       y       z     vdW  Elec       q    Type
REMARK                         _______ _______ _______ _____ _____    ______ ____
ROOT
ATOM      1  C   UNL     1       2.139   2.620  19.344  0.00  0.00    +0.000 A 
ATOM      2  C   UNL     1       2.937   1.787  18.568  0.00  0.00    +0.000 A 
ATOM      3  C   UNL     1       3.855   2.315  17.657  0.00  0.00    +0.000 A 
ATOM      4  C   UNL     1       3.956   3.710  17.540  0.00  0.00    +0.000 A 
ATOM      5  C   UNL     1       3.176   4.579  18.297  0.00  0.00    +0.000 A 
ATOM      6  C   UNL     1       2.255   4.013  19.214  0.00  0.00    +0.000 A 
ATOM      7  C   UNL     1       3.525   5.929  17.923  0.00  0.00    +0.000 A 
ATOM      8  C   UNL     1       4.499   5.830  16.922  0.00  0.00    +0.000 A 
ATOM      9  C   UNL     1       5.169   6.861  16.075  0.00  0.00    +0.000 C 
ATOM     10  N   UNL     1       4.750   4.485  16.723  0.00  0.00    +0.000 N 
ATOM     11  C   UNL     1       5.668   3.900  15.764  0.00  0.00    +0.000 C 
ENDROOT
BRANCH   7  12
ATOM     12  C   UNL     1       2.873   7.128  18.478  0.00  0.00    +0.000 C 
ATOM     13  O   UNL     1       2.668   7.235  19.686  0.00  0.00    +0.000 OA
ATOM     14  N   UNL     1       2.553   8.128  17.564  0.00  0.00    +0.000 N 
ATOM     15  H   UNL     1       2.838   8.050  16.598  0.00  0.00    +0.000 HD
BRANCH  14  16
ATOM     16  N   UNL     1       1.973   9.286  18.023  0.00  0.00    +0.000 NA
ATOM     17  C   UNL     1       0.683   9.377  17.968  0.00  0.00    +0.000 C 
BRANCH  17  18
ATOM     18  C   UNL     1       0.027  10.578  18.435  0.00  0.00    +0.000 A 
ATOM     19  C   UNL     1      -1.285  10.976  18.250  0.00  0.00    +0.000 A 
ATOM     20  C   UNL     1      -1.560  12.239  18.842  0.00  0.00    +0.000 A 
ATOM     21  C   UNL     1      -0.454  12.766  19.469  0.00  0.00    +0.000 A 
ATOM     22  S   UNL     1       0.905  11.727  19.348  0.00  0.00    +0.000 S 
ENDBRANCH  17  18
ENDBRANCH  14  16
ENDBRANCH   7  12
BRANCH   1  24
ATOM     23  C   UNL     1       1.439   2.572  21.615  0.00  0.00    +0.000 C 
ATOM     24  O   UNL     1       1.212   2.198  20.261  0.00  0.00    +0.000 OA
ENDBRANCH   1  24
TORSDOF 4
ENDMDL
MODEL 9
REMARK VINA RESULT:      -6.9      1.061      1.093
REMARK  Name = 
REMARK  7 active torsions:
REMARK  status: ('A' for Active; 'I' for Inactive)
REMARK    1  A    between atoms: C_1  and  O_2
REMARK    2  A    between atoms: O_2  and  C_3
REMARK    3  A    between atoms: C_9  and  C_10
REMARK    4  A    between atoms: N_12  and  N_13
REMARK    5  A    between atoms: C_14  and  C_15
REMARK    6  A    between atoms: C_20  and  C_21
REMARK    7  A    between atoms: N_22  and  C_23
REMARK                            x       y       z     vdW  Elec       q    Type
REMARK                         _______ _______ _______ _____ _____    ______ ____
ROOT
ATOM      1  C   UNL     1       6.301   5.792  17.815  0.00  0.00    +0.000 A 
ATOM      2  C   UNL     1       6.432   4.408  17.781  0.00  0.00    +0.000 A 
ATOM      3  C   UNL     1       5.405   3.576  18.234  0.00  0.00    +0.000 A 
ATOM      4  C   UNL     1       4.232   4.169  18.726  0.00  0.00    +0.000 A 
ATOM      5  C   UNL     1       4.059   5.549  18.778  0.00  0.00    +0.000 A 
ATOM      6  C   UNL     1       5.118   6.365  18.310  0.00  0.00    +0.000 A 
ATOM      7  C   UNL     1       2.755   5.812  19.341  0.00  0.00    +0.000 A 
ATOM      8  C   UNL     1       2.186   4.568  19.638  0.00  0.00    +0.000 A 
ATOM      9  C   UNL     1       0.915   4.189  20.322  0.00  0.00    +0.000 C 
ATOM     10  N   UNL     1       3.089   3.597  19.242  0.00  0.00    +0.000 N 
ATOM     11  C   UNL     1       2.941   2.161  19.378  0.00  0.00    +0.000 C 
ENDROOT
BRANCH   7  12
ATOM     12  C   UNL     1       2.232   7.166  19.599  0.00  0.00    +0.000 C 
ATOM     13  O   UNL     1       2.058   7.963  18.678  0.00  0.00    +0.000 OA
ATOM     14  N   UNL     1       1.913   7.456  20.922  0.00  0.00    +0.000 N 
ATOM     15  H   UNL     1       1.965   6.737  21.630  0.00  0.00    +0.000 HD
BRANCH  14  16
ATOM     16  N   UNL     1       1.390   8.689  21.223  0.00  0.00    +0.000 NA
ATOM     17  C   UNL     1       0.140   8.749  21.554  0.00  0.00    +0.000 C 
BRANCH  17  18
ATOM     18  C   UNL     1      -0.458  10.025  21.876  0.00  0.00    +0.000 A 
ATOM     19  C   UNL     1      -0.933  10.477  23.094  0.00  0.00    +0.000 A 
ATOM     20  C   UNL     1      -1.477  11.789  23.014  0.00  0.00    +0.000 A 
ATOM     21  C   UNL     1      -1.395  12.304  21.741  0.00  0.00    +0.000 A 
ATOM     22  S   UNL     1      -0.652  11.206  20.653  0.00  0.00    +0.000 S 
ENDBRANCH  17  18
ENDBRANCH  14  16
ENDBRANCH   7  12
BRANCH   1  24
ATOM     23  C   UNL     1       8.131   7.194  18.392  0.00  0.00    +0.000 C 
ATOM     24  O   UNL     1       7.249   6.688  17.397  0.00  0.00    +0.000 OA
ENDBRANCH   1  24
TORSDOF 4
ENDMDL
