MODEL 1
REMARK VINA RESULT:      -7.1      0.000      0.000
REMARK  Name = 
REMARK  10 active torsions:
REMARK  status: ('A' for Active; 'I' for Inactive)
REMARK    1  A    between atoms: C_1  and  N_2
REMARK    2  A    between atoms: C_3  and  C_5
REMARK    3  A    between atoms: C_5  and  N_6
REMARK    4  A    between atoms: C_5  and  C_28
REMARK    5  A    between atoms: C_7  and  C_9
REMARK    6  A    between atoms: C_10  and  C_11
REMARK    7  A    between atoms: N_13  and  C_14
REMARK    8  A    between atoms: C_28  and  C_29
REMARK    9  A    between atoms: C_28  and  C_30
REMARK   10  A    between atoms: C_28  and  C_31
REMARK                            x       y       z     vdW  Elec       q    Type
REMARK                         _______ _______ _______ _____ _____    ______ ____
ROOT
ATOM      1  C   UNL     1       3.596   4.933  19.886  0.00  0.00    +0.000 C 
ATOM      2  C   UNL     1       2.500   5.646  18.990  0.00  0.00    +0.000 C 
ATOM      3  C   UNL     1       1.356   4.581  18.954  0.00  0.00    +0.000 C 
ATOM      4  C   UNL     1       0.804   4.447  20.369  0.00  0.00    +0.000 C 
ATOM      5  C   UNL     1       1.752   3.842  21.110  0.00  0.00    +0.000 C 
ATOM      6  C   UNL     1       2.933   3.550  20.185  0.00  0.00    +0.000 C 
ATOM      7  C   UNL     1       2.189   3.325  18.885  0.00  0.00    +0.000 C 
ATOM      8  C   UNL     1       1.656   1.988  18.443  0.00  0.00    +0.000 C 
ATOM      9  C   UNL     1       2.736   2.678  17.640  0.00  0.00    +0.000 C 
ENDROOT
BRANCH   1  11
ATOM     10  N   UNL     1       5.077   5.547  18.044  0.00  0.00    +0.000 N 
ATOM     11  C   UNL     1       4.910   4.752  19.150  0.00  0.00    +0.000 C 
ATOM     12  O   UNL     1       5.791   3.979  19.527  0.00  0.00    +0.000 OA
ATOM     13  H   UNL     1       4.383   6.249  17.800  0.00  0.00    +0.000 HD
BRANCH  10  14
ATOM     14  C   UNL     1       6.298   5.492  17.234  0.00  0.00    +0.000 C 
BRANCH  14  17
ATOM     15  C   UNL     1       6.089   3.873  13.776  0.00  0.00    +0.000 C 
ATOM     16  N   UNL     1       6.300   4.139  15.175  0.00  0.00    +0.000 N 
ATOM     17  C   UNL     1       5.868   5.315  15.759  0.00  0.00    +0.000 C 
ATOM     18  O   UNL     1       5.230   6.170  15.148  0.00  0.00    +0.000 OA
ATOM     19  H   UNL     1       6.624   3.385  15.768  0.00  0.00    +0.000 HD
ENDBRANCH  14  17
BRANCH  14  20
ATOM     20  C   UNL     1       7.234   6.726  17.456  0.00  0.00    +0.000 C 
ATOM     21  C   UNL     1       8.161   6.921  16.235  0.00  0.00    +0.000 C 
ATOM     22  C   UNL     1       6.412   8.023  17.609  0.00  0.00    +0.000 C 
ATOM     23  C   UNL     1       8.117   6.556  18.708  0.00  0.00    +0.000 C 
ENDBRANCH  14  20
ENDBRANCH  10  14
ENDBRANCH   1  11
BRANCH   2  24
ATOM     24  C   UNL     1       2.056   6.994  19.549  0.00  0.00    +0.000 C 
ATOM     25  O   UNL     1       1.958   7.175  20.759  0.00  0.00    +0.000 OA
ATOM     26  N   UNL     1       1.839   7.953  18.568  0.00  0.00    +0.000 N 
ATOM     27  H   UNL     1       1.916   7.656  17.604  0.00  0.00    +0.000 HD
BRANCH  26  28
ATOM     28  C   UNL     1       1.404   9.284  18.766  0.00  0.00    +0.000 A 
ATOM     29  C   UNL     1       0.242   9.626  19.462  0.00  0.00    +0.000 A 
ATOM     30  C   UNL     1      -0.153  10.963  19.580  0.00  0.00    +0.000 A 
ATOM     31  C   UNL     1       0.615  11.968  19.002  0.00  0.00    +0.000 A 
ATOM     32 BR   UNL     1       0.053  13.768  19.126  0.00  0.00    +0.000 Br
ATOM     33  C   UNL     1       1.791  11.648  18.325  0.00  0.00    +0.000 A 
ATOM     34  C   UNL     1       2.187  10.311  18.217  0.00  0.00    +0.000 A 
ENDBRANCH  26  28
ENDBRANCH   2  24
TORSDOF 6
ENDMDL
MODEL 2
REMARK VINA RESULT:      -7.0      4.487      9.262
REMARK  Name = 
REMARK  10 active torsions:
REMARK  status: ('A' for Active; 'I' for Inactive)
REMARK    1  A    between atoms: C_1  and  N_2
REMARK    2  A    between atoms: C_3  and  C_5
REMARK    3  A    between atoms: C_5  and  N_6
REMARK    4  A    between atoms: C_5  and  C_28
REMARK    5  A    between atoms: C_7  and  C_9
REMARK    6  A    between atoms: C_10  and  C_11
REMARK    7  A    between atoms: N_13  and  C_14
REMARK    8  A    between atoms: C_28  and  C_29
REMARK    9  A    between atoms: C_28  and  C_30
REMARK   10  A    between atoms: C_28  and  C_31
REMARK                            x       y       z     vdW  Elec       q    Type
REMARK                         _______ _______ _______ _____ _____    ______ ____
ROOT
ATOM      1  C   UNL     1       0.627  12.116  18.606  0.00  0.00    +0.000 C 
ATOM      2  C   UNL     1       0.622  10.828  19.530  0.00  0.00    +0.000 C 
ATOM      3  C   UNL     1      -0.907  10.586  19.755  0.00  0.00    +0.000 C 
ATOM      4  C   UNL     1      -1.518  10.211  18.409  0.00  0.00    +0.000 C 
ATOM      5  C   UNL     1      -1.501  11.320  17.643  0.00  0.00    +0.000 C 
ATOM      6  C   UNL     1      -0.896  12.443  18.484  0.00  0.00    +0.000 C 
ATOM      7  C   UNL     1      -1.371  12.017  19.858  0.00  0.00    +0.000 C 
ATOM      8  C   UNL     1      -2.690  12.431  20.456  0.00  0.00    +0.000 C 
ATOM      9  C   UNL     1      -1.393  12.866  21.101  0.00  0.00    +0.000 C 
ENDROOT
BRANCH   1  11
ATOM     10  N   UNL     1       1.196  14.491  18.634  0.00  0.00    +0.000 N 
ATOM     11  C   UNL     1       1.377  13.273  19.239  0.00  0.00    +0.000 C 
ATOM     12  O   UNL     1       2.073  13.152  20.247  0.00  0.00    +0.000 OA
ATOM     13  H   UNL     1       0.543  14.594  17.861  0.00  0.00    +0.000 HD
BRANCH  10  14
ATOM     14  C   UNL     1       1.849  15.704  19.135  0.00  0.00    +0.000 C 
BRANCH  14  17
ATOM     15  C   UNL     1       5.533  16.644  18.716  0.00  0.00    +0.000 C 
ATOM     16  N   UNL     1       4.218  16.372  19.238  0.00  0.00    +0.000 N 
ATOM     17  C   UNL     1       3.235  15.798  18.455  0.00  0.00    +0.000 C 
ATOM     18  O   UNL     1       3.432  15.429  17.299  0.00  0.00    +0.000 OA
ATOM     19  H   UNL     1       4.067  16.455  20.237  0.00  0.00    +0.000 HD
ENDBRANCH  14  17
BRANCH  14  20
ATOM     20  C   UNL     1       0.981  16.991  18.938  0.00  0.00    +0.000 C 
ATOM     21  C   UNL     1      -0.514  16.616  18.828  0.00  0.00    +0.000 C 
ATOM     22  C   UNL     1       1.120  17.940  20.147  0.00  0.00    +0.000 C 
ATOM     23  C   UNL     1       1.380  17.761  17.664  0.00  0.00    +0.000 C 
ENDBRANCH  14  20
ENDBRANCH  10  14
ENDBRANCH   1  11
BRANCH   2  24
ATOM     24  C   UNL     1       1.338   9.638  18.899  0.00  0.00    +0.000 C 
ATOM     25  O   UNL     1       1.724   9.678  17.735  0.00  0.00    +0.000 OA
ATOM     26  N   UNL     1       1.531   8.581  19.779  0.00  0.00    +0.000 N 
ATOM     27  H   UNL     1       1.123   8.665  20.701  0.00  0.00    +0.000 HD
BRANCH  26  28
ATOM     28  C   UNL     1       2.141   7.339  19.490  0.00  0.00    +0.000 A 
ATOM     29  C   UNL     1       2.920   7.101  18.354  0.00  0.00    +0.000 A 
ATOM     30  C   UNL     1       3.455   5.832  18.107  0.00  0.00    +0.000 A 
ATOM     31  C   UNL     1       3.217   4.792  18.999  0.00  0.00    +0.000 A 
ATOM     32 BR   UNL     1       3.906   3.070  18.638  0.00  0.00    +0.000 Br
ATOM     33  C   UNL     1       2.464   5.017  20.150  0.00  0.00    +0.000 A 
ATOM     34  C   UNL     1       1.938   6.288  20.398  0.00  0.00    +0.000 A 
ENDBRANCH  26  28
ENDBRANCH   2  24
TORSDOF 6
ENDMDL
MODEL 3
REMARK VINA RESULT:      -7.0      0.168      1.167
REMARK  Name = 
REMARK  10 active torsions:
REMARK  status: ('A' for Active; 'I' for Inactive)
REMARK    1  A    between atoms: C_1  and  N_2
REMARK    2  A    between atoms: C_3  and  C_5
REMARK    3  A    between atoms: C_5  and  N_6
REMARK    4  A    between atoms: C_5  and  C_28
REMARK    5  A    between atoms: C_7  and  C_9
REMARK    6  A    between atoms: C_10  and  C_11
REMARK    7  A    between atoms: N_13  and  C_14
REMARK    8  A    between atoms: C_28  and  C_29
REMARK    9  A    between atoms: C_28  and  C_30
REMARK   10  A    between atoms: C_28  and  C_31
REMARK                            x       y       z     vdW  Elec       q    Type
REMARK                         _______ _______ _______ _____ _____    ______ ____
ROOT
ATOM      1  C   UNL     1       3.598   5.056  19.849  0.00  0.00    +0.000 C 
ATOM      2  C   UNL     1       2.513   5.761  18.933  0.00  0.00    +0.000 C 
ATOM      3  C   UNL     1       1.354   4.712  18.923  0.00  0.00    +0.000 C 
ATOM      4  C   UNL     1       0.798   4.624  20.340  0.00  0.00    +0.000 C 
ATOM      5  C   UNL     1       1.736   4.025  21.098  0.00  0.00    +0.000 C 
ATOM      6  C   UNL     1       2.914   3.692  20.184  0.00  0.00    +0.000 C 
ATOM      7  C   UNL     1       2.169   3.444  18.888  0.00  0.00    +0.000 C 
ATOM      8  C   UNL     1       1.617   2.102  18.481  0.00  0.00    +0.000 C 
ATOM      9  C   UNL     1       2.707   2.756  17.662  0.00  0.00    +0.000 C 
ENDROOT
BRANCH   1  11
ATOM     10  N   UNL     1       5.120   5.649  18.034  0.00  0.00    +0.000 N 
ATOM     11  C   UNL     1       4.910   4.837  19.121  0.00  0.00    +0.000 C 
ATOM     12  O   UNL     1       5.754   4.020  19.487  0.00  0.00    +0.000 OA
ATOM     13  H   UNL     1       4.459   6.384  17.800  0.00  0.00    +0.000 HD
BRANCH  10  14
ATOM     14  C   UNL     1       6.346   5.560  17.234  0.00  0.00    +0.000 C 
BRANCH  14  17
ATOM     15  C   UNL     1       6.209   3.926  13.778  0.00  0.00    +0.000 C 
ATOM     16  N   UNL     1       6.409   4.205  15.177  0.00  0.00    +0.000 N 
ATOM     17  C   UNL     1       5.923   5.360  15.760  0.00  0.00    +0.000 C 
ATOM     18  O   UNL     1       5.244   6.182  15.148  0.00  0.00    +0.000 OA
ATOM     19  H   UNL     1       6.770   3.468  15.772  0.00  0.00    +0.000 HD
ENDBRANCH  14  17
BRANCH  14  20
ATOM     20  C   UNL     1       7.298   6.785  17.437  0.00  0.00    +0.000 C 
ATOM     21  C   UNL     1       6.475   8.082  17.598  0.00  0.00    +0.000 C 
ATOM     22  C   UNL     1       8.139   6.623  18.721  0.00  0.00    +0.000 C 
ATOM     23  C   UNL     1       8.257   6.967  16.245  0.00  0.00    +0.000 C 
ENDBRANCH  14  20
ENDBRANCH  10  14
ENDBRANCH   1  11
BRANCH   2  24
ATOM     24  C   UNL     1       2.089   7.130  19.455  0.00  0.00    +0.000 C 
ATOM     25  O   UNL     1       2.042   7.360  20.660  0.00  0.00    +0.000 OA
ATOM     26  N   UNL     1       1.826   8.048  18.446  0.00  0.00    +0.000 N 
ATOM     27  H   UNL     1       1.862   7.712  17.493  0.00  0.00    +0.000 HD
BRANCH  26  28
ATOM     28  C   UNL     1       1.395   9.385  18.608  0.00  0.00    +0.000 A 
ATOM     29  C   UNL     1       2.169  10.497  18.267  0.00  0.00    +0.000 A 
ATOM     30  C   UNL     1       1.698  11.794  18.498  0.00  0.00    +0.000 A 
ATOM     31  C   UNL     1       0.445  11.986  19.071  0.00  0.00    +0.000 A 
ATOM     32 BR   UNL     1      -0.168  13.739  19.421  0.00  0.00    +0.000 Br
ATOM     33  C   UNL     1      -0.351  10.889  19.395  0.00  0.00    +0.000 A 
ATOM     34  C   UNL     1       0.120   9.594  19.154  0.00  0.00    +0.000 A 
ENDBRANCH  26  28
ENDBRANCH   2  24
TORSDOF 6
ENDMDL
MODEL 4
REMARK VINA RESULT:      -6.8      4.518      9.305
REMARK  Name = 
REMARK  10 active torsions:
REMARK  status: ('A' for Active; 'I' for Inactive)
REMARK    1  A    between atoms: C_1  and  N_2
REMARK    2  A    between atoms: C_3  and  C_5
REMARK    3  A    between atoms: C_5  and  N_6
REMARK    4  A    between atoms: C_5  and  C_28
REMARK    5  A    between atoms: C_7  and  C_9
REMARK    6  A    between atoms: C_10  and  C_11
REMARK    7  A    between atoms: N_13  and  C_14
REMARK    8  A    between atoms: C_28  and  C_29
REMARK    9  A    between atoms: C_28  and  C_30
REMARK   10  A    between atoms: C_28  and  C_31
REMARK                            x       y       z     vdW  Elec       q    Type
REMARK                         _______ _______ _______ _____ _____    ______ ____
ROOT
ATOM      1  C   UNL     1       0.517  12.211  18.638  0.00  0.00    +0.000 C 
ATOM      2  C   UNL     1       0.476  10.951  19.600  0.00  0.00    +0.000 C 
ATOM      3  C   UNL     1      -1.060  10.735  19.800  0.00  0.00    +0.000 C 
ATOM      4  C   UNL     1      -1.649  10.328  18.453  0.00  0.00    +0.000 C 
ATOM      5  C   UNL     1      -1.601  11.412  17.655  0.00  0.00    +0.000 C 
ATOM      6  C   UNL     1      -0.999  12.553  18.474  0.00  0.00    +0.000 C 
ATOM      7  C   UNL     1      -1.507  12.175  19.850  0.00  0.00    +0.000 C 
ATOM      8  C   UNL     1      -2.833  12.623  20.407  0.00  0.00    +0.000 C 
ATOM      9  C   UNL     1      -1.544  13.061  21.067  0.00  0.00    +0.000 C 
ENDROOT
BRANCH   1  11
ATOM     10  N   UNL     1       1.087  14.585  18.628  0.00  0.00    +0.000 N 
ATOM     11  C   UNL     1       1.269  13.376  19.251  0.00  0.00    +0.000 C 
ATOM     12  O   UNL     1       1.967  13.270  20.260  0.00  0.00    +0.000 OA
ATOM     13  H   UNL     1       0.433  14.677  17.855  0.00  0.00    +0.000 HD
BRANCH  10  14
ATOM     14  C   UNL     1       1.742  15.805  19.109  0.00  0.00    +0.000 C 
BRANCH  14  17
ATOM     15  C   UNL     1       5.439  16.716  18.745  0.00  0.00    +0.000 C 
ATOM     16  N   UNL     1       4.110  16.473  19.244  0.00  0.00    +0.000 N 
ATOM     17  C   UNL     1       3.146  15.863  18.464  0.00  0.00    +0.000 C 
ATOM     18  O   UNL     1       3.373  15.436  17.333  0.00  0.00    +0.000 OA
ATOM     19  H   UNL     1       3.931  16.606  20.233  0.00  0.00    +0.000 HD
ENDBRANCH  14  17
BRANCH  14  20
ATOM     20  C   UNL     1       0.895  17.096  18.851  0.00  0.00    +0.000 C 
ATOM     21  C   UNL     1       1.090  18.104  20.005  0.00  0.00    +0.000 C 
ATOM     22  C   UNL     1       1.346  17.801  17.555  0.00  0.00    +0.000 C 
ATOM     23  C   UNL     1      -0.609  16.779  18.737  0.00  0.00    +0.000 C 
ENDBRANCH  14  20
ENDBRANCH  10  14
ENDBRANCH   1  11
BRANCH   2  24
ATOM     24  C   UNL     1       1.190   9.733  19.020  0.00  0.00    +0.000 C 
ATOM     25  O   UNL     1       1.574   9.722  17.855  0.00  0.00    +0.000 OA
ATOM     26  N   UNL     1       1.382   8.715  19.945  0.00  0.00    +0.000 N 
ATOM     27  H   UNL     1       0.975   8.839  20.863  0.00  0.00    +0.000 HD
BRANCH  26  28
ATOM     28  C   UNL     1       1.989   7.461  19.709  0.00  0.00    +0.000 A 
ATOM     29  C   UNL     1       1.808   6.343  20.529  0.00  0.00    +0.000 A 
ATOM     30  C   UNL     1       2.479   5.145  20.263  0.00  0.00    +0.000 A 
ATOM     31  C   UNL     1       3.334   5.056  19.170  0.00  0.00    +0.000 A 
ATOM     32 BR   UNL     1       4.271   3.448  18.840  0.00  0.00    +0.000 Br
ATOM     33  C   UNL     1       3.508   6.152  18.327  0.00  0.00    +0.000 A 
ATOM     34  C   UNL     1       2.830   7.346  18.592  0.00  0.00    +0.000 A 
ENDBRANCH  26  28
ENDBRANCH   2  24
TORSDOF 6
ENDMDL
MODEL 5
REMARK VINA RESULT:      -6.8      4.603     10.141
REMARK  Name = 
REMARK  10 active torsions:
REMARK  status: ('A' for Active; 'I' for Inactive)
REMARK    1  A    between atoms: C_1  and  N_2
REMARK    2  A    between atoms: C_3  and  C_5
REMARK    3  A    between atoms: C_5  and  N_6
REMARK    4  A    between atoms: C_5  and  C_28
REMARK    5  A    between atoms: C_7  and  C_9
REMARK    6  A    between atoms: C_10  and  C_11
REMARK    7  A    between atoms: N_13  and  C_14
REMARK    8  A    between atoms: C_28  and  C_29
REMARK    9  A    between atoms: C_28  and  C_30
REMARK   10  A    between atoms: C_28  and  C_31
REMARK                            x       y       z     vdW  Elec       q    Type
REMARK                         _______ _______ _______ _____ _____    ______ ____
ROOT
ATOM      1  C   UNL     1       0.433  11.186  21.219  0.00  0.00    +0.000 C 
ATOM      2  C   UNL     1       0.028   9.769  20.636  0.00  0.00    +0.000 C 
ATOM      3  C   UNL     1      -0.137  10.071  19.111  0.00  0.00    +0.000 C 
ATOM      4  C   UNL     1       1.238  10.439  18.562  0.00  0.00    +0.000 C 
ATOM      5  C   UNL     1       1.559  11.644  19.072  0.00  0.00    +0.000 C 
ATOM      6  C   UNL     1       0.390  12.093  19.948  0.00  0.00    +0.000 C 
ATOM      7  C   UNL     1      -0.755  11.445  19.197  0.00  0.00    +0.000 C 
ATOM      8  C   UNL     1      -1.495  12.105  18.064  0.00  0.00    +0.000 C 
ATOM      9  C   UNL     1      -2.218  11.763  19.347  0.00  0.00    +0.000 C 
ENDROOT
BRANCH   1  11
ATOM     10  N   UNL     1      -0.749  13.035  22.290  0.00  0.00    +0.000 N 
ATOM     11  C   UNL     1      -0.549  11.678  22.265  0.00  0.00    +0.000 C 
ATOM     12  O   UNL     1      -1.162  10.923  23.020  0.00  0.00    +0.000 OA
ATOM     13  H   UNL     1      -0.309  13.637  21.599  0.00  0.00    +0.000 HD
BRANCH  10  14
ATOM     14  C   UNL     1      -1.674  13.660  23.241  0.00  0.00    +0.000 C 
BRANCH  14  17
ATOM     15  C   UNL     1       0.633  16.702  23.475  0.00  0.00    +0.000 C 
ATOM     16  N   UNL     1      -0.210  15.628  23.014  0.00  0.00    +0.000 N 
ATOM     17  C   UNL     1      -0.933  14.849  23.896  0.00  0.00    +0.000 C 
ATOM     18  O   UNL     1      -0.956  15.056  25.108  0.00  0.00    +0.000 OA
ATOM     19  H   UNL     1      -0.397  15.551  22.021  0.00  0.00    +0.000 HD
ENDBRANCH  14  17
BRANCH  14  20
ATOM     20  C   UNL     1      -3.035  14.070  22.588  0.00  0.00    +0.000 C 
ATOM     21  C   UNL     1      -3.966  12.843  22.473  0.00  0.00    +0.000 C 
ATOM     22  C   UNL     1      -3.771  15.114  23.454  0.00  0.00    +0.000 C 
ATOM     23  C   UNL     1      -2.838  14.658  21.177  0.00  0.00    +0.000 C 
ENDBRANCH  14  20
ENDBRANCH  10  14
ENDBRANCH   1  11
BRANCH   2  24
ATOM     24  C   UNL     1       1.059   8.684  20.932  0.00  0.00    +0.000 C 
ATOM     25  O   UNL     1       1.783   8.753  21.920  0.00  0.00    +0.000 OA
ATOM     26  N   UNL     1       1.040   7.641  20.015  0.00  0.00    +0.000 N 
ATOM     27  H   UNL     1       0.420   7.732  19.221  0.00  0.00    +0.000 HD
BRANCH  26  28
ATOM     28  C   UNL     1       1.882   6.505  20.006  0.00  0.00    +0.000 A 
ATOM     29  C   UNL     1       3.091   6.440  19.307  0.00  0.00    +0.000 A 
ATOM     30  C   UNL     1       3.853   5.267  19.303  0.00  0.00    +0.000 A 
ATOM     31  C   UNL     1       3.411   4.150  20.004  0.00  0.00    +0.000 A 
ATOM     32 BR   UNL     1       4.422   2.554  19.960  0.00  0.00    +0.000 Br
ATOM     33  C   UNL     1       2.220   4.204  20.727  0.00  0.00    +0.000 A 
ATOM     34  C   UNL     1       1.466   5.382  20.735  0.00  0.00    +0.000 A 
ENDBRANCH  26  28
ENDBRANCH   2  24
TORSDOF 6
ENDMDL
MODEL 6
REMARK VINA RESULT:      -6.8      4.679      9.572
REMARK  Name = 
REMARK  10 active torsions:
REMARK  status: ('A' for Active; 'I' for Inactive)
REMARK    1  A    between atoms: C_1  and  N_2
REMARK    2  A    between atoms: C_3  and  C_5
REMARK    3  A    between atoms: C_5  and  N_6
REMARK    4  A    between atoms: C_5  and  C_28
REMARK    5  A    between atoms: C_7  and  C_9
REMARK    6  A    between atoms: C_10  and  C_11
REMARK    7  A    between atoms: N_13  and  C_14
REMARK    8  A    between atoms: C_28  and  C_29
REMARK    9  A    between atoms: C_28  and  C_30
REMARK   10  A    between atoms: C_28  and  C_31
REMARK                            x       y       z     vdW  Elec       q    Type
REMARK                         _______ _______ _______ _____ _____    ______ ____
ROOT
ATOM      1  C   UNL     1       0.761  12.360  18.708  0.00  0.00    +0.000 C 
ATOM      2  C   UNL     1       0.823  10.980  19.485  0.00  0.00    +0.000 C 
ATOM      3  C   UNL     1      -0.686  10.700  19.786  0.00  0.00    +0.000 C 
ATOM      4  C   UNL     1      -1.388  10.466  18.452  0.00  0.00    +0.000 C 
ATOM      5  C   UNL     1      -1.426  11.650  17.811  0.00  0.00    +0.000 C 
ATOM      6  C   UNL     1      -0.768  12.683  18.725  0.00  0.00    +0.000 C 
ATOM      7  C   UNL     1      -1.145  12.108  20.074  0.00  0.00    +0.000 C 
ATOM      8  C   UNL     1      -2.422  12.442  20.801  0.00  0.00    +0.000 C 
ATOM      9  C   UNL     1      -1.085  12.818  21.400  0.00  0.00    +0.000 C 
ENDROOT
BRANCH   1  11
ATOM     10  N   UNL     1       1.123  14.731  19.167  0.00  0.00    +0.000 N 
ATOM     11  C   UNL     1       1.550  13.449  19.408  0.00  0.00    +0.000 C 
ATOM     12  O   UNL     1       2.486  13.216  20.174  0.00  0.00    +0.000 OA
ATOM     13  H   UNL     1       0.290  14.904  18.610  0.00  0.00    +0.000 HD
BRANCH  10  14
ATOM     14  C   UNL     1       1.781  15.890  19.779  0.00  0.00    +0.000 C 
BRANCH  14  17
ATOM     15  C   UNL     1       1.157  18.194  16.790  0.00  0.00    +0.000 C 
ATOM     16  N   UNL     1       1.014  17.353  17.951  0.00  0.00    +0.000 N 
ATOM     17  C   UNL     1       2.114  16.886  18.644  0.00  0.00    +0.000 C 
ATOM     18  O   UNL     1       3.268  17.204  18.359  0.00  0.00    +0.000 OA
ATOM     19  H   UNL     1       0.092  17.238  18.356  0.00  0.00    +0.000 HD
ENDBRANCH  14  17
BRANCH  14  20
ATOM     20  C   UNL     1       0.939  16.531  20.931  0.00  0.00    +0.000 C 
ATOM     21  C   UNL     1       1.188  15.780  22.258  0.00  0.00    +0.000 C 
ATOM     22  C   UNL     1       1.350  18.001  21.162  0.00  0.00    +0.000 C 
ATOM     23  C   UNL     1      -0.571  16.488  20.629  0.00  0.00    +0.000 C 
ENDBRANCH  14  20
ENDBRANCH  10  14
ENDBRANCH   1  11
BRANCH   2  24
ATOM     24  C   UNL     1       1.497   9.872  18.683  0.00  0.00    +0.000 C 
ATOM     25  O   UNL     1       1.796  10.037  17.504  0.00  0.00    +0.000 OA
ATOM     26  N   UNL     1       1.761   8.732  19.432  0.00  0.00    +0.000 N 
ATOM     27  H   UNL     1       1.422   8.714  20.384  0.00  0.00    +0.000 HD
BRANCH  26  28
ATOM     28  C   UNL     1       2.355   7.535  18.971  0.00  0.00    +0.000 A 
ATOM     29  C   UNL     1       3.211   7.466  17.868  0.00  0.00    +0.000 A 
ATOM     30  C   UNL     1       3.727   6.239  17.439  0.00  0.00    +0.000 A 
ATOM     31  C   UNL     1       3.391   5.070  18.113  0.00  0.00    +0.000 A 
ATOM     32 BR   UNL     1       4.056   3.410  17.502  0.00  0.00    +0.000 Br
ATOM     33  C   UNL     1       2.559   5.122  19.230  0.00  0.00    +0.000 A 
ATOM     34  C   UNL     1       2.052   6.352  19.661  0.00  0.00    +0.000 A 
ENDBRANCH  26  28
ENDBRANCH   2  24
TORSDOF 6
ENDMDL
MODEL 7
REMARK VINA RESULT:      -6.8      1.346      2.429
REMARK  Name = 
REMARK  10 active torsions:
REMARK  status: ('A' for Active; 'I' for Inactive)
REMARK    1  A    between atoms: C_1  and  N_2
REMARK    2  A    between atoms: C_3  and  C_5
REMARK    3  A    between atoms: C_5  and  N_6
REMARK    4  A    between atoms: C_5  and  C_28
REMARK    5  A    between atoms: C_7  and  C_9
REMARK    6  A    between atoms: C_10  and  C_11
REMARK    7  A    between atoms: N_13  and  C_14
REMARK    8  A    between atoms: C_28  and  C_29
REMARK    9  A    between atoms: C_28  and  C_30
REMARK   10  A    between atoms: C_28  and  C_31
REMARK                            x       y       z     vdW  Elec       q    Type
REMARK                         _______ _______ _______ _____ _____    ______ ____
ROOT
ATOM      1  C   UNL     1       3.650   5.198  19.696  0.00  0.00    +0.000 C 
ATOM      2  C   UNL     1       2.552   5.892  18.787  0.00  0.00    +0.000 C 
ATOM      3  C   UNL     1       1.373   4.867  18.850  0.00  0.00    +0.000 C 
ATOM      4  C   UNL     1       0.858   4.842  20.286  0.00  0.00    +0.000 C 
ATOM      5  C   UNL     1       1.808   4.251  21.037  0.00  0.00    +0.000 C 
ATOM      6  C   UNL     1       2.950   3.861  20.101  0.00  0.00    +0.000 C 
ATOM      7  C   UNL     1       2.162   3.582  18.838  0.00  0.00    +0.000 C 
ATOM      8  C   UNL     1       1.572   2.238  18.497  0.00  0.00    +0.000 C 
ATOM      9  C   UNL     1       2.649   2.839  17.623  0.00  0.00    +0.000 C 
ENDROOT
BRANCH   1  11
ATOM     10  N   UNL     1       5.340   5.926  18.090  0.00  0.00    +0.000 N 
ATOM     11  C   UNL     1       4.935   4.925  18.937  0.00  0.00    +0.000 C 
ATOM     12  O   UNL     1       5.600   3.901  19.088  0.00  0.00    +0.000 OA
ATOM     13  H   UNL     1       4.833   6.806  18.047  0.00  0.00    +0.000 HD
BRANCH  10  14
ATOM     14  C   UNL     1       6.566   5.812  17.295  0.00  0.00    +0.000 C 
BRANCH  14  17
ATOM     15  C   UNL     1       8.800   5.155  20.329  0.00  0.00    +0.000 C 
ATOM     16  N   UNL     1       7.778   5.629  19.432  0.00  0.00    +0.000 N 
ATOM     17  C   UNL     1       7.620   5.093  18.168  0.00  0.00    +0.000 C 
ATOM     18  O   UNL     1       8.290   4.149  17.755  0.00  0.00    +0.000 OA
ATOM     19  H   UNL     1       7.064   6.251  19.796  0.00  0.00    +0.000 HD
ENDBRANCH  14  17
BRANCH  14  20
ATOM     20  C   UNL     1       6.335   5.114  15.914  0.00  0.00    +0.000 C 
ATOM     21  C   UNL     1       5.223   5.842  15.126  0.00  0.00    +0.000 C 
ATOM     22  C   UNL     1       7.611   5.169  15.047  0.00  0.00    +0.000 C 
ATOM     23  C   UNL     1       5.921   3.639  16.081  0.00  0.00    +0.000 C 
ENDBRANCH  14  20
ENDBRANCH  10  14
ENDBRANCH   1  11
BRANCH   2  24
ATOM     24  C   UNL     1       2.171   7.287  19.271  0.00  0.00    +0.000 C 
ATOM     25  O   UNL     1       2.176   7.565  20.466  0.00  0.00    +0.000 OA
ATOM     26  N   UNL     1       1.881   8.169  18.237  0.00  0.00    +0.000 N 
ATOM     27  H   UNL     1       1.874   7.795  17.297  0.00  0.00    +0.000 HD
BRANCH  26  28
ATOM     28  C   UNL     1       1.478   9.518  18.363  0.00  0.00    +0.000 A 
ATOM     29  C   UNL     1       2.327  10.606  18.144  0.00  0.00    +0.000 A 
ATOM     30  C   UNL     1       1.874  11.916  18.332  0.00  0.00    +0.000 A 
ATOM     31  C   UNL     1       0.564  12.146  18.738  0.00  0.00    +0.000 A 
ATOM     32 BR   UNL     1      -0.031  13.915  19.033  0.00  0.00    +0.000 Br
ATOM     33  C   UNL     1      -0.305  11.074  18.937  0.00  0.00    +0.000 A 
ATOM     34  C   UNL     1       0.150   9.767  18.740  0.00  0.00    +0.000 A 
ENDBRANCH  26  28
ENDBRANCH   2  24
TORSDOF 6
ENDMDL
MODEL 8
REMARK VINA RESULT:      -6.8      4.816     10.346
REMARK  Name = 
REMARK  10 active torsions:
REMARK  status: ('A' for Active; 'I' for Inactive)
REMARK    1  A    between atoms: C_1  and  N_2
REMARK    2  A    between atoms: C_3  and  C_5
REMARK    3  A    between atoms: C_5  and  N_6
REMARK    4  A    between atoms: C_5  and  C_28
REMARK    5  A    between atoms: C_7  and  C_9
REMARK    6  A    between atoms: C_10  and  C_11
REMARK    7  A    between atoms: N_13  and  C_14
REMARK    8  A    between atoms: C_28  and  C_29
REMARK    9  A    between atoms: C_28  and  C_30
REMARK   10  A    between atoms: C_28  and  C_31
REMARK                            x       y       z     vdW  Elec       q    Type
REMARK                         _______ _______ _______ _____ _____    ______ ____
ROOT
ATOM      1  C   UNL     1       0.347  11.272  21.356  0.00  0.00    +0.000 C 
ATOM      2  C   UNL     1      -0.032   9.877  20.704  0.00  0.00    +0.000 C 
ATOM      3  C   UNL     1      -0.140  10.237  19.187  0.00  0.00    +0.000 C 
ATOM      4  C   UNL     1       1.253  10.628  18.704  0.00  0.00    +0.000 C 
ATOM      5  C   UNL     1       1.552  11.812  19.271  0.00  0.00    +0.000 C 
ATOM      6  C   UNL     1       0.351  12.226  20.119  0.00  0.00    +0.000 C 
ATOM      7  C   UNL     1      -0.764  11.606  19.302  0.00  0.00    +0.000 C 
ATOM      8  C   UNL     1      -1.463  12.308  18.167  0.00  0.00    +0.000 C 
ATOM      9  C   UNL     1      -2.233  11.916  19.409  0.00  0.00    +0.000 C 
ENDROOT
BRANCH   1  11
ATOM     10  N   UNL     1      -0.867  13.079  22.461  0.00  0.00    +0.000 N 
ATOM     11  C   UNL     1      -0.674  11.723  22.382  0.00  0.00    +0.000 C 
ATOM     12  O   UNL     1      -1.321  10.938  23.076  0.00  0.00    +0.000 OA
ATOM     13  H   UNL     1      -0.397  13.708  21.816  0.00  0.00    +0.000 HD
BRANCH  10  14
ATOM     14  C   UNL     1      -1.827  13.666  23.400  0.00  0.00    +0.000 C 
BRANCH  14  17
ATOM     15  C   UNL     1      -1.080  16.100  26.254  0.00  0.00    +0.000 C 
ATOM     16  N   UNL     1      -1.569  15.012  25.448  0.00  0.00    +0.000 N 
ATOM     17  C   UNL     1      -1.096  14.791  24.169  0.00  0.00    +0.000 C 
ATOM     18  O   UNL     1      -0.195  15.460  23.665  0.00  0.00    +0.000 OA
ATOM     19  H   UNL     1      -2.149  14.306  25.887  0.00  0.00    +0.000 HD
ENDBRANCH  14  17
BRANCH  14  20
ATOM     20  C   UNL     1      -3.142  14.153  22.706  0.00  0.00    +0.000 C 
ATOM     21  C   UNL     1      -2.816  14.817  21.350  0.00  0.00    +0.000 C 
ATOM     22  C   UNL     1      -4.083  12.965  22.411  0.00  0.00    +0.000 C 
ATOM     23  C   UNL     1      -3.902  15.175  23.573  0.00  0.00    +0.000 C 
ENDBRANCH  14  20
ENDBRANCH  10  14
ENDBRANCH   1  11
BRANCH   2  24
ATOM     24  C   UNL     1       0.991   8.783  20.997  0.00  0.00    +0.000 C 
ATOM     25  O   UNL     1       1.657   8.801  22.027  0.00  0.00    +0.000 OA
ATOM     26  N   UNL     1       1.032   7.793  20.024  0.00  0.00    +0.000 N 
ATOM     27  H   UNL     1       0.457   7.926  19.203  0.00  0.00    +0.000 HD
BRANCH  26  28
ATOM     28  C   UNL     1       1.883   6.665  19.999  0.00  0.00    +0.000 A 
ATOM     29  C   UNL     1       3.054   6.592  19.240  0.00  0.00    +0.000 A 
ATOM     30  C   UNL     1       3.826   5.424  19.227  0.00  0.00    +0.000 A 
ATOM     31  C   UNL     1       3.431   4.322  19.976  0.00  0.00    +0.000 A 
ATOM     32 BR   UNL     1       4.453   2.733  19.919  0.00  0.00    +0.000 Br
ATOM     33  C   UNL     1       2.279   4.385  20.759  0.00  0.00    +0.000 A 
ATOM     34  C   UNL     1       1.515   5.556  20.776  0.00  0.00    +0.000 A 
ENDBRANCH  26  28
ENDBRANCH   2  24
TORSDOF 6
ENDMDL
MODEL 9
REMARK VINA RESULT:      -6.6      4.193      8.686
REMARK  Name = 
REMARK  10 active torsions:
REMARK  status: ('A' for Active; 'I' for Inactive)
REMARK    1  A    between atoms: C_1  and  N_2
REMARK    2  A    between atoms: C_3  and  C_5
REMARK    3  A    between atoms: C_5  and  N_6
REMARK    4  A    between atoms: C_5  and  C_28
REMARK    5  A    between atoms: C_7  and  C_9
REMARK    6  A    between atoms: C_10  and  C_11
REMARK    7  A    between atoms: N_13  and  C_14
REMARK    8  A    between atoms: C_28  and  C_29
REMARK    9  A    between atoms: C_28  and  C_30
REMARK   10  A    between atoms: C_28  and  C_31
REMARK                            x       y       z     vdW  Elec       q    Type
REMARK                         _______ _______ _______ _____ _____    ______ ____
ROOT
ATOM      1  C   UNL     1       0.948  11.664  19.437  0.00  0.00    +0.000 C 
ATOM      2  C   UNL     1       0.413  10.707  20.582  0.00  0.00    +0.000 C 
ATOM      3  C   UNL     1      -1.137  10.797  20.394  0.00  0.00    +0.000 C 
ATOM      4  C   UNL     1      -1.476  10.166  19.046  0.00  0.00    +0.000 C 
ATOM      5  C   UNL     1      -1.010  10.995  18.092  0.00  0.00    +0.000 C 
ATOM      6  C   UNL     1      -0.377  12.192  18.799  0.00  0.00    +0.000 C 
ATOM      7  C   UNL     1      -1.257  12.256  20.031  0.00  0.00    +0.000 C 
ATOM      8  C   UNL     1      -2.544  13.035  20.103  0.00  0.00    +0.000 C 
ATOM      9  C   UNL     1      -1.377  13.411  20.988  0.00  0.00    +0.000 C 
ENDROOT
BRANCH   1  11
ATOM     10  N   UNL     1       2.029  13.827  19.102  0.00  0.00    +0.000 N 
ATOM     11  C   UNL     1       1.776  12.809  19.986  0.00  0.00    +0.000 C 
ATOM     12  O   UNL     1       2.169  12.857  21.152  0.00  0.00    +0.000 OA
ATOM     13  H   UNL     1       1.618  13.821  18.172  0.00  0.00    +0.000 HD
BRANCH  10  14
ATOM     14  C   UNL     1       2.810  15.007  19.488  0.00  0.00    +0.000 C 
BRANCH  14  17
ATOM     15  C   UNL     1       6.624  15.283  19.505  0.00  0.00    +0.000 C 
ATOM     16  N   UNL     1       5.228  15.306  19.855  0.00  0.00    +0.000 N 
ATOM     17  C   UNL     1       4.265  14.774  19.019  0.00  0.00    +0.000 C 
ATOM     18  O   UNL     1       4.537  14.197  17.968  0.00  0.00    +0.000 OA
ATOM     19  H   UNL     1       4.969  15.571  20.798  0.00  0.00    +0.000 HD
ENDBRANCH  14  17
BRANCH  14  20
ATOM     20  C   UNL     1       2.200  16.345  18.954  0.00  0.00    +0.000 C 
ATOM     21  C   UNL     1       2.463  17.490  19.957  0.00  0.00    +0.000 C 
ATOM     22  C   UNL     1       2.854  16.755  17.618  0.00  0.00    +0.000 C 
ATOM     23  C   UNL     1       0.678  16.233  18.739  0.00  0.00    +0.000 C 
ENDBRANCH  14  20
ENDBRANCH  10  14
ENDBRANCH   1  11
BRANCH   2  24
ATOM     24  C   UNL     1       0.956   9.285  20.475  0.00  0.00    +0.000 C 
ATOM     25  O   UNL     1       0.715   8.450  21.341  0.00  0.00    +0.000 OA
ATOM     26  N   UNL     1       1.677   9.057  19.310  0.00  0.00    +0.000 N 
ATOM     27  H   UNL     1       1.836   9.848  18.701  0.00  0.00    +0.000 HD
BRANCH  26  28
ATOM     28  C   UNL     1       2.319   7.855  18.933  0.00  0.00    +0.000 A 
ATOM     29  C   UNL     1       2.250   6.672  19.674  0.00  0.00    +0.000 A 
ATOM     30  C   UNL     1       2.950   5.531  19.266  0.00  0.00    +0.000 A 
ATOM     31  C   UNL     1       3.723   5.567  18.110  0.00  0.00    +0.000 A 
ATOM     32 BR   UNL     1       4.700   4.036  17.588  0.00  0.00    +0.000 Br
ATOM     33  C   UNL     1       3.784   6.730  17.345  0.00  0.00    +0.000 A 
ATOM     34  C   UNL     1       3.076   7.866  17.752  0.00  0.00    +0.000 A 
ENDBRANCH  26  28
ENDBRANCH   2  24
TORSDOF 6
ENDMDL
