MODEL 1
REMARK VINA RESULT:      -7.7      0.000      0.000
REMARK  Name = 
REMARK  9 active torsions:
REMARK  status: ('A' for Active; 'I' for Inactive)
REMARK    1  A    between atoms: C_1  and  C_2
REMARK    2  A    between atoms: C_2  and  C_3
REMARK    3  A    between atoms: C_3  and  N_4
REMARK    4  A    between atoms: C_6  and  C_7
REMARK    5  A    between atoms: C_9  and  C_10
REMARK    6  A    between atoms: N_12  and  C_13
REMARK    7  A    between atoms: N_12  and  C_14
REMARK    8  A    between atoms: C_18  and  O_19
REMARK    9  A    between atoms: O_19  and  C_20
REMARK                            x       y       z     vdW  Elec       q    Type
REMARK                         _______ _______ _______ _____ _____    ______ ____
ROOT
ATOM      1  C   UNL     1       2.616   7.443  18.050  0.00  0.00    +0.000 A 
ATOM      2  C   UNL     1       2.008   6.231  18.318  0.00  0.00    +0.000 A 
ATOM      3  C   UNL     1       2.659   5.038  17.964  0.00  0.00    +0.000 A 
ATOM      4  C   UNL     1       3.953   5.109  17.407  0.00  0.00    +0.000 A 
ATOM      5  C   UNL     1       4.825   4.013  17.230  0.00  0.00    +0.000 A 
ATOM      6  C   UNL     1       5.994   4.127  16.480  0.00  0.00    +0.000 A 
ATOM      7  C   UNL     1       6.360   5.363  15.967  0.00  0.00    +0.000 A 
ATOM      8  C   UNL     1       5.587   6.482  16.289  0.00  0.00    +0.000 A 
ATOM      9  C   UNL     1       4.410   6.386  17.023  0.00  0.00    +0.000 A 
ATOM     10  N   UNL     1       3.764   7.520  17.345  0.00  0.00    +0.000 NA
ENDROOT
BRANCH   1  13
ATOM     11  N   UNL     1       1.045  10.153  19.868  0.00  0.00    +0.000 N 
ATOM     12  C   UNL     1       1.460   8.852  19.801  0.00  0.00    +0.000 A 
ATOM     13  C   UNL     1       2.069   8.691  18.569  0.00  0.00    +0.000 A 
ATOM     14  C   UNL     1       1.943   9.969  17.971  0.00  0.00    +0.000 A 
ATOM     15  N   UNL     1       1.348  10.863  18.766  0.00  0.00    +0.000 NA
BRANCH  11  16
ATOM     16  C   UNL     1       0.365  10.801  20.975  0.00  0.00    +0.000 C 
BRANCH  16  18
ATOM     17  C   UNL     1      -0.924  10.347  23.124  0.00  0.00    +0.000 C 
ATOM     18  C   UNL     1       0.234   9.933  22.228  0.00  0.00    +0.000 C 
ENDBRANCH  16  18
ENDBRANCH  11  16
ENDBRANCH   1  13
BRANCH   3  19
ATOM     19  C   UNL     1       1.903   3.794  18.316  0.00  0.00    +0.000 C 
ATOM     20  O   UNL     1       1.044   3.458  17.496  0.00  0.00    +0.000 OA
ATOM     21  N   UNL     1       2.190   2.986  19.426  0.00  0.00    +0.000 N 
ATOM     22  C   UNL     1       3.082   3.269  20.541  0.00  0.00    +0.000 C 
ATOM     23  C   UNL     1       1.394   1.769  19.582  0.00  0.00    +0.000 C 
ENDBRANCH   3  19
BRANCH   7  24
ATOM     24  O   UNL     1       7.451   5.607  15.181  0.00  0.00    +0.000 OA
ATOM     25  C   UNL     1       7.419   5.073  13.862  0.00  0.00    +0.000 C 
ENDBRANCH   7  24
TORSDOF 5
ENDMDL
MODEL 2
REMARK VINA RESULT:      -7.3      0.945      1.241
REMARK  Name = 
REMARK  9 active torsions:
REMARK  status: ('A' for Active; 'I' for Inactive)
REMARK    1  A    between atoms: C_1  and  C_2
REMARK    2  A    between atoms: C_2  and  C_3
REMARK    3  A    between atoms: C_3  and  N_4
REMARK    4  A    between atoms: C_6  and  C_7
REMARK    5  A    between atoms: C_9  and  C_10
REMARK    6  A    between atoms: N_12  and  C_13
REMARK    7  A    between atoms: N_12  and  C_14
REMARK    8  A    between atoms: C_18  and  O_19
REMARK    9  A    between atoms: O_19  and  C_20
REMARK                            x       y       z     vdW  Elec       q    Type
REMARK                         _______ _______ _______ _____ _____    ______ ____
ROOT
ATOM      1  C   UNL     1       2.513   7.743  18.060  0.00  0.00    +0.000 A 
ATOM      2  C   UNL     1       1.892   6.561  18.421  0.00  0.00    +0.000 A 
ATOM      3  C   UNL     1       2.523   5.337  18.148  0.00  0.00    +0.000 A 
ATOM      4  C   UNL     1       3.812   5.349  17.573  0.00  0.00    +0.000 A 
ATOM      5  C   UNL     1       4.667   4.231  17.466  0.00  0.00    +0.000 A 
ATOM      6  C   UNL     1       5.829   4.275  16.697  0.00  0.00    +0.000 A 
ATOM      7  C   UNL     1       6.205   5.465  16.092  0.00  0.00    +0.000 A 
ATOM      8  C   UNL     1       5.451   6.615  16.340  0.00  0.00    +0.000 A 
ATOM      9  C   UNL     1       4.281   6.589  17.092  0.00  0.00    +0.000 A 
ATOM     10  N   UNL     1       3.654   7.752  17.338  0.00  0.00    +0.000 NA
ENDROOT
BRANCH   1  13
ATOM     11  N   UNL     1       0.836  10.571  19.577  0.00  0.00    +0.000 N 
ATOM     12  C   UNL     1       1.116   9.233  19.547  0.00  0.00    +0.000 A 
ATOM     13  C   UNL     1       1.990   9.032  18.494  0.00  0.00    +0.000 A 
ATOM     14  C   UNL     1       2.149  10.329  17.947  0.00  0.00    +0.000 A 
ATOM     15  N   UNL     1       1.474  11.267  18.619  0.00  0.00    +0.000 NA
BRANCH  11  16
ATOM     16  C   UNL     1      -0.023  11.266  20.518  0.00  0.00    +0.000 C 
BRANCH  16  18
ATOM     17  C   UNL     1      -2.117  11.661  19.123  0.00  0.00    +0.000 C 
ATOM     18  C   UNL     1      -0.957  12.295  19.876  0.00  0.00    +0.000 C 
ENDBRANCH  16  18
ENDBRANCH  11  16
ENDBRANCH   1  13
BRANCH   3  19
ATOM     19  C   UNL     1       1.756   4.132  18.597  0.00  0.00    +0.000 C 
ATOM     20  O   UNL     1       1.180   3.517  17.696  0.00  0.00    +0.000 OA
ATOM     21  N   UNL     1       1.753   3.646  19.912  0.00  0.00    +0.000 N 
ATOM     22  C   UNL     1       2.279   4.284  21.111  0.00  0.00    +0.000 C 
ATOM     23  C   UNL     1       1.001   2.417  20.163  0.00  0.00    +0.000 C 
ENDBRANCH   3  19
BRANCH   7  24
ATOM     24  O   UNL     1       7.290   5.637  15.278  0.00  0.00    +0.000 OA
ATOM     25  C   UNL     1       7.286   4.915  14.051  0.00  0.00    +0.000 C 
ENDBRANCH   7  24
TORSDOF 5
ENDMDL
MODEL 3
REMARK VINA RESULT:      -7.3      1.185      1.324
REMARK  Name = 
REMARK  9 active torsions:
REMARK  status: ('A' for Active; 'I' for Inactive)
REMARK    1  A    between atoms: C_1  and  C_2
REMARK    2  A    between atoms: C_2  and  C_3
REMARK    3  A    between atoms: C_3  and  N_4
REMARK    4  A    between atoms: C_6  and  C_7
REMARK    5  A    between atoms: C_9  and  C_10
REMARK    6  A    between atoms: N_12  and  C_13
REMARK    7  A    between atoms: N_12  and  C_14
REMARK    8  A    between atoms: C_18  and  O_19
REMARK    9  A    between atoms: O_19  and  C_20
REMARK                            x       y       z     vdW  Elec       q    Type
REMARK                         _______ _______ _______ _____ _____    ______ ____
ROOT
ATOM      1  C   UNL     1       2.553   7.704  18.525  0.00  0.00    +0.000 A 
ATOM      2  C   UNL     1       2.230   6.578  19.260  0.00  0.00    +0.000 A 
ATOM      3  C   UNL     1       3.044   5.437  19.171  0.00  0.00    +0.000 A 
ATOM      4  C   UNL     1       4.214   5.497  18.385  0.00  0.00    +0.000 A 
ATOM      5  C   UNL     1       5.248   4.535  18.389  0.00  0.00    +0.000 A 
ATOM      6  C   UNL     1       6.262   4.553  17.433  0.00  0.00    +0.000 A 
ATOM      7  C   UNL     1       6.312   5.585  16.508  0.00  0.00    +0.000 A 
ATOM      8  C   UNL     1       5.390   6.629  16.613  0.00  0.00    +0.000 A 
ATOM      9  C   UNL     1       4.362   6.623  17.549  0.00  0.00    +0.000 A 
ATOM     10  N   UNL     1       3.560   7.699  17.626  0.00  0.00    +0.000 NA
ENDROOT
BRANCH   1  13
ATOM     11  N   UNL     1       0.484  10.498  19.540  0.00  0.00    +0.000 N 
ATOM     12  C   UNL     1       0.942   9.225  19.740  0.00  0.00    +0.000 A 
ATOM     13  C   UNL     1       1.853   8.965  18.732  0.00  0.00    +0.000 A 
ATOM     14  C   UNL     1       1.845  10.159  17.968  0.00  0.00    +0.000 A 
ATOM     15  N   UNL     1       1.039  11.098  18.471  0.00  0.00    +0.000 NA
BRANCH  11  16
ATOM     16  C   UNL     1      -0.478  11.221  20.351  0.00  0.00    +0.000 C 
BRANCH  16  18
ATOM     17  C   UNL     1      -0.830  10.570  22.788  0.00  0.00    +0.000 C 
ATOM     18  C   UNL     1      -0.047  11.427  21.805  0.00  0.00    +0.000 C 
ENDBRANCH  16  18
ENDBRANCH  11  16
ENDBRANCH   1  13
BRANCH   3  19
ATOM     19  C   UNL     1       2.595   4.291  20.022  0.00  0.00    +0.000 C 
ATOM     20  O   UNL     1       2.642   4.496  21.239  0.00  0.00    +0.000 OA
ATOM     21  N   UNL     1       2.055   3.099  19.517  0.00  0.00    +0.000 N 
ATOM     22  C   UNL     1       2.016   2.641  18.136  0.00  0.00    +0.000 C 
ATOM     23  C   UNL     1       1.605   2.109  20.495  0.00  0.00    +0.000 C 
ENDBRANCH   3  19
BRANCH   7  24
ATOM     24  O   UNL     1       7.221   5.701  15.493  0.00  0.00    +0.000 OA
ATOM     25  C   UNL     1       7.001   4.890  14.345  0.00  0.00    +0.000 C 
ENDBRANCH   7  24
TORSDOF 5
ENDMDL
MODEL 4
REMARK VINA RESULT:      -7.3      1.296      2.003
REMARK  Name = 
REMARK  9 active torsions:
REMARK  status: ('A' for Active; 'I' for Inactive)
REMARK    1  A    between atoms: C_1  and  C_2
REMARK    2  A    between atoms: C_2  and  C_3
REMARK    3  A    between atoms: C_3  and  N_4
REMARK    4  A    between atoms: C_6  and  C_7
REMARK    5  A    between atoms: C_9  and  C_10
REMARK    6  A    between atoms: N_12  and  C_13
REMARK    7  A    between atoms: N_12  and  C_14
REMARK    8  A    between atoms: C_18  and  O_19
REMARK    9  A    between atoms: O_19  and  C_20
REMARK                            x       y       z     vdW  Elec       q    Type
REMARK                         _______ _______ _______ _____ _____    ______ ____
ROOT
ATOM      1  C   UNL     1       2.443   7.650  18.164  0.00  0.00    +0.000 A 
ATOM      2  C   UNL     1       1.866   6.443  18.513  0.00  0.00    +0.000 A 
ATOM      3  C   UNL     1       2.533   5.244  18.211  0.00  0.00    +0.000 A 
ATOM      4  C   UNL     1       3.812   5.308  17.620  0.00  0.00    +0.000 A 
ATOM      5  C   UNL     1       4.702   4.221  17.483  0.00  0.00    +0.000 A 
ATOM      6  C   UNL     1       5.851   4.315  16.700  0.00  0.00    +0.000 A 
ATOM      7  C   UNL     1       6.180   5.526  16.111  0.00  0.00    +0.000 A 
ATOM      8  C   UNL     1       5.393   6.647  16.389  0.00  0.00    +0.000 A 
ATOM      9  C   UNL     1       4.235   6.570  17.154  0.00  0.00    +0.000 A 
ATOM     10  N   UNL     1       3.573   7.708  17.429  0.00  0.00    +0.000 NA
ENDROOT
BRANCH   1  13
ATOM     11  N   UNL     1       1.382  11.059  18.770  0.00  0.00    +0.000 N 
ATOM     12  C   UNL     1       1.995  10.129  17.976  0.00  0.00    +0.000 A 
ATOM     13  C   UNL     1       1.884   8.913  18.627  0.00  0.00    +0.000 A 
ATOM     14  C   UNL     1       1.197   9.242  19.821  0.00  0.00    +0.000 A 
ATOM     15  N   UNL     1       0.867  10.535  19.898  0.00  0.00    +0.000 NA
BRANCH  11  16
ATOM     16  C   UNL     1       1.229  12.477  18.502  0.00  0.00    +0.000 C 
BRANCH  16  18
ATOM     17  C   UNL     1       3.044  13.906  19.576  0.00  0.00    +0.000 C 
ATOM     18  C   UNL     1       2.549  13.227  18.307  0.00  0.00    +0.000 C 
ENDBRANCH  16  18
ENDBRANCH  11  16
ENDBRANCH   1  13
BRANCH   3  19
ATOM     19  C   UNL     1       1.810   4.008  18.649  0.00  0.00    +0.000 C 
ATOM     20  O   UNL     1       1.252   3.382  17.743  0.00  0.00    +0.000 OA
ATOM     21  N   UNL     1       1.830   3.507  19.959  0.00  0.00    +0.000 N 
ATOM     22  C   UNL     1       2.339   4.149  21.163  0.00  0.00    +0.000 C 
ATOM     23  C   UNL     1       1.124   2.249  20.198  0.00  0.00    +0.000 C 
ENDBRANCH   3  19
BRANCH   7  24
ATOM     24  O   UNL     1       7.248   5.747  15.287  0.00  0.00    +0.000 OA
ATOM     25  C   UNL     1       7.322   4.947  14.111  0.00  0.00    +0.000 C 
ENDBRANCH   7  24
TORSDOF 5
ENDMDL
MODEL 5
REMARK VINA RESULT:      -7.2      1.709      2.094
REMARK  Name = 
REMARK  9 active torsions:
REMARK  status: ('A' for Active; 'I' for Inactive)
REMARK    1  A    between atoms: C_1  and  C_2
REMARK    2  A    between atoms: C_2  and  C_3
REMARK    3  A    between atoms: C_3  and  N_4
REMARK    4  A    between atoms: C_6  and  C_7
REMARK    5  A    between atoms: C_9  and  C_10
REMARK    6  A    between atoms: N_12  and  C_13
REMARK    7  A    between atoms: N_12  and  C_14
REMARK    8  A    between atoms: C_18  and  O_19
REMARK    9  A    between atoms: O_19  and  C_20
REMARK                            x       y       z     vdW  Elec       q    Type
REMARK                         _______ _______ _______ _____ _____    ______ ____
ROOT
ATOM      1  C   UNL     1       2.540   7.897  18.334  0.00  0.00    +0.000 A 
ATOM      2  C   UNL     1       2.177   6.825  19.129  0.00  0.00    +0.000 A 
ATOM      3  C   UNL     1       2.973   5.669  19.135  0.00  0.00    +0.000 A 
ATOM      4  C   UNL     1       4.166   5.660  18.381  0.00  0.00    +0.000 A 
ATOM      5  C   UNL     1       5.182   4.685  18.475  0.00  0.00    +0.000 A 
ATOM      6  C   UNL     1       6.223   4.626  17.550  0.00  0.00    +0.000 A 
ATOM      7  C   UNL     1       6.316   5.597  16.563  0.00  0.00    +0.000 A 
ATOM      8  C   UNL     1       5.409   6.660  16.575  0.00  0.00    +0.000 A 
ATOM      9  C   UNL     1       4.356   6.728  17.481  0.00  0.00    +0.000 A 
ATOM     10  N   UNL     1       3.571   7.819  17.467  0.00  0.00    +0.000 NA
ENDROOT
BRANCH   1  13
ATOM     11  N   UNL     1       0.305  10.706  18.813  0.00  0.00    +0.000 N 
ATOM     12  C   UNL     1       0.582   9.374  18.944  0.00  0.00    +0.000 A 
ATOM     13  C   UNL     1       1.856   9.180  18.441  0.00  0.00    +0.000 A 
ATOM     14  C   UNL     1       2.240  10.475  18.014  0.00  0.00    +0.000 A 
ATOM     15  N   UNL     1       1.315  11.406  18.264  0.00  0.00    +0.000 NA
BRANCH  11  16
ATOM     16  C   UNL     1      -0.909  11.393  19.215  0.00  0.00    +0.000 C 
BRANCH  16  18
ATOM     17  C   UNL     1      -2.144  10.903  17.043  0.00  0.00    +0.000 C 
ATOM     18  C   UNL     1      -2.184  10.854  18.563  0.00  0.00    +0.000 C 
ENDBRANCH  16  18
ENDBRANCH  11  16
ENDBRANCH   1  13
BRANCH   3  19
ATOM     19  C   UNL     1       2.481   4.585  20.043  0.00  0.00    +0.000 C 
ATOM     20  O   UNL     1       2.513   4.860  21.247  0.00  0.00    +0.000 OA
ATOM     21  N   UNL     1       1.920   3.379  19.599  0.00  0.00    +0.000 N 
ATOM     22  C   UNL     1       1.892   2.842  18.246  0.00  0.00    +0.000 C 
ATOM     23  C   UNL     1       1.429   2.459  20.624  0.00  0.00    +0.000 C 
ENDBRANCH   3  19
BRANCH   7  24
ATOM     24  O   UNL     1       7.254   5.635  15.570  0.00  0.00    +0.000 OA
ATOM     25  C   UNL     1       7.015   4.810  14.435  0.00  0.00    +0.000 C 
ENDBRANCH   7  24
TORSDOF 5
ENDMDL
MODEL 6
REMARK VINA RESULT:      -7.1      1.829      2.462
REMARK  Name = 
REMARK  9 active torsions:
REMARK  status: ('A' for Active; 'I' for Inactive)
REMARK    1  A    between atoms: C_1  and  C_2
REMARK    2  A    between atoms: C_2  and  C_3
REMARK    3  A    between atoms: C_3  and  N_4
REMARK    4  A    between atoms: C_6  and  C_7
REMARK    5  A    between atoms: C_9  and  C_10
REMARK    6  A    between atoms: N_12  and  C_13
REMARK    7  A    between atoms: N_12  and  C_14
REMARK    8  A    between atoms: C_18  and  O_19
REMARK    9  A    between atoms: O_19  and  C_20
REMARK                            x       y       z     vdW  Elec       q    Type
REMARK                         _______ _______ _______ _____ _____    ______ ____
ROOT
ATOM      1  C   UNL     1       2.320   7.981  18.555  0.00  0.00    +0.000 A 
ATOM      2  C   UNL     1       2.012   6.895  19.354  0.00  0.00    +0.000 A 
ATOM      3  C   UNL     1       2.760   5.713  19.234  0.00  0.00    +0.000 A 
ATOM      4  C   UNL     1       3.857   5.691  18.346  0.00  0.00    +0.000 A 
ATOM      5  C   UNL     1       4.841   4.680  18.292  0.00  0.00    +0.000 A 
ATOM      6  C   UNL     1       5.765   4.618  17.251  0.00  0.00    +0.000 A 
ATOM      7  C   UNL     1       5.780   5.618  16.290  0.00  0.00    +0.000 A 
ATOM      8  C   UNL     1       4.921   6.710  16.439  0.00  0.00    +0.000 A 
ATOM      9  C   UNL     1       3.982   6.782  17.462  0.00  0.00    +0.000 A 
ATOM     10  N   UNL     1       3.241   7.898  17.572  0.00  0.00    +0.000 NA
ENDROOT
BRANCH   1  13
ATOM     11  N   UNL     1       1.287  11.449  18.710  0.00  0.00    +0.000 N 
ATOM     12  C   UNL     1       2.086  10.470  18.187  0.00  0.00    +0.000 A 
ATOM     13  C   UNL     1       1.700   9.281  18.779  0.00  0.00    +0.000 A 
ATOM     14  C   UNL     1       0.664   9.676  19.662  0.00  0.00    +0.000 A 
ATOM     15  N   UNL     1       0.393  10.982  19.601  0.00  0.00    +0.000 NA
BRANCH  11  16
ATOM     16  C   UNL     1       1.305  12.863  18.384  0.00  0.00    +0.000 C 
BRANCH  16  18
ATOM     17  C   UNL     1       3.162  14.213  19.487  0.00  0.00    +0.000 C 
ATOM     18  C   UNL     1       2.708  13.459  18.246  0.00  0.00    +0.000 C 
ENDBRANCH  16  18
ENDBRANCH  11  16
ENDBRANCH   1  13
BRANCH   3  19
ATOM     19  C   UNL     1       2.336   4.617  20.160  0.00  0.00    +0.000 C 
ATOM     20  O   UNL     1       2.505   4.855  21.360  0.00  0.00    +0.000 OA
ATOM     21  N   UNL     1       1.696   3.440  19.747  0.00  0.00    +0.000 N 
ATOM     22  C   UNL     1       1.508   2.944  18.390  0.00  0.00    +0.000 C 
ATOM     23  C   UNL     1       1.290   2.503  20.794  0.00  0.00    +0.000 C 
ENDBRANCH   3  19
BRANCH   7  24
ATOM     24  O   UNL     1       6.599   5.659  15.196  0.00  0.00    +0.000 OA
ATOM     25  C   UNL     1       6.588   4.514  14.350  0.00  0.00    +0.000 C 
ENDBRANCH   7  24
TORSDOF 5
ENDMDL
MODEL 7
REMARK VINA RESULT:      -7.0      1.753      2.256
REMARK  Name = 
REMARK  9 active torsions:
REMARK  status: ('A' for Active; 'I' for Inactive)
REMARK    1  A    between atoms: C_1  and  C_2
REMARK    2  A    between atoms: C_2  and  C_3
REMARK    3  A    between atoms: C_3  and  N_4
REMARK    4  A    between atoms: C_6  and  C_7
REMARK    5  A    between atoms: C_9  and  C_10
REMARK    6  A    between atoms: N_12  and  C_13
REMARK    7  A    between atoms: N_12  and  C_14
REMARK    8  A    between atoms: C_18  and  O_19
REMARK    9  A    between atoms: O_19  and  C_20
REMARK                            x       y       z     vdW  Elec       q    Type
REMARK                         _______ _______ _______ _____ _____    ______ ____
ROOT
ATOM      1  C   UNL     1       2.259   7.872  18.790  0.00  0.00    +0.000 A 
ATOM      2  C   UNL     1       1.998   6.744  19.545  0.00  0.00    +0.000 A 
ATOM      3  C   UNL     1       2.765   5.585  19.344  0.00  0.00    +0.000 A 
ATOM      4  C   UNL     1       3.832   5.627  18.421  0.00  0.00    +0.000 A 
ATOM      5  C   UNL     1       4.833   4.641  18.288  0.00  0.00    +0.000 A 
ATOM      6  C   UNL     1       5.724   4.649  17.216  0.00  0.00    +0.000 A 
ATOM      7  C   UNL     1       5.688   5.694  16.305  0.00  0.00    +0.000 A 
ATOM      8  C   UNL     1       4.813   6.758  16.534  0.00  0.00    +0.000 A 
ATOM      9  C   UNL     1       3.907   6.762  17.588  0.00  0.00    +0.000 A 
ATOM     10  N   UNL     1       3.149   7.856  17.776  0.00  0.00    +0.000 NA
ENDROOT
BRANCH   1  13
ATOM     11  N   UNL     1       0.965  11.251  18.963  0.00  0.00    +0.000 N 
ATOM     12  C   UNL     1       1.617  10.262  18.279  0.00  0.00    +0.000 A 
ATOM     13  C   UNL     1       1.622   9.147  19.097  0.00  0.00    +0.000 A 
ATOM     14  C   UNL     1       0.955   9.594  20.265  0.00  0.00    +0.000 A 
ATOM     15  N   UNL     1       0.531  10.858  20.175  0.00  0.00    +0.000 NA
BRANCH  11  16
ATOM     16  C   UNL     1       0.695  12.602  18.507  0.00  0.00    +0.000 C 
BRANCH  16  18
ATOM     17  C   UNL     1      -1.678  11.973  17.829  0.00  0.00    +0.000 C 
ATOM     18  C   UNL     1      -0.786  12.989  18.525  0.00  0.00    +0.000 C 
ENDBRANCH  16  18
ENDBRANCH  11  16
ENDBRANCH   1  13
BRANCH   3  19
ATOM     19  C   UNL     1       2.393   4.436  20.229  0.00  0.00    +0.000 C 
ATOM     20  O   UNL     1       2.607   4.616  21.432  0.00  0.00    +0.000 OA
ATOM     21  N   UNL     1       1.751   3.272  19.781  0.00  0.00    +0.000 N 
ATOM     22  C   UNL     1       1.515   2.843  18.410  0.00  0.00    +0.000 C 
ATOM     23  C   UNL     1       1.400   2.278  20.794  0.00  0.00    +0.000 C 
ENDBRANCH   3  19
BRANCH   7  24
ATOM     24  O   UNL     1       6.469   5.803  15.188  0.00  0.00    +0.000 OA
ATOM     25  C   UNL     1       6.670   4.614  14.431  0.00  0.00    +0.000 C 
ENDBRANCH   7  24
TORSDOF 5
ENDMDL
MODEL 8
REMARK VINA RESULT:      -6.9      1.609      1.915
REMARK  Name = 
REMARK  9 active torsions:
REMARK  status: ('A' for Active; 'I' for Inactive)
REMARK    1  A    between atoms: C_1  and  C_2
REMARK    2  A    between atoms: C_2  and  C_3
REMARK    3  A    between atoms: C_3  and  N_4
REMARK    4  A    between atoms: C_6  and  C_7
REMARK    5  A    between atoms: C_9  and  C_10
REMARK    6  A    between atoms: N_12  and  C_13
REMARK    7  A    between atoms: N_12  and  C_14
REMARK    8  A    between atoms: C_18  and  O_19
REMARK    9  A    between atoms: O_19  and  C_20
REMARK                            x       y       z     vdW  Elec       q    Type
REMARK                         _______ _______ _______ _____ _____    ______ ____
ROOT
ATOM      1  C   UNL     1       2.307   7.986  18.589  0.00  0.00    +0.000 A 
ATOM      2  C   UNL     1       2.008   6.900  19.391  0.00  0.00    +0.000 A 
ATOM      3  C   UNL     1       2.756   5.718  19.262  0.00  0.00    +0.000 A 
ATOM      4  C   UNL     1       3.843   5.697  18.362  0.00  0.00    +0.000 A 
ATOM      5  C   UNL     1       4.826   4.686  18.297  0.00  0.00    +0.000 A 
ATOM      6  C   UNL     1       5.739   4.626  17.246  0.00  0.00    +0.000 A 
ATOM      7  C   UNL     1       5.743   5.626  16.285  0.00  0.00    +0.000 A 
ATOM      8  C   UNL     1       4.885   6.717  16.444  0.00  0.00    +0.000 A 
ATOM      9  C   UNL     1       3.957   6.788  17.477  0.00  0.00    +0.000 A 
ATOM     10  N   UNL     1       3.217   7.904  17.596  0.00  0.00    +0.000 NA
ENDROOT
BRANCH   1  13
ATOM     11  N   UNL     1       0.360  10.870  19.594  0.00  0.00    +0.000 N 
ATOM     12  C   UNL     1       0.689   9.550  19.738  0.00  0.00    +0.000 A 
ATOM     13  C   UNL     1       1.689   9.286  18.820  0.00  0.00    +0.000 A 
ATOM     14  C   UNL     1       1.867  10.528  18.162  0.00  0.00    +0.000 A 
ATOM     15  N   UNL     1       1.083  11.495  18.648  0.00  0.00    +0.000 NA
BRANCH  11  16
ATOM     16  C   UNL     1      -0.630  11.614  20.350  0.00  0.00    +0.000 C 
BRANCH  16  18
ATOM     17  C   UNL     1      -0.915  14.143  20.245  0.00  0.00    +0.000 C 
ATOM     18  C   UNL     1      -1.233  12.803  19.599  0.00  0.00    +0.000 C 
ENDBRANCH  16  18
ENDBRANCH  11  16
ENDBRANCH   1  13
BRANCH   3  19
ATOM     19  C   UNL     1       2.343   4.621  20.192  0.00  0.00    +0.000 C 
ATOM     20  O   UNL     1       2.536   4.854  21.390  0.00  0.00    +0.000 OA
ATOM     21  N   UNL     1       1.687   3.450  19.787  0.00  0.00    +0.000 N 
ATOM     22  C   UNL     1       1.470   2.960  18.433  0.00  0.00    +0.000 C 
ATOM     23  C   UNL     1       1.295   2.512  20.839  0.00  0.00    +0.000 C 
ENDBRANCH   3  19
BRANCH   7  24
ATOM     24  O   UNL     1       6.550   5.667  15.182  0.00  0.00    +0.000 OA
ATOM     25  C   UNL     1       6.732   4.442  14.480  0.00  0.00    +0.000 C 
ENDBRANCH   7  24
TORSDOF 5
ENDMDL
MODEL 9
REMARK VINA RESULT:      -6.9      1.581      4.280
REMARK  Name = 
REMARK  9 active torsions:
REMARK  status: ('A' for Active; 'I' for Inactive)
REMARK    1  A    between atoms: C_1  and  C_2
REMARK    2  A    between atoms: C_2  and  C_3
REMARK    3  A    between atoms: C_3  and  N_4
REMARK    4  A    between atoms: C_6  and  C_7
REMARK    5  A    between atoms: C_9  and  C_10
REMARK    6  A    between atoms: N_12  and  C_13
REMARK    7  A    between atoms: N_12  and  C_14
REMARK    8  A    between atoms: C_18  and  O_19
REMARK    9  A    between atoms: O_19  and  C_20
REMARK                            x       y       z     vdW  Elec       q    Type
REMARK                         _______ _______ _______ _____ _____    ______ ____
ROOT
ATOM      1  C   UNL     1       2.623   7.580  18.534  0.00  0.00    +0.000 A 
ATOM      2  C   UNL     1       3.640   7.397  17.615  0.00  0.00    +0.000 A 
ATOM      3  C   UNL     1       4.077   6.096  17.316  0.00  0.00    +0.000 A 
ATOM      4  C   UNL     1       3.414   5.002  17.913  0.00  0.00    +0.000 A 
ATOM      5  C   UNL     1       3.568   3.652  17.533  0.00  0.00    +0.000 A 
ATOM      6  C   UNL     1       3.048   2.615  18.306  0.00  0.00    +0.000 A 
ATOM      7  C   UNL     1       2.287   2.913  19.427  0.00  0.00    +0.000 A 
ATOM      8  C   UNL     1       1.990   4.250  19.705  0.00  0.00    +0.000 A 
ATOM      9  C   UNL     1       2.511   5.298  18.954  0.00  0.00    +0.000 A 
ATOM     10  N   UNL     1       2.121   6.550  19.248  0.00  0.00    +0.000 NA
ENDROOT
BRANCH   1  13
ATOM     11  N   UNL     1       0.792  10.531  19.560  0.00  0.00    +0.000 N 
ATOM     12  C   UNL     1       1.193   9.244  19.787  0.00  0.00    +0.000 A 
ATOM     13  C   UNL     1       2.011   8.887  18.730  0.00  0.00    +0.000 A 
ATOM     14  C   UNL     1       2.013  10.045  17.912  0.00  0.00    +0.000 A 
ATOM     15  N   UNL     1       1.299  11.051  18.426  0.00  0.00    +0.000 NA
BRANCH  11  16
ATOM     16  C   UNL     1      -0.065  11.344  20.402  0.00  0.00    +0.000 C 
BRANCH  16  18
ATOM     17  C   UNL     1      -1.133  11.687  22.689  0.00  0.00    +0.000 C 
ATOM     18  C   UNL     1      -0.186  10.847  21.845  0.00  0.00    +0.000 C 
ENDBRANCH  16  18
ENDBRANCH  11  16
ENDBRANCH   1  13
BRANCH   3  19
ATOM     19  C   UNL     1       5.173   6.031  16.298  0.00  0.00    +0.000 C 
ATOM     20  O   UNL     1       4.934   6.617  15.238  0.00  0.00    +0.000 OA
ATOM     21  N   UNL     1       6.429   5.453  16.530  0.00  0.00    +0.000 N 
ATOM     22  C   UNL     1       6.853   4.639  17.661  0.00  0.00    +0.000 C 
ATOM     23  C   UNL     1       7.408   5.537  15.446  0.00  0.00    +0.000 C 
ENDBRANCH   3  19
BRANCH   7  24
ATOM     24  O   UNL     1       1.757   2.000  20.295  0.00  0.00    +0.000 OA
ATOM     25  C   UNL     1       1.424   2.475  21.596  0.00  0.00    +0.000 C 
ENDBRANCH   7  24
TORSDOF 5
ENDMDL
