MODEL 1
REMARK VINA RESULT:      -7.4      0.000      0.000
REMARK  Name = 
REMARK  6 active torsions:
REMARK  status: ('A' for Active; 'I' for Inactive)
REMARK    1  A    between atoms: C_1  and  N_2
REMARK    2  A    between atoms: C_3  and  C_5
REMARK    3  A    between atoms: C_7  and  N_8
REMARK    4  A    between atoms: N_13  and  C_14
REMARK    5  A    between atoms: C_20  and  O_21
REMARK    6  A    between atoms: C_22  and  O_23
REMARK                            x       y       z     vdW  Elec       q    Type
REMARK                         _______ _______ _______ _____ _____    ______ ____
ROOT
ATOM      1  C   UNL     1       4.092   3.468  18.910  0.00  0.00    +0.000 C 
ATOM      2  S   UNL     1       4.455   5.097  19.648  0.00  0.00    +0.000 S 
ATOM      3  C   UNL     1       2.699   5.548  19.932  0.00  0.00    +0.000 C 
ATOM      4  C   UNL     1       1.835   4.334  19.532  0.00  0.00    +0.000 C 
ATOM      5  C   UNL     1       2.740   3.088  19.510  0.00  0.00    +0.000 C 
ENDROOT
BRANCH   3   6
ATOM      6  N   UNL     1       2.369   6.829  19.335  0.00  0.00    +0.000 N 
ATOM      7  C   UNL     1       2.650   7.196  18.044  0.00  0.00    +0.000 A 
ATOM      8  N   UNL     1       2.250   8.419  17.768  0.00  0.00    +0.000 NA
ATOM      9  C   UNL     1       1.682   8.878  18.938  0.00  0.00    +0.000 A 
ATOM     10  C   UNL     1       1.100  10.118  19.295  0.00  0.00    +0.000 A 
ATOM     11  N   UNL     1       1.034  11.176  18.411  0.00  0.00    +0.000 N 
ATOM     12  C   UNL     1       0.380  12.414  18.755  0.00  0.00    +0.000 C 
ATOM     13  N   UNL     1       0.629  10.256  20.562  0.00  0.00    +0.000 NA
ATOM     14  C   UNL     1       0.735   9.210  21.397  0.00  0.00    +0.000 A 
ATOM     15 CL   UNL     1       0.155   9.481  22.983  0.00  0.00    +0.000 Cl
ATOM     16  N   UNL     1       1.245   7.991  21.162  0.00  0.00    +0.000 NA
ATOM     17  C   UNL     1       1.725   7.897  19.915  0.00  0.00    +0.000 A 
ATOM     18  H   UNL     1       1.286  10.980  17.451  0.00  0.00    +0.000 HD
ENDBRANCH   3   6
BRANCH   1  21
ATOM     19  C   UNL     1       5.504   4.016  15.430  0.00  0.00    +0.000 C 
ATOM     20  N   UNL     1       5.340   3.720  16.832  0.00  0.00    +0.000 N 
ATOM     21  C   UNL     1       4.083   3.573  17.389  0.00  0.00    +0.000 C 
ATOM     22  O   UNL     1       3.055   3.502  16.724  0.00  0.00    +0.000 OA
ATOM     23  H   UNL     1       6.127   3.893  17.447  0.00  0.00    +0.000 HD
ENDBRANCH   1  21
BRANCH   4  24
ATOM     24  O   UNL     1       0.789   4.142  20.505  0.00  0.00    +0.000 OA
ATOM     25  H   UNL     1       0.327   3.313  20.254  0.00  0.00    +0.000 HD
ENDBRANCH   4  24
BRANCH   5  26
ATOM     26  O   UNL     1       2.877   2.594  20.862  0.00  0.00    +0.000 OA
ATOM     27  H   UNL     1       3.544   3.132  21.326  0.00  0.00    +0.000 HD
ENDBRANCH   5  26
TORSDOF 4
ENDMDL
MODEL 2
REMARK VINA RESULT:      -7.3      1.050      1.089
REMARK  Name = 
REMARK  6 active torsions:
REMARK  status: ('A' for Active; 'I' for Inactive)
REMARK    1  A    between atoms: C_1  and  N_2
REMARK    2  A    between atoms: C_3  and  C_5
REMARK    3  A    between atoms: C_7  and  N_8
REMARK    4  A    between atoms: N_13  and  C_14
REMARK    5  A    between atoms: C_20  and  O_21
REMARK    6  A    between atoms: C_22  and  O_23
REMARK                            x       y       z     vdW  Elec       q    Type
REMARK                         _______ _______ _______ _____ _____    ______ ____
ROOT
ATOM      1  C   UNL     1       4.915   4.160  18.244  0.00  0.00    +0.000 C 
ATOM      2  S   UNL     1       4.774   5.618  19.334  0.00  0.00    +0.000 S 
ATOM      3  C   UNL     1       2.949   5.751  19.201  0.00  0.00    +0.000 C 
ATOM      4  C   UNL     1       2.453   4.550  18.369  0.00  0.00    +0.000 C 
ATOM      5  C   UNL     1       3.555   3.476  18.372  0.00  0.00    +0.000 C 
ENDROOT
BRANCH   3   6
ATOM      6  N   UNL     1       2.535   7.076  18.777  0.00  0.00    +0.000 N 
ATOM      7  C   UNL     1       2.745   7.608  17.531  0.00  0.00    +0.000 A 
ATOM      8  N   UNL     1       2.278   8.835  17.422  0.00  0.00    +0.000 NA
ATOM      9  C   UNL     1       1.738   9.120  18.658  0.00  0.00    +0.000 A 
ATOM     10  C   UNL     1       1.115  10.277  19.184  0.00  0.00    +0.000 A 
ATOM     11  N   UNL     1       0.963  11.429  18.439  0.00  0.00    +0.000 N 
ATOM     12  C   UNL     1       0.268  12.581  18.954  0.00  0.00    +0.000 C 
ATOM     13  N   UNL     1       0.692  10.237  20.474  0.00  0.00    +0.000 NA
ATOM     14  C   UNL     1       0.880   9.106  21.171  0.00  0.00    +0.000 A 
ATOM     15 CL   UNL     1       0.355   9.155  22.799  0.00  0.00    +0.000 Cl
ATOM     16  N   UNL     1       1.436   7.952  20.771  0.00  0.00    +0.000 NA
ATOM     17  C   UNL     1       1.868   8.033  19.506  0.00  0.00    +0.000 A 
ATOM     18  H   UNL     1       1.184  11.362  17.453  0.00  0.00    +0.000 HD
ENDBRANCH   3   6
BRANCH   1  21
ATOM     19  C   UNL     1       6.240   3.842  14.702  0.00  0.00    +0.000 C 
ATOM     20  N   UNL     1       5.705   3.575  16.014  0.00  0.00    +0.000 N 
ATOM     21  C   UNL     1       5.252   4.600  16.824  0.00  0.00    +0.000 C 
ATOM     22  O   UNL     1       5.103   5.752  16.433  0.00  0.00    +0.000 OA
ATOM     23  H   UNL     1       5.918   2.679  16.438  0.00  0.00    +0.000 HD
ENDBRANCH   1  21
BRANCH   4  24
ATOM     24  O   UNL     1       1.260   4.006  18.966  0.00  0.00    +0.000 OA
ATOM     25  H   UNL     1       1.450   3.061  19.151  0.00  0.00    +0.000 HD
ENDBRANCH   4  24
BRANCH   5  26
ATOM     26  O   UNL     1       3.455   2.716  19.598  0.00  0.00    +0.000 OA
ATOM     27  H   UNL     1       4.137   3.030  20.219  0.00  0.00    +0.000 HD
ENDBRANCH   5  26
TORSDOF 4
ENDMDL
MODEL 3
REMARK VINA RESULT:      -6.8      3.691      7.187
REMARK  Name = 
REMARK  6 active torsions:
REMARK  status: ('A' for Active; 'I' for Inactive)
REMARK    1  A    between atoms: C_1  and  N_2
REMARK    2  A    between atoms: C_3  and  C_5
REMARK    3  A    between atoms: C_7  and  N_8
REMARK    4  A    between atoms: N_13  and  C_14
REMARK    5  A    between atoms: C_20  and  O_21
REMARK    6  A    between atoms: C_22  and  O_23
REMARK                            x       y       z     vdW  Elec       q    Type
REMARK                         _______ _______ _______ _____ _____    ______ ____
ROOT
ATOM      1  C   UNL     1       2.273   4.447  18.982  0.00  0.00    +0.000 C 
ATOM      2  S   UNL     1       2.817   4.021  17.292  0.00  0.00    +0.000 S 
ATOM      3  C   UNL     1       4.453   3.365  17.802  0.00  0.00    +0.000 C 
ATOM      4  C   UNL     1       4.505   3.390  19.344  0.00  0.00    +0.000 C 
ATOM      5  C   UNL     1       3.062   3.489  19.871  0.00  0.00    +0.000 C 
ENDROOT
BRANCH   3   6
ATOM      6  N   UNL     1       5.539   4.009  17.086  0.00  0.00    +0.000 N 
ATOM      7  C   UNL     1       6.570   4.699  17.668  0.00  0.00    +0.000 A 
ATOM      8  N   UNL     1       7.411   5.192  16.783  0.00  0.00    +0.000 NA
ATOM      9  C   UNL     1       6.902   4.808  15.560  0.00  0.00    +0.000 A 
ATOM     10  C   UNL     1       7.326   5.048  14.231  0.00  0.00    +0.000 A 
ATOM     11  N   UNL     1       8.439   5.814  13.945  0.00  0.00    +0.000 N 
ATOM     12  C   UNL     1       8.908   6.000  12.595  0.00  0.00    +0.000 C 
ATOM     13  N   UNL     1       6.581   4.525  13.223  0.00  0.00    +0.000 NA
ATOM     14  C   UNL     1       5.494   3.806  13.544  0.00  0.00    +0.000 A 
ATOM     15 CL   UNL     1       4.590   3.218  12.215  0.00  0.00    +0.000 Cl
ATOM     16  N   UNL     1       5.013   3.500  14.759  0.00  0.00    +0.000 NA
ATOM     17  C   UNL     1       5.753   4.053  15.728  0.00  0.00    +0.000 A 
ATOM     18  H   UNL     1       9.022   6.075  14.730  0.00  0.00    +0.000 HD
ENDBRANCH   3   6
BRANCH   1  21
ATOM     19  C   UNL     1       1.881   7.822  20.674  0.00  0.00    +0.000 C 
ATOM     20  N   UNL     1       1.879   6.412  20.369  0.00  0.00    +0.000 N 
ATOM     21  C   UNL     1       2.551   5.920  19.265  0.00  0.00    +0.000 C 
ATOM     22  O   UNL     1       3.323   6.591  18.591  0.00  0.00    +0.000 OA
ATOM     23  H   UNL     1       1.167   5.836  20.802  0.00  0.00    +0.000 HD
ENDBRANCH   1  21
BRANCH   4  24
ATOM     24  O   UNL     1       5.104   2.172  19.828  0.00  0.00    +0.000 OA
ATOM     25  H   UNL     1       5.208   1.586  19.048  0.00  0.00    +0.000 HD
ENDBRANCH   4  24
BRANCH   5  26
ATOM     26  O   UNL     1       2.481   2.165  19.875  0.00  0.00    +0.000 OA
ATOM     27  H   UNL     1       1.523   2.244  20.040  0.00  0.00    +0.000 HD
ENDBRANCH   5  26
TORSDOF 4
ENDMDL
MODEL 4
REMARK VINA RESULT:      -6.8      1.467      1.562
REMARK  Name = 
REMARK  6 active torsions:
REMARK  status: ('A' for Active; 'I' for Inactive)
REMARK    1  A    between atoms: C_1  and  N_2
REMARK    2  A    between atoms: C_3  and  C_5
REMARK    3  A    between atoms: C_7  and  N_8
REMARK    4  A    between atoms: N_13  and  C_14
REMARK    5  A    between atoms: C_20  and  O_21
REMARK    6  A    between atoms: C_22  and  O_23
REMARK                            x       y       z     vdW  Elec       q    Type
REMARK                         _______ _______ _______ _____ _____    ______ ____
ROOT
ATOM      1  C   UNL     1       4.775   3.955  18.562  0.00  0.00    +0.000 C 
ATOM      2  S   UNL     1       4.189   5.250  19.707  0.00  0.00    +0.000 S 
ATOM      3  C   UNL     1       2.604   5.546  18.829  0.00  0.00    +0.000 C 
ATOM      4  C   UNL     1       2.508   4.518  17.682  0.00  0.00    +0.000 C 
ATOM      5  C   UNL     1       3.489   3.371  17.983  0.00  0.00    +0.000 C 
ENDROOT
BRANCH   3   6
ATOM      6  N   UNL     1       2.430   6.946  18.490  0.00  0.00    +0.000 N 
ATOM      7  C   UNL     1       2.833   7.531  17.317  0.00  0.00    +0.000 A 
ATOM      8  N   UNL     1       2.561   8.819  17.277  0.00  0.00    +0.000 NA
ATOM      9  C   UNL     1       1.953   9.091  18.484  0.00  0.00    +0.000 A 
ATOM     10  C   UNL     1       1.457  10.287  19.056  0.00  0.00    +0.000 A 
ATOM     11  N   UNL     1       1.546  11.501  18.405  0.00  0.00    +0.000 N 
ATOM     12  C   UNL     1       0.979  12.704  18.959  0.00  0.00    +0.000 C 
ATOM     13  N   UNL     1       0.912  10.217  20.298  0.00  0.00    +0.000 NA
ATOM     14  C   UNL     1       0.867   9.021  20.907  0.00  0.00    +0.000 A 
ATOM     15 CL   UNL     1       0.201   9.029  22.483  0.00  0.00    +0.000 Cl
ATOM     16  N   UNL     1       1.285   7.829  20.455  0.00  0.00    +0.000 NA
ATOM     17  C   UNL     1       1.842   7.937  19.241  0.00  0.00    +0.000 A 
ATOM     18  H   UNL     1       1.848  11.475  17.439  0.00  0.00    +0.000 HD
ENDBRANCH   3   6
BRANCH   1  21
ATOM     19  C   UNL     1       7.183   6.474  17.058  0.00  0.00    +0.000 C 
ATOM     20  N   UNL     1       6.403   5.668  17.964  0.00  0.00    +0.000 N 
ATOM     21  C   UNL     1       5.701   4.564  17.514  0.00  0.00    +0.000 C 
ATOM     22  O   UNL     1       5.831   4.095  16.390  0.00  0.00    +0.000 OA
ATOM     23  H   UNL     1       6.154   6.070  18.860  0.00  0.00    +0.000 HD
ENDBRANCH   1  21
BRANCH   4  24
ATOM     24  O   UNL     1       1.169   3.992  17.615  0.00  0.00    +0.000 OA
ATOM     25  H   UNL     1       0.615   4.571  18.182  0.00  0.00    +0.000 HD
ENDBRANCH   4  24
BRANCH   5  26
ATOM     26  O   UNL     1       2.857   2.455  18.906  0.00  0.00    +0.000 OA
ATOM     27  H   UNL     1       2.217   1.907  18.416  0.00  0.00    +0.000 HD
ENDBRANCH   5  26
TORSDOF 4
ENDMDL
MODEL 5
REMARK VINA RESULT:      -6.6      3.621      6.850
REMARK  Name = 
REMARK  6 active torsions:
REMARK  status: ('A' for Active; 'I' for Inactive)
REMARK    1  A    between atoms: C_1  and  N_2
REMARK    2  A    between atoms: C_3  and  C_5
REMARK    3  A    between atoms: C_7  and  N_8
REMARK    4  A    between atoms: N_13  and  C_14
REMARK    5  A    between atoms: C_20  and  O_21
REMARK    6  A    between atoms: C_22  and  O_23
REMARK                            x       y       z     vdW  Elec       q    Type
REMARK                         _______ _______ _______ _____ _____    ______ ____
ROOT
ATOM      1  C   UNL     1       0.156  12.162  20.574  0.00  0.00    +0.000 C 
ATOM      2  S   UNL     1      -0.270  11.016  19.219  0.00  0.00    +0.000 S 
ATOM      3  C   UNL     1       0.454   9.532  20.020  0.00  0.00    +0.000 C 
ATOM      4  C   UNL     1       0.935   9.949  21.426  0.00  0.00    +0.000 C 
ATOM      5  C   UNL     1       0.226  11.262  21.805  0.00  0.00    +0.000 C 
ENDROOT
BRANCH   3   6
ATOM      6  N   UNL     1       1.411   8.866  19.156  0.00  0.00    +0.000 N 
ATOM      7  C   UNL     1       1.918   9.383  17.992  0.00  0.00    +0.000 A 
ATOM      8  N   UNL     1       2.759   8.562  17.399  0.00  0.00    +0.000 NA
ATOM      9  C   UNL     1       2.803   7.451  18.215  0.00  0.00    +0.000 A 
ATOM     10  C   UNL     1       3.493   6.219  18.115  0.00  0.00    +0.000 A 
ATOM     11  N   UNL     1       4.303   5.920  17.038  0.00  0.00    +0.000 N 
ATOM     12  C   UNL     1       5.058   4.694  16.972  0.00  0.00    +0.000 C 
ATOM     13  N   UNL     1       3.310   5.308  19.105  0.00  0.00    +0.000 NA
ATOM     14  C   UNL     1       2.496   5.629  20.123  0.00  0.00    +0.000 A 
ATOM     15 CL   UNL     1       2.290   4.410  21.306  0.00  0.00    +0.000 Cl
ATOM     16  N   UNL     1       1.812   6.765  20.329  0.00  0.00    +0.000 NA
ATOM     17  C   UNL     1       1.991   7.630  19.322  0.00  0.00    +0.000 A 
ATOM     18  H   UNL     1       4.499   6.677  16.395  0.00  0.00    +0.000 HD
ENDBRANCH   3   6
BRANCH   1  21
ATOM     19  C   UNL     1       2.946  13.575  18.423  0.00  0.00    +0.000 C 
ATOM     20  N   UNL     1       1.682  13.078  18.908  0.00  0.00    +0.000 N 
ATOM     21  C   UNL     1       1.465  12.880  20.260  0.00  0.00    +0.000 C 
ATOM     22  O   UNL     1       2.233  13.270  21.131  0.00  0.00    +0.000 OA
ATOM     23  H   UNL     1       1.067  12.622  18.245  0.00  0.00    +0.000 HD
ENDBRANCH   1  21
BRANCH   4  24
ATOM     24  O   UNL     1       0.584   8.929  22.380  0.00  0.00    +0.000 OA
ATOM     25  H   UNL     1       0.030   8.278  21.898  0.00  0.00    +0.000 HD
ENDBRANCH   4  24
BRANCH   5  26
ATOM     26  O   UNL     1      -1.092  10.945  22.309  0.00  0.00    +0.000 OA
ATOM     27  H   UNL     1      -1.686  10.784  21.553  0.00  0.00    +0.000 HD
ENDBRANCH   5  26
TORSDOF 4
ENDMDL
MODEL 6
REMARK VINA RESULT:      -6.5      2.348      3.601
REMARK  Name = 
REMARK  6 active torsions:
REMARK  status: ('A' for Active; 'I' for Inactive)
REMARK    1  A    between atoms: C_1  and  N_2
REMARK    2  A    between atoms: C_3  and  C_5
REMARK    3  A    between atoms: C_7  and  N_8
REMARK    4  A    between atoms: N_13  and  C_14
REMARK    5  A    between atoms: C_20  and  O_21
REMARK    6  A    between atoms: C_22  and  O_23
REMARK                            x       y       z     vdW  Elec       q    Type
REMARK                         _______ _______ _______ _____ _____    ______ ____
ROOT
ATOM      1  C   UNL     1       3.824   3.260  18.117  0.00  0.00    +0.000 C 
ATOM      2  S   UNL     1       2.296   4.225  17.858  0.00  0.00    +0.000 S 
ATOM      3  C   UNL     1       3.071   5.857  18.183  0.00  0.00    +0.000 C 
ATOM      4  C   UNL     1       4.582   5.623  18.387  0.00  0.00    +0.000 C 
ATOM      5  C   UNL     1       4.940   4.250  17.790  0.00  0.00    +0.000 C 
ENDROOT
BRANCH   3   6
ATOM      6  N   UNL     1       2.363   6.594  19.213  0.00  0.00    +0.000 N 
ATOM      7  C   UNL     1       1.876   6.056  20.377  0.00  0.00    +0.000 A 
ATOM      8  N   UNL     1       1.264   6.948  21.127  0.00  0.00    +0.000 NA
ATOM      9  C   UNL     1       1.352   8.128  20.419  0.00  0.00    +0.000 A 
ATOM     10  C   UNL     1       0.869   9.433  20.674  0.00  0.00    +0.000 A 
ATOM     11  N   UNL     1       0.132   9.733  21.802  0.00  0.00    +0.000 N 
ATOM     12  C   UNL     1      -0.300  11.077  22.093  0.00  0.00    +0.000 C 
ATOM     13  N   UNL     1       1.123  10.395  19.749  0.00  0.00    +0.000 NA
ATOM     14  C   UNL     1       1.822  10.056  18.654  0.00  0.00    +0.000 A 
ATOM     15 CL   UNL     1       2.063  11.316  17.522  0.00  0.00    +0.000 Cl
ATOM     16  N   UNL     1       2.342   8.864  18.322  0.00  0.00    +0.000 NA
ATOM     17  C   UNL     1       2.051   7.933  19.239  0.00  0.00    +0.000 A 
ATOM     18  H   UNL     1       0.078   9.013  22.512  0.00  0.00    +0.000 HD
ENDBRANCH   3   6
BRANCH   1  21
ATOM     19  C   UNL     1       2.550   2.480  21.606  0.00  0.00    +0.000 C 
ATOM     20  N   UNL     1       2.652   2.772  20.197  0.00  0.00    +0.000 N 
ATOM     21  C   UNL     1       3.871   2.728  19.545  0.00  0.00    +0.000 C 
ATOM     22  O   UNL     1       4.891   2.275  20.052  0.00  0.00    +0.000 OA
ATOM     23  H   UNL     1       1.885   3.270  19.761  0.00  0.00    +0.000 HD
ENDBRANCH   1  21
BRANCH   4  24
ATOM     24  O   UNL     1       5.328   6.647  17.701  0.00  0.00    +0.000 OA
ATOM     25  H   UNL     1       6.257   6.564  18.007  0.00  0.00    +0.000 HD
ENDBRANCH   4  24
BRANCH   5  26
ATOM     26  O   UNL     1       5.118   4.400  16.363  0.00  0.00    +0.000 OA
ATOM     27  H   UNL     1       5.891   4.973  16.202  0.00  0.00    +0.000 HD
ENDBRANCH   5  26
TORSDOF 4
ENDMDL
MODEL 7
REMARK VINA RESULT:      -6.4      3.264      4.463
REMARK  Name = 
REMARK  6 active torsions:
REMARK  status: ('A' for Active; 'I' for Inactive)
REMARK    1  A    between atoms: C_1  and  N_2
REMARK    2  A    between atoms: C_3  and  C_5
REMARK    3  A    between atoms: C_7  and  N_8
REMARK    4  A    between atoms: N_13  and  C_14
REMARK    5  A    between atoms: C_20  and  O_21
REMARK    6  A    between atoms: C_22  and  O_23
REMARK                            x       y       z     vdW  Elec       q    Type
REMARK                         _______ _______ _______ _____ _____    ______ ____
ROOT
ATOM      1  C   UNL     1       7.150   4.721  17.626  0.00  0.00    +0.000 C 
ATOM      2  S   UNL     1       5.461   4.326  18.194  0.00  0.00    +0.000 S 
ATOM      3  C   UNL     1       4.622   5.490  17.050  0.00  0.00    +0.000 C 
ATOM      4  C   UNL     1       5.702   6.109  16.139  0.00  0.00    +0.000 C 
ATOM      5  C   UNL     1       6.948   5.206  16.192  0.00  0.00    +0.000 C 
ENDROOT
BRANCH   3   6
ATOM      6  N   UNL     1       3.743   6.402  17.759  0.00  0.00    +0.000 N 
ATOM      7  C   UNL     1       3.517   7.710  17.416  0.00  0.00    +0.000 A 
ATOM      8  N   UNL     1       2.684   8.311  18.239  0.00  0.00    +0.000 NA
ATOM      9  C   UNL     1       2.349   7.350  19.169  0.00  0.00    +0.000 A 
ATOM     10  C   UNL     1       1.523   7.378  20.317  0.00  0.00    +0.000 A 
ATOM     11  N   UNL     1       0.874   8.528  20.723  0.00  0.00    +0.000 N 
ATOM     12  C   UNL     1      -0.020   8.537  21.853  0.00  0.00    +0.000 C 
ATOM     13  N   UNL     1       1.407   6.237  21.044  0.00  0.00    +0.000 NA
ATOM     14  C   UNL     1       2.074   5.148  20.628  0.00  0.00    +0.000 A 
ATOM     15 CL   UNL     1       1.906   3.766  21.622  0.00  0.00    +0.000 Cl
ATOM     16  N   UNL     1       2.863   5.002  19.553  0.00  0.00    +0.000 NA
ATOM     17  C   UNL     1       2.978   6.152  18.875  0.00  0.00    +0.000 A 
ATOM     18  H   UNL     1       0.897   9.310  20.081  0.00  0.00    +0.000 HD
ENDBRANCH   3   6
BRANCH   1  21
ATOM     19  C   UNL     1       8.509   8.109  18.668  0.00  0.00    +0.000 C 
ATOM     20  N   UNL     1       7.792   7.040  18.016  0.00  0.00    +0.000 N 
ATOM     21  C   UNL     1       7.780   5.762  18.545  0.00  0.00    +0.000 C 
ATOM     22  O   UNL     1       8.206   5.490  19.662  0.00  0.00    +0.000 OA
ATOM     23  H   UNL     1       7.536   7.166  17.044  0.00  0.00    +0.000 HD
ENDBRANCH   1  21
BRANCH   4  24
ATOM     24  O   UNL     1       5.217   6.168  14.783  0.00  0.00    +0.000 OA
ATOM     25  H   UNL     1       6.004   6.075  14.204  0.00  0.00    +0.000 HD
ENDBRANCH   4  24
BRANCH   5  26
ATOM     26  O   UNL     1       6.757   4.102  15.278  0.00  0.00    +0.000 OA
ATOM     27  H   UNL     1       7.464   3.447  15.425  0.00  0.00    +0.000 HD
ENDBRANCH   5  26
TORSDOF 4
ENDMDL
MODEL 8
REMARK VINA RESULT:      -6.3      3.064      4.366
REMARK  Name = 
REMARK  6 active torsions:
REMARK  status: ('A' for Active; 'I' for Inactive)
REMARK    1  A    between atoms: C_1  and  N_2
REMARK    2  A    between atoms: C_3  and  C_5
REMARK    3  A    between atoms: C_7  and  N_8
REMARK    4  A    between atoms: N_13  and  C_14
REMARK    5  A    between atoms: C_20  and  O_21
REMARK    6  A    between atoms: C_22  and  O_23
REMARK                            x       y       z     vdW  Elec       q    Type
REMARK                         _______ _______ _______ _____ _____    ______ ____
ROOT
ATOM      1  C   UNL     1       6.651   4.223  16.478  0.00  0.00    +0.000 C 
ATOM      2  S   UNL     1       4.978   3.688  16.972  0.00  0.00    +0.000 S 
ATOM      3  C   UNL     1       4.234   5.363  16.888  0.00  0.00    +0.000 C 
ATOM      4  C   UNL     1       5.313   6.327  16.353  0.00  0.00    +0.000 C 
ATOM      5  C   UNL     1       6.403   5.488  15.660  0.00  0.00    +0.000 C 
ENDROOT
BRANCH   3   6
ATOM      6  N   UNL     1       3.573   5.722  18.130  0.00  0.00    +0.000 N 
ATOM      7  C   UNL     1       3.445   4.903  19.222  0.00  0.00    +0.000 A 
ATOM      8  N   UNL     1       2.789   5.477  20.209  0.00  0.00    +0.000 NA
ATOM      9  C   UNL     1       2.470   6.734  19.738  0.00  0.00    +0.000 A 
ATOM     10  C   UNL     1       1.751   7.813  20.306  0.00  0.00    +0.000 A 
ATOM     11  N   UNL     1       1.183   7.732  21.562  0.00  0.00    +0.000 N 
ATOM     12  C   UNL     1       0.511   8.855  22.165  0.00  0.00    +0.000 C 
ATOM     13  N   UNL     1       1.602   8.937  19.560  0.00  0.00    +0.000 NA
ATOM     14  C   UNL     1       2.150   8.966  18.335  0.00  0.00    +0.000 A 
ATOM     15 CL   UNL     1       1.881  10.403  17.448  0.00  0.00    +0.000 Cl
ATOM     16  N   UNL     1       2.863   8.018  17.708  0.00  0.00    +0.000 NA
ATOM     17  C   UNL     1       2.968   6.913  18.458  0.00  0.00    +0.000 A 
ATOM     18  H   UNL     1       1.428   6.923  22.118  0.00  0.00    +0.000 HD
ENDBRANCH   3   6
BRANCH   1  21
ATOM     19  C   UNL     1       7.597   5.609  19.883  0.00  0.00    +0.000 C 
ATOM     20  N   UNL     1       6.876   5.150  18.721  0.00  0.00    +0.000 N 
ATOM     21  C   UNL     1       7.514   4.449  17.714  0.00  0.00    +0.000 C 
ATOM     22  O   UNL     1       8.657   4.017  17.814  0.00  0.00    +0.000 OA
ATOM     23  H   UNL     1       5.979   5.578  18.521  0.00  0.00    +0.000 HD
ENDBRANCH   1  21
BRANCH   4  24
ATOM     24  O   UNL     1       4.726   7.227  15.393  0.00  0.00    +0.000 OA
ATOM     25  H   UNL     1       4.003   6.730  14.954  0.00  0.00    +0.000 HD
ENDBRANCH   4  24
BRANCH   5  26
ATOM     26  O   UNL     1       5.962   5.178  14.318  0.00  0.00    +0.000 OA
ATOM     27  H   UNL     1       5.984   4.210  14.197  0.00  0.00    +0.000 HD
ENDBRANCH   5  26
TORSDOF 4
ENDMDL
MODEL 9
REMARK VINA RESULT:      -6.2      4.202      7.916
REMARK  Name = 
REMARK  6 active torsions:
REMARK  status: ('A' for Active; 'I' for Inactive)
REMARK    1  A    between atoms: C_1  and  N_2
REMARK    2  A    between atoms: C_3  and  C_5
REMARK    3  A    between atoms: C_7  and  N_8
REMARK    4  A    between atoms: N_13  and  C_14
REMARK    5  A    between atoms: C_20  and  O_21
REMARK    6  A    between atoms: C_22  and  O_23
REMARK                            x       y       z     vdW  Elec       q    Type
REMARK                         _______ _______ _______ _____ _____    ______ ____
ROOT
ATOM      1  C   UNL     1      -0.254  12.786  20.318  0.00  0.00    +0.000 C 
ATOM      2  S   UNL     1       1.382  11.992  20.155  0.00  0.00    +0.000 S 
ATOM      3  C   UNL     1       0.799  10.628  19.074  0.00  0.00    +0.000 C 
ATOM      4  C   UNL     1      -0.689  10.886  18.759  0.00  0.00    +0.000 C 
ATOM      5  C   UNL     1      -0.991  12.367  19.047  0.00  0.00    +0.000 C 
ENDROOT
BRANCH   3   6
ATOM      6  N   UNL     1       1.155   9.327  19.609  0.00  0.00    +0.000 N 
ATOM      7  C   UNL     1       0.725   8.822  20.810  0.00  0.00    +0.000 A 
ATOM      8  N   UNL     1       1.210   7.623  21.056  0.00  0.00    +0.000 NA
ATOM      9  C   UNL     1       1.999   7.330  19.963  0.00  0.00    +0.000 A 
ATOM     10  C   UNL     1       2.808   6.213  19.641  0.00  0.00    +0.000 A 
ATOM     11  N   UNL     1       2.947   5.140  20.499  0.00  0.00    +0.000 N 
ATOM     12  C   UNL     1       3.716   3.975  20.139  0.00  0.00    +0.000 C 
ATOM     13  N   UNL     1       3.481   6.238  18.463  0.00  0.00    +0.000 NA
ATOM     14  C   UNL     1       3.337   7.311  17.669  0.00  0.00    +0.000 A 
ATOM     15 CL   UNL     1       4.251   7.279  16.224  0.00  0.00    +0.000 Cl
ATOM     16  N   UNL     1       2.588   8.407  17.862  0.00  0.00    +0.000 NA
ATOM     17  C   UNL     1       1.959   8.365  19.045  0.00  0.00    +0.000 A 
ATOM     18  H   UNL     1       2.331   5.119  21.301  0.00  0.00    +0.000 HD
ENDBRANCH   3   6
BRANCH   1  21
ATOM     19  C   UNL     1      -3.062  12.358  22.835  0.00  0.00    +0.000 C 
ATOM     20  N   UNL     1      -2.295  12.561  21.631  0.00  0.00    +0.000 N 
ATOM     21  C   UNL     1      -0.932  12.326  21.604  0.00  0.00    +0.000 C 
ATOM     22  O   UNL     1      -0.326  11.771  22.513  0.00  0.00    +0.000 OA
ATOM     23  H   UNL     1      -2.704  13.131  20.900  0.00  0.00    +0.000 HD
ENDBRANCH   1  21
BRANCH   4  24
ATOM     24  O   UNL     1      -0.944  10.612  17.368  0.00  0.00    +0.000 OA
ATOM     25  H   UNL     1      -1.033  11.484  16.927  0.00  0.00    +0.000 HD
ENDBRANCH   4  24
BRANCH   5  26
ATOM     26  O   UNL     1      -0.575  13.153  17.907  0.00  0.00    +0.000 OA
ATOM     27  H   UNL     1      -1.194  13.898  17.798  0.00  0.00    +0.000 HD
ENDBRANCH   5  26
TORSDOF 4
ENDMDL
