MODEL 1
REMARK VINA RESULT:      -8.3      0.000      0.000
REMARK  Name = 
REMARK  5 active torsions:
REMARK  status: ('A' for Active; 'I' for Inactive)
REMARK    1  A    between atoms: C_1  and  S_2
REMARK    2  A    between atoms: S_2  and  N_5
REMARK    3  A    between atoms: C_6  and  C_8
REMARK    4  A    between atoms: C_8  and  C_10
REMARK    5  A    between atoms: C_12  and  C_13
REMARK                            x       y       z     vdW  Elec       q    Type
REMARK                         _______ _______ _______ _____ _____    ______ ____
ROOT
ATOM      1  C   UNL     1       7.544   6.785  17.782  0.00  0.00    +0.000 A 
ATOM      2  C   UNL     1       8.431   7.433  18.679  0.00  0.00    +0.000 A 
ATOM      3  C   UNL     1       8.404   8.757  18.308  0.00  0.00    +0.000 A 
ATOM      4  O   UNL     1       7.545   8.892  17.258  0.00  0.00    +0.000 OA
ATOM      5  N   UNL     1       7.003   7.666  16.933  0.00  0.00    +0.000 NA
ENDROOT
BRANCH   3   6
ATOM      6  C   UNL     1       9.065   9.973  18.762  0.00  0.00    +0.000 A 
ATOM      7  C   UNL     1       9.164  10.286  20.125  0.00  0.00    +0.000 A 
ATOM      8  C   UNL     1       9.774  11.470  20.549  0.00  0.00    +0.000 A 
ATOM      9  C   UNL     1      10.299  12.363  19.614  0.00  0.00    +0.000 A 
ATOM     10 CL   UNL     1      11.018  13.817  20.201  0.00  0.00    +0.000 Cl
ATOM     11  C   UNL     1      10.220  12.059  18.252  0.00  0.00    +0.000 A 
ATOM     12 CL   UNL     1      10.848  13.110  17.031  0.00  0.00    +0.000 Cl
ATOM     13  C   UNL     1       9.610  10.871  17.831  0.00  0.00    +0.000 A 
ENDBRANCH   3   6
BRANCH   1  14
ATOM     14  C   UNL     1       7.194   5.379  17.748  0.00  0.00    +0.000 C 
ATOM     15  O   UNL     1       7.673   4.583  16.941  0.00  0.00    +0.000 OA
BRANCH  14  17
ATOM     16  N   UNL     1       5.254   3.957  18.267  0.00  0.00    +0.000 N 
ATOM     17  C   UNL     1       6.231   4.824  18.783  0.00  0.00    +0.000 C 
ATOM     18  O   UNL     1       6.285   5.194  19.944  0.00  0.00    +0.000 OA
ATOM     19  H   UNL     1       5.147   3.825  17.263  0.00  0.00    +0.000 HD
BRANCH  16  21
ATOM     20  C   UNL     1       3.454   1.983  18.029  0.00  0.00    +0.000 C 
ATOM     21  S   UNL     1       4.207   3.091  19.204  0.00  0.00    +0.000 S 
ATOM     22  O   UNL     1       3.212   3.992  19.737  0.00  0.00    +0.000 OA
ATOM     23  O   UNL     1       5.048   2.305  20.081  0.00  0.00    +0.000 OA
ENDBRANCH  16  21
ENDBRANCH  14  17
ENDBRANCH   1  14
TORSDOF 4
ENDMDL
MODEL 2
REMARK VINA RESULT:      -8.1      0.892      1.423
REMARK  Name = 
REMARK  5 active torsions:
REMARK  status: ('A' for Active; 'I' for Inactive)
REMARK    1  A    between atoms: C_1  and  S_2
REMARK    2  A    between atoms: S_2  and  N_5
REMARK    3  A    between atoms: C_6  and  C_8
REMARK    4  A    between atoms: C_8  and  C_10
REMARK    5  A    between atoms: C_12  and  C_13
REMARK                            x       y       z     vdW  Elec       q    Type
REMARK                         _______ _______ _______ _____ _____    ______ ____
ROOT
ATOM      1  C   UNL     1       7.440   6.622  17.735  0.00  0.00    +0.000 A 
ATOM      2  C   UNL     1       8.281   7.500  18.463  0.00  0.00    +0.000 A 
ATOM      3  C   UNL     1       8.034   8.745  17.935  0.00  0.00    +0.000 A 
ATOM      4  O   UNL     1       7.094   8.618  16.955  0.00  0.00    +0.000 OA
ATOM      5  N   UNL     1       6.717   7.298  16.833  0.00  0.00    +0.000 NA
ENDROOT
BRANCH   3   6
ATOM      6  C   UNL     1       8.539  10.091  18.174  0.00  0.00    +0.000 A 
ATOM      7  C   UNL     1       8.059  11.191  17.449  0.00  0.00    +0.000 A 
ATOM      8  C   UNL     1       8.571  12.474  17.665  0.00  0.00    +0.000 A 
ATOM      9  C   UNL     1       9.573  12.679  18.615  0.00  0.00    +0.000 A 
ATOM     10 CL   UNL     1      10.177  14.282  18.817  0.00  0.00    +0.000 Cl
ATOM     11  C   UNL     1      10.052  11.595  19.355  0.00  0.00    +0.000 A 
ATOM     12 CL   UNL     1      11.289  11.764  20.551  0.00  0.00    +0.000 Cl
ATOM     13  C   UNL     1       9.536  10.312  19.138  0.00  0.00    +0.000 A 
ENDBRANCH   3   6
BRANCH   1  14
ATOM     14  C   UNL     1       7.298   5.190  17.907  0.00  0.00    +0.000 C 
ATOM     15  O   UNL     1       7.992   4.367  17.309  0.00  0.00    +0.000 OA
BRANCH  14  17
ATOM     16  N   UNL     1       5.331   3.784  18.360  0.00  0.00    +0.000 N 
ATOM     17  C   UNL     1       6.289   4.653  18.906  0.00  0.00    +0.000 C 
ATOM     18  O   UNL     1       6.295   5.038  20.064  0.00  0.00    +0.000 OA
ATOM     19  H   UNL     1       5.266   3.639  17.355  0.00  0.00    +0.000 HD
BRANCH  16  21
ATOM     20  C   UNL     1       3.509   1.838  18.065  0.00  0.00    +0.000 C 
ATOM     21  S   UNL     1       4.241   2.935  19.263  0.00  0.00    +0.000 S 
ATOM     22  O   UNL     1       3.243   3.852  19.763  0.00  0.00    +0.000 OA
ATOM     23  O   UNL     1       5.039   2.137  20.167  0.00  0.00    +0.000 OA
ENDBRANCH  16  21
ENDBRANCH  14  17
ENDBRANCH   1  14
TORSDOF 4
ENDMDL
MODEL 3
REMARK VINA RESULT:      -7.9      5.968      7.322
REMARK  Name = 
REMARK  5 active torsions:
REMARK  status: ('A' for Active; 'I' for Inactive)
REMARK    1  A    between atoms: C_1  and  S_2
REMARK    2  A    between atoms: S_2  and  N_5
REMARK    3  A    between atoms: C_6  and  C_8
REMARK    4  A    between atoms: C_8  and  C_10
REMARK    5  A    between atoms: C_12  and  C_13
REMARK                            x       y       z     vdW  Elec       q    Type
REMARK                         _______ _______ _______ _____ _____    ______ ____
ROOT
ATOM      1  C   UNL     1       3.323   4.866  19.755  0.00  0.00    +0.000 A 
ATOM      2  C   UNL     1       3.237   6.232  19.386  0.00  0.00    +0.000 A 
ATOM      3  C   UNL     1       2.176   6.726  20.107  0.00  0.00    +0.000 A 
ATOM      4  O   UNL     1       1.664   5.717  20.867  0.00  0.00    +0.000 OA
ATOM      5  N   UNL     1       2.381   4.559  20.655  0.00  0.00    +0.000 NA
ENDROOT
BRANCH   3   6
ATOM      6  C   UNL     1       1.512   8.019  20.218  0.00  0.00    +0.000 A 
ATOM      7  C   UNL     1       1.491   8.924  19.148  0.00  0.00    +0.000 A 
ATOM      8  C   UNL     1       0.877  10.174  19.274  0.00  0.00    +0.000 A 
ATOM      9  C   UNL     1       0.270  10.539  20.477  0.00  0.00    +0.000 A 
ATOM     10 CL   UNL     1      -0.450  12.104  20.574  0.00  0.00    +0.000 Cl
ATOM     11  C   UNL     1       0.270   9.642  21.548  0.00  0.00    +0.000 A 
ATOM     12 CL   UNL     1      -0.462  10.016  23.069  0.00  0.00    +0.000 Cl
ATOM     13  C   UNL     1       0.884   8.390  21.418  0.00  0.00    +0.000 A 
ENDBRANCH   3   6
BRANCH   1  14
ATOM     14  C   UNL     1       4.286   3.886  19.294  0.00  0.00    +0.000 C 
ATOM     15  O   UNL     1       4.095   2.671  19.355  0.00  0.00    +0.000 OA
BRANCH  14  17
ATOM     16  N   UNL     1       5.648   4.161  17.264  0.00  0.00    +0.000 N 
ATOM     17  C   UNL     1       5.580   4.354  18.652  0.00  0.00    +0.000 C 
ATOM     18  O   UNL     1       6.495   4.781  19.338  0.00  0.00    +0.000 OA
ATOM     19  H   UNL     1       4.927   3.637  16.771  0.00  0.00    +0.000 HD
BRANCH  16  21
ATOM     20  C   UNL     1       6.468   4.071  14.712  0.00  0.00    +0.000 C 
ATOM     21  S   UNL     1       6.866   4.741  16.314  0.00  0.00    +0.000 S 
ATOM     22  O   UNL     1       8.117   4.190  16.779  0.00  0.00    +0.000 OA
ATOM     23  O   UNL     1       6.656   6.172  16.262  0.00  0.00    +0.000 OA
ENDBRANCH  16  21
ENDBRANCH  14  17
ENDBRANCH   1  14
TORSDOF 4
ENDMDL
MODEL 4
REMARK VINA RESULT:      -7.9      6.175      7.376
REMARK  Name = 
REMARK  5 active torsions:
REMARK  status: ('A' for Active; 'I' for Inactive)
REMARK    1  A    between atoms: C_1  and  S_2
REMARK    2  A    between atoms: S_2  and  N_5
REMARK    3  A    between atoms: C_6  and  C_8
REMARK    4  A    between atoms: C_8  and  C_10
REMARK    5  A    between atoms: C_12  and  C_13
REMARK                            x       y       z     vdW  Elec       q    Type
REMARK                         _______ _______ _______ _____ _____    ______ ____
ROOT
ATOM      1  C   UNL     1       2.822   5.911  19.311  0.00  0.00    +0.000 A 
ATOM      2  C   UNL     1       2.026   6.352  20.398  0.00  0.00    +0.000 A 
ATOM      3  C   UNL     1       1.780   7.680  20.140  0.00  0.00    +0.000 A 
ATOM      4  O   UNL     1       2.386   8.010  18.964  0.00  0.00    +0.000 OA
ATOM      5  N   UNL     1       3.029   6.908  18.442  0.00  0.00    +0.000 NA
ENDROOT
BRANCH   3   6
ATOM      6  C   UNL     1       1.062   8.751  20.820  0.00  0.00    +0.000 A 
ATOM      7  C   UNL     1       0.759   8.674  22.186  0.00  0.00    +0.000 A 
ATOM      8  C   UNL     1       0.044   9.694  22.822  0.00  0.00    +0.000 A 
ATOM      9  C   UNL     1      -0.379  10.811  22.100  0.00  0.00    +0.000 A 
ATOM     10 CL   UNL     1      -1.276  12.022  22.939  0.00  0.00    +0.000 Cl
ATOM     11  C   UNL     1      -0.072  10.908  20.740  0.00  0.00    +0.000 A 
ATOM     12 CL   UNL     1      -0.556  12.258  19.775  0.00  0.00    +0.000 Cl
ATOM     13  C   UNL     1       0.646   9.886  20.106  0.00  0.00    +0.000 A 
ENDBRANCH   3   6
BRANCH   1  14
ATOM     14  C   UNL     1       3.345   4.579  19.082  0.00  0.00    +0.000 C 
ATOM     15  O   UNL     1       2.635   3.616  18.793  0.00  0.00    +0.000 OA
BRANCH  14  17
ATOM     16  N   UNL     1       5.622   5.394  18.635  0.00  0.00    +0.000 N 
ATOM     17  C   UNL     1       4.844   4.343  19.145  0.00  0.00    +0.000 C 
ATOM     18  O   UNL     1       5.290   3.278  19.537  0.00  0.00    +0.000 OA
ATOM     19  H   UNL     1       5.191   6.183  18.156  0.00  0.00    +0.000 HD
BRANCH  16  21
ATOM     20  C   UNL     1       7.650   7.042  18.031  0.00  0.00    +0.000 C 
ATOM     21  S   UNL     1       7.268   5.457  18.749  0.00  0.00    +0.000 S 
ATOM     22  O   UNL     1       7.827   4.402  17.936  0.00  0.00    +0.000 OA
ATOM     23  O   UNL     1       7.545   5.533  20.166  0.00  0.00    +0.000 OA
ENDBRANCH  16  21
ENDBRANCH  14  17
ENDBRANCH   1  14
TORSDOF 4
ENDMDL
MODEL 5
REMARK VINA RESULT:      -7.9      1.053      1.153
REMARK  Name = 
REMARK  5 active torsions:
REMARK  status: ('A' for Active; 'I' for Inactive)
REMARK    1  A    between atoms: C_1  and  S_2
REMARK    2  A    between atoms: S_2  and  N_5
REMARK    3  A    between atoms: C_6  and  C_8
REMARK    4  A    between atoms: C_8  and  C_10
REMARK    5  A    between atoms: C_12  and  C_13
REMARK                            x       y       z     vdW  Elec       q    Type
REMARK                         _______ _______ _______ _____ _____    ______ ____
ROOT
ATOM      1  C   UNL     1       7.579   6.750  17.767  0.00  0.00    +0.000 A 
ATOM      2  C   UNL     1       8.378   7.420  18.729  0.00  0.00    +0.000 A 
ATOM      3  C   UNL     1       8.401   8.731  18.317  0.00  0.00    +0.000 A 
ATOM      4  O   UNL     1       7.653   8.840  17.182  0.00  0.00    +0.000 OA
ATOM      5  N   UNL     1       7.135   7.608  16.841  0.00  0.00    +0.000 NA
ENDROOT
BRANCH   3   6
ATOM      6  C   UNL     1       9.025   9.957  18.799  0.00  0.00    +0.000 A 
ATOM      7  C   UNL     1       9.173  10.211  20.169  0.00  0.00    +0.000 A 
ATOM      8  C   UNL     1       9.746  11.404  20.622  0.00  0.00    +0.000 A 
ATOM      9  C   UNL     1      10.183  12.364  19.708  0.00  0.00    +0.000 A 
ATOM     10 CL   UNL     1      10.860  13.823  20.332  0.00  0.00    +0.000 Cl
ATOM     11  C   UNL     1      10.055  12.119  18.338  0.00  0.00    +0.000 A 
ATOM     12 CL   UNL     1      10.573  13.254  17.142  0.00  0.00    +0.000 Cl
ATOM     13  C   UNL     1       9.482  10.923  17.888  0.00  0.00    +0.000 A 
ENDBRANCH   3   6
BRANCH   1  14
ATOM     14  C   UNL     1       7.220   5.346  17.741  0.00  0.00    +0.000 C 
ATOM     15  O   UNL     1       8.046   4.441  17.628  0.00  0.00    +0.000 OA
BRANCH  14  17
ATOM     16  N   UNL     1       5.565   3.809  18.714  0.00  0.00    +0.000 N 
ATOM     17  C   UNL     1       5.766   4.943  17.912  0.00  0.00    +0.000 C 
ATOM     18  O   UNL     1       4.883   5.535  17.314  0.00  0.00    +0.000 OA
ATOM     19  H   UNL     1       6.351   3.250  19.041  0.00  0.00    +0.000 HD
BRANCH  16  21
ATOM     20  C   UNL     1       4.480   2.009  20.380  0.00  0.00    +0.000 C 
ATOM     21  S   UNL     1       4.078   3.276  19.194  0.00  0.00    +0.000 S 
ATOM     22  O   UNL     1       3.409   2.690  18.056  0.00  0.00    +0.000 OA
ATOM     23  O   UNL     1       3.493   4.387  19.912  0.00  0.00    +0.000 OA
ENDBRANCH  16  21
ENDBRANCH  14  17
ENDBRANCH   1  14
TORSDOF 4
ENDMDL
MODEL 6
REMARK VINA RESULT:      -7.8      1.428      1.872
REMARK  Name = 
REMARK  5 active torsions:
REMARK  status: ('A' for Active; 'I' for Inactive)
REMARK    1  A    between atoms: C_1  and  S_2
REMARK    2  A    between atoms: S_2  and  N_5
REMARK    3  A    between atoms: C_6  and  C_8
REMARK    4  A    between atoms: C_8  and  C_10
REMARK    5  A    between atoms: C_12  and  C_13
REMARK                            x       y       z     vdW  Elec       q    Type
REMARK                         _______ _______ _______ _____ _____    ______ ____
ROOT
ATOM      1  C   UNL     1       7.476   6.436  17.617  0.00  0.00    +0.000 A 
ATOM      2  C   UNL     1       7.520   7.768  17.135  0.00  0.00    +0.000 A 
ATOM      3  C   UNL     1       8.195   8.473  18.103  0.00  0.00    +0.000 A 
ATOM      4  O   UNL     1       8.540   7.610  19.102  0.00  0.00    +0.000 OA
ATOM      5  N   UNL     1       8.099   6.339  18.798  0.00  0.00    +0.000 NA
ENDROOT
BRANCH   3   6
ATOM      6  C   UNL     1       8.587   9.864  18.288  0.00  0.00    +0.000 A 
ATOM      7  C   UNL     1       8.070  10.882  17.476  0.00  0.00    +0.000 A 
ATOM      8  C   UNL     1       8.475  12.211  17.642  0.00  0.00    +0.000 A 
ATOM      9  C   UNL     1       9.406  12.542  18.627  0.00  0.00    +0.000 A 
ATOM     10 CL   UNL     1       9.881  14.195  18.764  0.00  0.00    +0.000 Cl
ATOM     11  C   UNL     1       9.920  11.540  19.454  0.00  0.00    +0.000 A 
ATOM     12 CL   UNL     1      11.074  11.868  20.699  0.00  0.00    +0.000 Cl
ATOM     13  C   UNL     1       9.511  10.211  19.287  0.00  0.00    +0.000 A 
ENDBRANCH   3   6
BRANCH   1  14
ATOM     14  C   UNL     1       6.889   5.280  16.968  0.00  0.00    +0.000 C 
ATOM     15  O   UNL     1       7.427   4.686  16.034  0.00  0.00    +0.000 OA
BRANCH  14  17
ATOM     16  N   UNL     1       5.699   3.777  18.509  0.00  0.00    +0.000 N 
ATOM     17  C   UNL     1       5.573   4.724  17.480  0.00  0.00    +0.000 C 
ATOM     18  O   UNL     1       4.518   5.038  16.953  0.00  0.00    +0.000 OA
ATOM     19  H   UNL     1       6.611   3.421  18.786  0.00  0.00    +0.000 HD
BRANCH  16  21
ATOM     20  C   UNL     1       3.545   2.230  18.106  0.00  0.00    +0.000 C 
ATOM     21  S   UNL     1       4.420   3.158  19.349  0.00  0.00    +0.000 S 
ATOM     22  O   UNL     1       3.599   4.253  19.813  0.00  0.00    +0.000 OA
ATOM     23  O   UNL     1       5.001   2.216  20.281  0.00  0.00    +0.000 OA
ENDBRANCH  16  21
ENDBRANCH  14  17
ENDBRANCH   1  14
TORSDOF 4
ENDMDL
MODEL 7
REMARK VINA RESULT:      -7.7      6.327      7.504
REMARK  Name = 
REMARK  5 active torsions:
REMARK  status: ('A' for Active; 'I' for Inactive)
REMARK    1  A    between atoms: C_1  and  S_2
REMARK    2  A    between atoms: S_2  and  N_5
REMARK    3  A    between atoms: C_6  and  C_8
REMARK    4  A    between atoms: C_8  and  C_10
REMARK    5  A    between atoms: C_12  and  C_13
REMARK                            x       y       z     vdW  Elec       q    Type
REMARK                         _______ _______ _______ _____ _____    ______ ____
ROOT
ATOM      1  C   UNL     1       3.321   6.351  19.087  0.00  0.00    +0.000 A 
ATOM      2  C   UNL     1       2.406   6.921  20.008  0.00  0.00    +0.000 A 
ATOM      3  C   UNL     1       1.914   8.037  19.372  0.00  0.00    +0.000 A 
ATOM      4  O   UNL     1       2.495   8.123  18.142  0.00  0.00    +0.000 OA
ATOM      5  N   UNL     1       3.366   7.070  17.959  0.00  0.00    +0.000 NA
ENDROOT
BRANCH   3   6
ATOM      6  C   UNL     1       0.969   9.092  19.716  0.00  0.00    +0.000 A 
ATOM      7  C   UNL     1       0.482   9.979  18.746  0.00  0.00    +0.000 A 
ATOM      8  C   UNL     1      -0.401  11.007  19.091  0.00  0.00    +0.000 A 
ATOM      9  C   UNL     1      -0.814  11.163  20.414  0.00  0.00    +0.000 A 
ATOM     10 CL   UNL     1      -1.887  12.465  20.777  0.00  0.00    +0.000 Cl
ATOM     11  C   UNL     1      -0.349  10.278  21.390  0.00  0.00    +0.000 A 
ATOM     12 CL   UNL     1      -0.814  10.400  23.050  0.00  0.00    +0.000 Cl
ATOM     13  C   UNL     1       0.534   9.248  21.041  0.00  0.00    +0.000 A 
ENDBRANCH   3   6
BRANCH   1  14
ATOM     14  C   UNL     1       4.107   5.145  19.254  0.00  0.00    +0.000 C 
ATOM     15  O   UNL     1       3.645   4.096  19.704  0.00  0.00    +0.000 OA
BRANCH  14  17
ATOM     16  N   UNL     1       5.748   4.977  17.429  0.00  0.00    +0.000 N 
ATOM     17  C   UNL     1       5.559   5.132  18.812  0.00  0.00    +0.000 C 
ATOM     18  O   UNL     1       6.460   5.170  19.634  0.00  0.00    +0.000 OA
ATOM     19  H   UNL     1       4.965   4.771  16.812  0.00  0.00    +0.000 HD
BRANCH  16  21
ATOM     20  C   UNL     1       6.848   4.612  15.011  0.00  0.00    +0.000 C 
ATOM     21  S   UNL     1       7.214   5.107  16.683  0.00  0.00    +0.000 S 
ATOM     22  O   UNL     1       8.124   4.162  17.286  0.00  0.00    +0.000 OA
ATOM     23  O   UNL     1       7.509   6.523  16.672  0.00  0.00    +0.000 OA
ENDBRANCH  16  21
ENDBRANCH  14  17
ENDBRANCH   1  14
TORSDOF 4
ENDMDL
MODEL 8
REMARK VINA RESULT:      -7.7      1.432      1.732
REMARK  Name = 
REMARK  5 active torsions:
REMARK  status: ('A' for Active; 'I' for Inactive)
REMARK    1  A    between atoms: C_1  and  S_2
REMARK    2  A    between atoms: S_2  and  N_5
REMARK    3  A    between atoms: C_6  and  C_8
REMARK    4  A    between atoms: C_8  and  C_10
REMARK    5  A    between atoms: C_12  and  C_13
REMARK                            x       y       z     vdW  Elec       q    Type
REMARK                         _______ _______ _______ _____ _____    ______ ____
ROOT
ATOM      1  C   UNL     1       7.189   7.370  17.586  0.00  0.00    +0.000 A 
ATOM      2  C   UNL     1       7.464   8.753  17.441  0.00  0.00    +0.000 A 
ATOM      3  C   UNL     1       8.437   9.019  18.374  0.00  0.00    +0.000 A 
ATOM      4  O   UNL     1       8.731   7.861  19.032  0.00  0.00    +0.000 OA
ATOM      5  N   UNL     1       7.960   6.831  18.537  0.00  0.00    +0.000 NA
ENDROOT
BRANCH   3   6
ATOM      6  C   UNL     1       9.172  10.205  18.796  0.00  0.00    +0.000 A 
ATOM      7  C   UNL     1       9.360  10.503  20.153  0.00  0.00    +0.000 A 
ATOM      8  C   UNL     1      10.041  11.659  20.548  0.00  0.00    +0.000 A 
ATOM      9  C   UNL     1      10.546  12.538  19.589  0.00  0.00    +0.000 A 
ATOM     10 CL   UNL     1      11.355  13.958  20.143  0.00  0.00    +0.000 Cl
ATOM     11  C   UNL     1      10.377  12.248  18.233  0.00  0.00    +0.000 A 
ATOM     12 CL   UNL     1      10.975  13.283  16.983  0.00  0.00    +0.000 Cl
ATOM     13  C   UNL     1       9.698  11.089  17.840  0.00  0.00    +0.000 A 
ENDBRANCH   3   6
BRANCH   1  14
ATOM     14  C   UNL     1       6.247   6.573  16.825  0.00  0.00    +0.000 C 
ATOM     15  O   UNL     1       5.736   6.954  15.772  0.00  0.00    +0.000 OA
BRANCH  14  17
ATOM     16  N   UNL     1       4.944   5.130  18.333  0.00  0.00    +0.000 N 
ATOM     17  C   UNL     1       5.895   5.175  17.302  0.00  0.00    +0.000 C 
ATOM     18  O   UNL     1       6.479   4.201  16.855  0.00  0.00    +0.000 OA
ATOM     19  H   UNL     1       4.623   5.982  18.789  0.00  0.00    +0.000 HD
BRANCH  16  21
ATOM     20  C   UNL     1       2.889   4.328  19.859  0.00  0.00    +0.000 C 
ATOM     21  S   UNL     1       4.269   3.735  18.900  0.00  0.00    +0.000 S 
ATOM     22  O   UNL     1       5.222   3.079  19.764  0.00  0.00    +0.000 OA
ATOM     23  O   UNL     1       3.742   3.068  17.729  0.00  0.00    +0.000 OA
ENDBRANCH  16  21
ENDBRANCH  14  17
ENDBRANCH   1  14
TORSDOF 4
ENDMDL
MODEL 9
REMARK VINA RESULT:      -7.6      1.331      1.400
REMARK  Name = 
REMARK  5 active torsions:
REMARK  status: ('A' for Active; 'I' for Inactive)
REMARK    1  A    between atoms: C_1  and  S_2
REMARK    2  A    between atoms: S_2  and  N_5
REMARK    3  A    between atoms: C_6  and  C_8
REMARK    4  A    between atoms: C_8  and  C_10
REMARK    5  A    between atoms: C_12  and  C_13
REMARK                            x       y       z     vdW  Elec       q    Type
REMARK                         _______ _______ _______ _____ _____    ______ ____
ROOT
ATOM      1  C   UNL     1       7.222   7.181  17.563  0.00  0.00    +0.000 A 
ATOM      2  C   UNL     1       7.475   8.568  17.414  0.00  0.00    +0.000 A 
ATOM      3  C   UNL     1       8.409   8.863  18.379  0.00  0.00    +0.000 A 
ATOM      4  O   UNL     1       8.702   7.717  19.058  0.00  0.00    +0.000 OA
ATOM      5  N   UNL     1       7.969   6.667  18.547  0.00  0.00    +0.000 NA
ENDROOT
BRANCH   3   6
ATOM      6  C   UNL     1       9.104  10.067  18.815  0.00  0.00    +0.000 A 
ATOM      7  C   UNL     1       9.261  10.367  20.176  0.00  0.00    +0.000 A 
ATOM      8  C   UNL     1       9.904  11.540  20.584  0.00  0.00    +0.000 A 
ATOM      9  C   UNL     1      10.402  12.434  19.635  0.00  0.00    +0.000 A 
ATOM     10 CL   UNL     1      11.163  13.873  20.204  0.00  0.00    +0.000 Cl
ATOM     11  C   UNL     1      10.265  12.142  18.275  0.00  0.00    +0.000 A 
ATOM     12 CL   UNL     1      10.856  13.195  17.038  0.00  0.00    +0.000 Cl
ATOM     13  C   UNL     1       9.623  10.965  17.870  0.00  0.00    +0.000 A 
ENDBRANCH   3   6
BRANCH   1  14
ATOM     14  C   UNL     1       6.324   6.359  16.777  0.00  0.00    +0.000 C 
ATOM     15  O   UNL     1       6.500   6.119  15.583  0.00  0.00    +0.000 OA
BRANCH  14  17
ATOM     16  N   UNL     1       5.438   4.580  18.228  0.00  0.00    +0.000 N 
ATOM     17  C   UNL     1       5.128   5.706  17.449  0.00  0.00    +0.000 C 
ATOM     18  O   UNL     1       3.998   6.109  17.233  0.00  0.00    +0.000 OA
ATOM     19  H   UNL     1       6.376   4.183  18.227  0.00  0.00    +0.000 HD
BRANCH  16  21
ATOM     20  C   UNL     1       3.327   2.940  18.018  0.00  0.00    +0.000 C 
ATOM     21  S   UNL     1       4.349   3.804  19.194  0.00  0.00    +0.000 S 
ATOM     22  O   UNL     1       3.563   4.794  19.892  0.00  0.00    +0.000 OA
ATOM     23  O   UNL     1       5.122   2.819  19.919  0.00  0.00    +0.000 OA
ENDBRANCH  16  21
ENDBRANCH  14  17
ENDBRANCH   1  14
TORSDOF 4
ENDMDL
