MODEL 1
REMARK VINA RESULT:      -6.6      0.000      0.000
REMARK  Name = 
REMARK  9 active torsions:
REMARK  status: ('A' for Active; 'I' for Inactive)
REMARK    1  A    between atoms: C_1  and  C_2
REMARK    2  A    between atoms: C_2  and  N_3
REMARK    3  A    between atoms: N_3  and  C_4
REMARK    4  A    between atoms: C_4  and  C_5
REMARK    5  A    between atoms: C_5  and  C_6
REMARK    6  A    between atoms: N_8  and  C_9
REMARK    7  A    between atoms: C_16  and  C_17
REMARK    8  A    between atoms: C_17  and  O_19
REMARK    9  A    between atoms: C_26  and  C_27
REMARK                            x       y       z     vdW  Elec       q    Type
REMARK                         _______ _______ _______ _____ _____    ______ ____
ROOT
ATOM      1  C   UNL     1       2.185   7.725  19.162  0.00  0.00    +0.000 A 
ATOM      2  C   UNL     1       2.780   8.574  18.209  0.00  0.00    +0.000 A 
ATOM      3  F   UNL     1       2.518   9.890  18.212  0.00  0.00    +0.000 F 
ATOM      4  C   UNL     1       3.642   8.103  17.216  0.00  0.00    +0.000 A 
ATOM      5  C   UNL     1       3.960   6.747  17.170  0.00  0.00    +0.000 A 
ATOM      6  C   UNL     1       4.910   6.235  16.147  0.00  0.00    +0.000 A 
ATOM      7  O   UNL     1       5.417   6.975  15.310  0.00  0.00    +0.000 OA
ATOM      8  C   UNL     1       5.245   4.789  16.157  0.00  0.00    +0.000 A 
ATOM      9  C   UNL     1       4.660   4.035  17.101  0.00  0.00    +0.000 A 
ATOM     10  N   UNL     1       3.761   4.483  18.045  0.00  0.00    +0.000 N 
ATOM     11  C   UNL     1       3.400   5.853  18.094  0.00  0.00    +0.000 A 
ATOM     12  C   UNL     1       2.489   6.351  19.059  0.00  0.00    +0.000 A 
ATOM     13  O   UNL     1       1.889   5.501  19.968  0.00  0.00    +0.000 OA
ATOM     14  C   UNL     1       1.823   4.158  19.489  0.00  0.00    +0.000 C 
ATOM     15  C   UNL     1       3.218   3.650  19.129  0.00  0.00    +0.000 C 
ATOM     16  C   UNL     1       4.162   3.677  20.335  0.00  0.00    +0.000 C 
ENDROOT
BRANCH   1  20
ATOM     17  C   UNL     1       0.415   9.577  21.423  0.00  0.00    +0.000 C 
ATOM     18  C   UNL     1       0.968  10.994  21.196  0.00  0.00    +0.000 C 
ATOM     19  C   UNL     1       1.521   8.501  21.543  0.00  0.00    +0.000 C 
ATOM     20  N   UNL     1       1.322   8.223  20.159  0.00  0.00    +0.000 N 
ATOM     21  C   UNL     1       0.054   8.885  20.091  0.00  0.00    +0.000 C 
BRANCH  17  22
ATOM     22  C   UNL     1      -0.633   9.524  22.540  0.00  0.00    +0.000 C 
BRANCH  22  23
ATOM     23  N   UNL     1      -0.617  10.770  23.314  0.00  0.00    +0.000 NA
ATOM     24  H   UNL     1      -0.466  10.557  24.299  0.00  0.00    +0.000 HD
BRANCH  23  26
ATOM     25  C   UNL     1      -1.551  12.997  23.152  0.00  0.00    +0.000 C 
ATOM     26  C   UNL     1      -1.871  11.509  23.203  0.00  0.00    +0.000 C 
ENDBRANCH  23  26
ENDBRANCH  22  23
ENDBRANCH  17  22
ENDBRANCH   1  20
BRANCH   8  27
ATOM     27  C   UNL     1       6.181   4.141  15.214  0.00  0.00    +0.000 C 
ATOM     28  O   UNL     1       5.849   3.252  14.446  0.00  0.00    +0.000 OA
BRANCH  27  29
ATOM     29  O   UNL     1       7.441   4.614  15.266  0.00  0.00    +0.000 OA
ATOM     30  H   UNL     1       8.134   3.919  15.364  0.00  0.00    +0.000 HD
ENDBRANCH  27  29
ENDBRANCH   8  27
TORSDOF 6
ENDMDL
MODEL 2
REMARK VINA RESULT:      -6.6      3.226      8.683
REMARK  Name = 
REMARK  9 active torsions:
REMARK  status: ('A' for Active; 'I' for Inactive)
REMARK    1  A    between atoms: C_1  and  C_2
REMARK    2  A    between atoms: C_2  and  N_3
REMARK    3  A    between atoms: N_3  and  C_4
REMARK    4  A    between atoms: C_4  and  C_5
REMARK    5  A    between atoms: C_5  and  C_6
REMARK    6  A    between atoms: N_8  and  C_9
REMARK    7  A    between atoms: C_16  and  C_17
REMARK    8  A    between atoms: C_17  and  O_19
REMARK    9  A    between atoms: C_26  and  C_27
REMARK                            x       y       z     vdW  Elec       q    Type
REMARK                         _______ _______ _______ _____ _____    ______ ____
ROOT
ATOM      1  C   UNL     1       2.023   7.344  19.536  0.00  0.00    +0.000 A 
ATOM      2  C   UNL     1       1.772   6.889  20.845  0.00  0.00    +0.000 A 
ATOM      3  F   UNL     1       2.176   5.670  21.232  0.00  0.00    +0.000 F 
ATOM      4  C   UNL     1       1.085   7.657  21.789  0.00  0.00    +0.000 A 
ATOM      5  C   UNL     1       0.650   8.936  21.448  0.00  0.00    +0.000 A 
ATOM      6  C   UNL     1      -0.045   9.783  22.453  0.00  0.00    +0.000 A 
ATOM      7  O   UNL     1      -0.274   9.380  23.588  0.00  0.00    +0.000 OA
ATOM      8  C   UNL     1      -0.460  11.152  22.055  0.00  0.00    +0.000 A 
ATOM      9  C   UNL     1      -0.176  11.534  20.800  0.00  0.00    +0.000 A 
ATOM     10  N   UNL     1       0.448  10.759  19.846  0.00  0.00    +0.000 N 
ATOM     11  C   UNL     1       0.873   9.444  20.160  0.00  0.00    +0.000 A 
ATOM     12  C   UNL     1       1.529   8.624  19.207  0.00  0.00    +0.000 A 
ATOM     13  O   UNL     1       1.742   9.072  17.917  0.00  0.00    +0.000 OA
ATOM     14  C   UNL     1       0.801  10.074  17.532  0.00  0.00    +0.000 C 
ATOM     15  C   UNL     1       0.836  11.245  18.512  0.00  0.00    +0.000 C 
ATOM     16  C   UNL     1       2.222  11.894  18.573  0.00  0.00    +0.000 C 
ENDROOT
BRANCH   1  20
ATOM     17  C   UNL     1       3.875   5.013  17.859  0.00  0.00    +0.000 C 
ATOM     18  C   UNL     1       4.258   4.027  18.976  0.00  0.00    +0.000 C 
ATOM     19  C   UNL     1       4.104   6.494  18.247  0.00  0.00    +0.000 C 
ATOM     20  N   UNL     1       2.724   6.554  18.602  0.00  0.00    +0.000 N 
ATOM     21  C   UNL     1       2.372   5.361  17.894  0.00  0.00    +0.000 C 
BRANCH  17  22
ATOM     22  C   UNL     1       4.467   4.624  16.500  0.00  0.00    +0.000 C 
BRANCH  22  23
ATOM     23  N   UNL     1       5.600   3.711  16.680  0.00  0.00    +0.000 NA
ATOM     24  H   UNL     1       5.651   3.419  17.655  0.00  0.00    +0.000 HD
BRANCH  23  26
ATOM     25  C   UNL     1       7.623   4.651  17.620  0.00  0.00    +0.000 C 
ATOM     26  C   UNL     1       6.876   4.331  16.333  0.00  0.00    +0.000 C 
ENDBRANCH  23  26
ENDBRANCH  22  23
ENDBRANCH  17  22
ENDBRANCH   1  20
BRANCH   8  27
ATOM     27  C   UNL     1      -1.145  12.111  22.948  0.00  0.00    +0.000 C 
ATOM     28  O   UNL     1      -0.621  13.135  23.358  0.00  0.00    +0.000 OA
BRANCH  27  29
ATOM     29  O   UNL     1      -2.404  11.764  23.277  0.00  0.00    +0.000 OA
ATOM     30  H   UNL     1      -2.753  10.982  22.788  0.00  0.00    +0.000 HD
ENDBRANCH  27  29
ENDBRANCH   8  27
TORSDOF 6
ENDMDL
MODEL 3
REMARK VINA RESULT:      -6.1      2.787      4.251
REMARK  Name = 
REMARK  9 active torsions:
REMARK  status: ('A' for Active; 'I' for Inactive)
REMARK    1  A    between atoms: C_1  and  C_2
REMARK    2  A    between atoms: C_2  and  N_3
REMARK    3  A    between atoms: N_3  and  C_4
REMARK    4  A    between atoms: C_4  and  C_5
REMARK    5  A    between atoms: C_5  and  C_6
REMARK    6  A    between atoms: N_8  and  C_9
REMARK    7  A    between atoms: C_16  and  C_17
REMARK    8  A    between atoms: C_17  and  O_19
REMARK    9  A    between atoms: C_26  and  C_27
REMARK                            x       y       z     vdW  Elec       q    Type
REMARK                         _______ _______ _______ _____ _____    ______ ____
ROOT
ATOM      1  C   UNL     1       2.194   7.476  19.433  0.00  0.00    +0.000 A 
ATOM      2  C   UNL     1       1.489   6.736  20.403  0.00  0.00    +0.000 A 
ATOM      3  F   UNL     1       0.454   7.284  21.058  0.00  0.00    +0.000 F 
ATOM      4  C   UNL     1       1.831   5.426  20.745  0.00  0.00    +0.000 A 
ATOM      5  C   UNL     1       2.891   4.800  20.090  0.00  0.00    +0.000 A 
ATOM      6  C   UNL     1       3.241   3.391  20.411  0.00  0.00    +0.000 A 
ATOM      7  O   UNL     1       2.634   2.754  21.264  0.00  0.00    +0.000 OA
ATOM      8  C   UNL     1       4.356   2.755  19.664  0.00  0.00    +0.000 A 
ATOM      9  C   UNL     1       4.976   3.505  18.740  0.00  0.00    +0.000 A 
ATOM     10  N   UNL     1       4.682   4.818  18.441  0.00  0.00    +0.000 N 
ATOM     11  C   UNL     1       3.628   5.485  19.114  0.00  0.00    +0.000 A 
ATOM     12  C   UNL     1       3.290   6.831  18.823  0.00  0.00    +0.000 A 
ATOM     13  O   UNL     1       4.010   7.555  17.891  0.00  0.00    +0.000 OA
ATOM     14  C   UNL     1       5.339   7.058  17.732  0.00  0.00    +0.000 C 
ATOM     15  C   UNL     1       5.314   5.578  17.351  0.00  0.00    +0.000 C 
ATOM     16  C   UNL     1       4.560   5.342  16.040  0.00  0.00    +0.000 C 
ENDROOT
BRANCH   1  20
ATOM     17  C   UNL     1       0.617  10.416  18.696  0.00  0.00    +0.000 C 
ATOM     18  C   UNL     1      -0.868  10.039  18.829  0.00  0.00    +0.000 C 
ATOM     19  C   UNL     1       1.435   9.396  17.868  0.00  0.00    +0.000 C 
ATOM     20  N   UNL     1       1.826   8.795  19.100  0.00  0.00    +0.000 N 
ATOM     21  C   UNL     1       1.444   9.919  19.901  0.00  0.00    +0.000 C 
BRANCH  17  22
ATOM     22  C   UNL     1       0.820  11.874  18.268  0.00  0.00    +0.000 C 
BRANCH  22  23
ATOM     23  N   UNL     1      -0.473  12.556  18.155  0.00  0.00    +0.000 NA
ATOM     24  H   UNL     1      -0.754  12.592  17.176  0.00  0.00    +0.000 HD
BRANCH  23  26
ATOM     25  C   UNL     1       0.809  14.075  19.536  0.00  0.00    +0.000 C 
ATOM     26  C   UNL     1      -0.425  13.927  18.656  0.00  0.00    +0.000 C 
ENDBRANCH  23  26
ENDBRANCH  22  23
ENDBRANCH  17  22
ENDBRANCH   1  20
BRANCH   8  27
ATOM     27  C   UNL     1       4.807   1.361  19.863  0.00  0.00    +0.000 C 
ATOM     28  O   UNL     1       5.435   0.995  20.844  0.00  0.00    +0.000 OA
BRANCH  27  29
ATOM     29  O   UNL     1       4.467   0.518  18.869  0.00  0.00    +0.000 OA
ATOM     30  H   UNL     1       4.725  -0.421  19.025  0.00  0.00    +0.000 HD
ENDBRANCH  27  29
ENDBRANCH   8  27
TORSDOF 6
ENDMDL
MODEL 4
REMARK VINA RESULT:      -6.1      3.744      6.972
REMARK  Name = 
REMARK  9 active torsions:
REMARK  status: ('A' for Active; 'I' for Inactive)
REMARK    1  A    between atoms: C_1  and  C_2
REMARK    2  A    between atoms: C_2  and  N_3
REMARK    3  A    between atoms: N_3  and  C_4
REMARK    4  A    between atoms: C_4  and  C_5
REMARK    5  A    between atoms: C_5  and  C_6
REMARK    6  A    between atoms: N_8  and  C_9
REMARK    7  A    between atoms: C_16  and  C_17
REMARK    8  A    between atoms: C_17  and  O_19
REMARK    9  A    between atoms: C_26  and  C_27
REMARK                            x       y       z     vdW  Elec       q    Type
REMARK                         _______ _______ _______ _____ _____    ______ ____
ROOT
ATOM      1  C   UNL     1      -1.834  11.894  21.575  0.00  0.00    +0.000 A 
ATOM      2  C   UNL     1      -1.148  11.158  22.561  0.00  0.00    +0.000 A 
ATOM      3  F   UNL     1      -1.412  11.351  23.862  0.00  0.00    +0.000 F 
ATOM      4  C   UNL     1      -0.160  10.221  22.248  0.00  0.00    +0.000 A 
ATOM      5  C   UNL     1       0.150   9.970  20.912  0.00  0.00    +0.000 A 
ATOM      6  C   UNL     1       1.167   8.945  20.559  0.00  0.00    +0.000 A 
ATOM      7  O   UNL     1       1.773   8.315  21.420  0.00  0.00    +0.000 OA
ATOM      8  C   UNL     1       1.440   8.689  19.122  0.00  0.00    +0.000 A 
ATOM      9  C   UNL     1       0.741   9.408  18.232  0.00  0.00    +0.000 A 
ATOM     10  N   UNL     1      -0.191  10.377  18.535  0.00  0.00    +0.000 N 
ATOM     11  C   UNL     1      -0.502  10.670  19.887  0.00  0.00    +0.000 A 
ATOM     12  C   UNL     1      -1.464  11.652  20.235  0.00  0.00    +0.000 A 
ATOM     13  O   UNL     1      -2.108  12.388  19.259  0.00  0.00    +0.000 OA
ATOM     14  C   UNL     1      -1.345  12.472  18.056  0.00  0.00    +0.000 C 
ATOM     15  C   UNL     1      -1.014  11.075  17.534  0.00  0.00    +0.000 C 
ATOM     16  C   UNL     1      -2.279  10.264  17.238  0.00  0.00    +0.000 C 
ENDROOT
BRANCH   1  20
ATOM     17  C   UNL     1      -4.054  14.006  23.088  0.00  0.00    +0.000 C 
ATOM     18  C   UNL     1      -3.738  13.806  24.581  0.00  0.00    +0.000 C 
ATOM     19  C   UNL     1      -4.193  12.676  22.310  0.00  0.00    +0.000 C 
ATOM     20  N   UNL     1      -2.831  12.830  21.915  0.00  0.00    +0.000 N 
ATOM     21  C   UNL     1      -2.771  14.220  22.257  0.00  0.00    +0.000 C 
BRANCH  17  22
ATOM     22  C   UNL     1      -5.205  14.990  22.856  0.00  0.00    +0.000 C 
BRANCH  22  23
ATOM     23  N   UNL     1      -5.967  15.185  24.093  0.00  0.00    +0.000 NA
ATOM     24  H   UNL     1      -5.576  14.599  24.829  0.00  0.00    +0.000 HD
BRANCH  23  26
ATOM     25  C   UNL     1      -7.528  13.338  24.196  0.00  0.00    +0.000 C 
ATOM     26  C   UNL     1      -7.376  14.831  23.941  0.00  0.00    +0.000 C 
ENDBRANCH  23  26
ENDBRANCH  22  23
ENDBRANCH  17  22
ENDBRANCH   1  20
BRANCH   8  27
ATOM     27  C   UNL     1       2.411   7.692  18.621  0.00  0.00    +0.000 C 
ATOM     28  O   UNL     1       3.129   7.886  17.653  0.00  0.00    +0.000 OA
BRANCH  27  29
ATOM     29  O   UNL     1       2.443   6.543  19.323  0.00  0.00    +0.000 OA
ATOM     30  H   UNL     1       3.347   6.255  19.593  0.00  0.00    +0.000 HD
ENDBRANCH  27  29
ENDBRANCH   8  27
TORSDOF 6
ENDMDL
MODEL 5
REMARK VINA RESULT:      -6.0      3.336      8.965
REMARK  Name = 
REMARK  9 active torsions:
REMARK  status: ('A' for Active; 'I' for Inactive)
REMARK    1  A    between atoms: C_1  and  C_2
REMARK    2  A    between atoms: C_2  and  N_3
REMARK    3  A    between atoms: N_3  and  C_4
REMARK    4  A    between atoms: C_4  and  C_5
REMARK    5  A    between atoms: C_5  and  C_6
REMARK    6  A    between atoms: N_8  and  C_9
REMARK    7  A    between atoms: C_16  and  C_17
REMARK    8  A    between atoms: C_17  and  O_19
REMARK    9  A    between atoms: C_26  and  C_27
REMARK                            x       y       z     vdW  Elec       q    Type
REMARK                         _______ _______ _______ _____ _____    ______ ____
ROOT
ATOM      1  C   UNL     1       1.832   7.993  19.604  0.00  0.00    +0.000 A 
ATOM      2  C   UNL     1       1.686   7.509  20.919  0.00  0.00    +0.000 A 
ATOM      3  F   UNL     1       2.248   6.347  21.283  0.00  0.00    +0.000 F 
ATOM      4  C   UNL     1       0.947   8.186  21.891  0.00  0.00    +0.000 A 
ATOM      5  C   UNL     1       0.348   9.405  21.574  0.00  0.00    +0.000 A 
ATOM      6  C   UNL     1      -0.406  10.160  22.609  0.00  0.00    +0.000 A 
ATOM      7  O   UNL     1      -0.542   9.730  23.750  0.00  0.00    +0.000 OA
ATOM      8  C   UNL     1      -0.998  11.469  22.235  0.00  0.00    +0.000 A 
ATOM      9  C   UNL     1      -0.808  11.884  20.973  0.00  0.00    +0.000 A 
ATOM     10  N   UNL     1      -0.132  11.192  19.992  0.00  0.00    +0.000 N 
ATOM     11  C   UNL     1       0.461   9.938  20.283  0.00  0.00    +0.000 A 
ATOM     12  C   UNL     1       1.175   9.205  19.302  0.00  0.00    +0.000 A 
ATOM     13  O   UNL     1       1.285   9.677  18.007  0.00  0.00    +0.000 OA
ATOM     14  C   UNL     1       0.216  10.558  17.663  0.00  0.00    +0.000 C 
ATOM     15  C   UNL     1       0.146  11.724  18.648  0.00  0.00    +0.000 C 
ATOM     16  C   UNL     1       1.445  12.535  18.662  0.00  0.00    +0.000 C 
ENDROOT
BRANCH   1  20
ATOM     17  C   UNL     1       4.025   6.041  17.855  0.00  0.00    +0.000 C 
ATOM     18  C   UNL     1       4.854   5.389  18.974  0.00  0.00    +0.000 C 
ATOM     19  C   UNL     1       3.850   7.568  18.035  0.00  0.00    +0.000 C 
ATOM     20  N   UNL     1       2.588   7.296  18.641  0.00  0.00    +0.000 N 
ATOM     21  C   UNL     1       2.510   5.955  18.142  0.00  0.00    +0.000 C 
BRANCH  17  22
ATOM     22  C   UNL     1       4.491   5.626  16.456  0.00  0.00    +0.000 C 
BRANCH  22  23
ATOM     23  N   UNL     1       5.803   4.974  16.528  0.00  0.00    +0.000 NA
ATOM     24  H   UNL     1       6.515   5.601  16.156  0.00  0.00    +0.000 HD
BRANCH  23  26
ATOM     25  C   UNL     1       6.435   4.041  14.386  0.00  0.00    +0.000 C 
ATOM     26  C   UNL     1       5.852   3.734  15.759  0.00  0.00    +0.000 C 
ENDBRANCH  23  26
ENDBRANCH  22  23
ENDBRANCH  17  22
ENDBRANCH   1  20
BRANCH   8  27
ATOM     27  C   UNL     1      -1.759  12.337  23.159  0.00  0.00    +0.000 C 
ATOM     28  O   UNL     1      -1.381  13.446  23.501  0.00  0.00    +0.000 OA
BRANCH  27  29
ATOM     29  O   UNL     1      -2.916  11.804  23.597  0.00  0.00    +0.000 OA
ATOM     30  H   UNL     1      -2.974  11.705  24.577  0.00  0.00    +0.000 HD
ENDBRANCH  27  29
ENDBRANCH   8  27
TORSDOF 6
ENDMDL
MODEL 6
REMARK VINA RESULT:      -6.0      3.572      8.077
REMARK  Name = 
REMARK  9 active torsions:
REMARK  status: ('A' for Active; 'I' for Inactive)
REMARK    1  A    between atoms: C_1  and  C_2
REMARK    2  A    between atoms: C_2  and  N_3
REMARK    3  A    between atoms: N_3  and  C_4
REMARK    4  A    between atoms: C_4  and  C_5
REMARK    5  A    between atoms: C_5  and  C_6
REMARK    6  A    between atoms: N_8  and  C_9
REMARK    7  A    between atoms: C_16  and  C_17
REMARK    8  A    between atoms: C_17  and  O_19
REMARK    9  A    between atoms: C_26  and  C_27
REMARK                            x       y       z     vdW  Elec       q    Type
REMARK                         _______ _______ _______ _____ _____    ______ ____
ROOT
ATOM      1  C   UNL     1       1.760   8.358  19.346  0.00  0.00    +0.000 A 
ATOM      2  C   UNL     1       1.567   9.025  18.121  0.00  0.00    +0.000 A 
ATOM      3  F   UNL     1       2.016   8.490  16.976  0.00  0.00    +0.000 F 
ATOM      4  C   UNL     1       0.929  10.265  18.033  0.00  0.00    +0.000 A 
ATOM      5  C   UNL     1       0.433  10.866  19.188  0.00  0.00    +0.000 A 
ATOM      6  C   UNL     1      -0.286  12.165  19.107  0.00  0.00    +0.000 A 
ATOM      7  O   UNL     1      -0.442  12.750  18.040  0.00  0.00    +0.000 OA
ATOM      8  C   UNL     1      -0.828  12.750  20.360  0.00  0.00    +0.000 A 
ATOM      9  C   UNL     1      -0.627  12.057  21.491  0.00  0.00    +0.000 A 
ATOM     10  N   UNL     1       0.054  10.864  21.593  0.00  0.00    +0.000 N 
ATOM     11  C   UNL     1       0.593  10.248  20.437  0.00  0.00    +0.000 A 
ATOM     12  C   UNL     1       1.288   9.014  20.503  0.00  0.00    +0.000 A 
ATOM     13  O   UNL     1       1.497   8.385  21.716  0.00  0.00    +0.000 OA
ATOM     14  C   UNL     1       1.481   9.303  22.809  0.00  0.00    +0.000 C 
ATOM     15  C   UNL     1       0.166  10.080  22.834  0.00  0.00    +0.000 C 
ATOM     16  C   UNL     1      -1.042   9.149  22.978  0.00  0.00    +0.000 C 
ENDROOT
BRANCH   1  20
ATOM     17  C   UNL     1       2.827   5.132  18.984  0.00  0.00    +0.000 C 
ATOM     18  C   UNL     1       1.896   4.597  17.882  0.00  0.00    +0.000 C 
ATOM     19  C   UNL     1       2.076   5.899  20.099  0.00  0.00    +0.000 C 
ATOM     20  N   UNL     1       2.401   7.104  19.411  0.00  0.00    +0.000 N 
ATOM     21  C   UNL     1       3.425   6.505  18.609  0.00  0.00    +0.000 C 
BRANCH  17  22
ATOM     22  C   UNL     1       3.800   4.068  19.503  0.00  0.00    +0.000 C 
BRANCH  22  23
ATOM     23  N   UNL     1       3.091   2.810  19.758  0.00  0.00    +0.000 NA
ATOM     24  H   UNL     1       2.160   2.854  19.346  0.00  0.00    +0.000 HD
BRANCH  23  26
ATOM     25  C   UNL     1       1.458   2.641  21.537  0.00  0.00    +0.000 C 
ATOM     26  C   UNL     1       2.935   2.538  21.185  0.00  0.00    +0.000 C 
ENDBRANCH  23  26
ENDBRANCH  22  23
ENDBRANCH  17  22
ENDBRANCH   1  20
BRANCH   8  27
ATOM     27  C   UNL     1      -1.575  14.023  20.432  0.00  0.00    +0.000 C 
ATOM     28  O   UNL     1      -2.435  14.248  21.269  0.00  0.00    +0.000 OA
BRANCH  27  29
ATOM     29  O   UNL     1      -1.230  14.927  19.494  0.00  0.00    +0.000 OA
ATOM     30  H   UNL     1      -0.475  14.651  18.921  0.00  0.00    +0.000 HD
ENDBRANCH  27  29
ENDBRANCH   8  27
TORSDOF 6
ENDMDL
MODEL 7
REMARK VINA RESULT:      -6.0      3.655      6.861
REMARK  Name = 
REMARK  9 active torsions:
REMARK  status: ('A' for Active; 'I' for Inactive)
REMARK    1  A    between atoms: C_1  and  C_2
REMARK    2  A    between atoms: C_2  and  N_3
REMARK    3  A    between atoms: N_3  and  C_4
REMARK    4  A    between atoms: C_4  and  C_5
REMARK    5  A    between atoms: C_5  and  C_6
REMARK    6  A    between atoms: N_8  and  C_9
REMARK    7  A    between atoms: C_16  and  C_17
REMARK    8  A    between atoms: C_17  and  O_19
REMARK    9  A    between atoms: C_26  and  C_27
REMARK                            x       y       z     vdW  Elec       q    Type
REMARK                         _______ _______ _______ _____ _____    ______ ____
ROOT
ATOM      1  C   UNL     1      -1.714  11.814  21.578  0.00  0.00    +0.000 A 
ATOM      2  C   UNL     1      -1.055  11.004  22.523  0.00  0.00    +0.000 A 
ATOM      3  F   UNL     1      -1.325  11.126  23.832  0.00  0.00    +0.000 F 
ATOM      4  C   UNL     1      -0.087  10.064  22.162  0.00  0.00    +0.000 A 
ATOM      5  C   UNL     1       0.228   9.885  20.816  0.00  0.00    +0.000 A 
ATOM      6  C   UNL     1       1.224   8.858  20.410  0.00  0.00    +0.000 A 
ATOM      7  O   UNL     1       1.807   8.163  21.236  0.00  0.00    +0.000 OA
ATOM      8  C   UNL     1       1.502   8.681  18.962  0.00  0.00    +0.000 A 
ATOM      9  C   UNL     1       0.828   9.469  18.111  0.00  0.00    +0.000 A 
ATOM     10  N   UNL     1      -0.082  10.440  18.465  0.00  0.00    +0.000 N 
ATOM     11  C   UNL     1      -0.398  10.660  19.829  0.00  0.00    +0.000 A 
ATOM     12  C   UNL     1      -1.339  11.643  20.229  0.00  0.00    +0.000 A 
ATOM     13  O   UNL     1      -1.957  12.451  19.294  0.00  0.00    +0.000 OA
ATOM     14  C   UNL     1      -1.182  12.588  18.103  0.00  0.00    +0.000 C 
ATOM     15  C   UNL     1      -0.880  11.216  17.502  0.00  0.00    +0.000 C 
ATOM     16  C   UNL     1      -2.162  10.455  17.149  0.00  0.00    +0.000 C 
ENDROOT
BRANCH   1  20
ATOM     17  C   UNL     1      -4.101  13.697  23.139  0.00  0.00    +0.000 C 
ATOM     18  C   UNL     1      -4.233  13.000  24.504  0.00  0.00    +0.000 C 
ATOM     19  C   UNL     1      -4.117  12.712  21.946  0.00  0.00    +0.000 C 
ATOM     20  N   UNL     1      -2.692  12.753  21.966  0.00  0.00    +0.000 N 
ATOM     21  C   UNL     1      -2.623  13.941  22.763  0.00  0.00    +0.000 C 
BRANCH  17  22
ATOM     22  C   UNL     1      -5.061  14.882  22.986  0.00  0.00    +0.000 C 
BRANCH  22  23
ATOM     23  N   UNL     1      -5.574  15.296  24.296  0.00  0.00    +0.000 NA
ATOM     24  H   UNL     1      -6.575  15.111  24.343  0.00  0.00    +0.000 HD
BRANCH  23  26
ATOM     25  C   UNL     1      -3.936  16.925  25.017  0.00  0.00    +0.000 C 
ATOM     26  C   UNL     1      -5.370  16.719  24.549  0.00  0.00    +0.000 C 
ENDBRANCH  23  26
ENDBRANCH  22  23
ENDBRANCH  17  22
ENDBRANCH   1  20
BRANCH   8  27
ATOM     27  C   UNL     1       2.453   7.692  18.410  0.00  0.00    +0.000 C 
ATOM     28  O   UNL     1       3.267   7.960  17.540  0.00  0.00    +0.000 OA
BRANCH  27  29
ATOM     29  O   UNL     1       2.352   6.461  18.947  0.00  0.00    +0.000 OA
ATOM     30  H   UNL     1       1.521   5.982  18.715  0.00  0.00    +0.000 HD
ENDBRANCH  27  29
ENDBRANCH   8  27
TORSDOF 6
ENDMDL
MODEL 8
REMARK VINA RESULT:      -5.9      3.408      8.149
REMARK  Name = 
REMARK  9 active torsions:
REMARK  status: ('A' for Active; 'I' for Inactive)
REMARK    1  A    between atoms: C_1  and  C_2
REMARK    2  A    between atoms: C_2  and  N_3
REMARK    3  A    between atoms: N_3  and  C_4
REMARK    4  A    between atoms: C_4  and  C_5
REMARK    5  A    between atoms: C_5  and  C_6
REMARK    6  A    between atoms: N_8  and  C_9
REMARK    7  A    between atoms: C_16  and  C_17
REMARK    8  A    between atoms: C_17  and  O_19
REMARK    9  A    between atoms: C_26  and  C_27
REMARK                            x       y       z     vdW  Elec       q    Type
REMARK                         _______ _______ _______ _____ _____    ______ ____
ROOT
ATOM      1  C   UNL     1       1.982   8.081  19.257  0.00  0.00    +0.000 A 
ATOM      2  C   UNL     1       1.860   8.748  18.022  0.00  0.00    +0.000 A 
ATOM      3  F   UNL     1       2.342   8.195  16.899  0.00  0.00    +0.000 F 
ATOM      4  C   UNL     1       1.261  10.005  17.903  0.00  0.00    +0.000 A 
ATOM      5  C   UNL     1       0.732  10.624  19.034  0.00  0.00    +0.000 A 
ATOM      6  C   UNL     1       0.054  11.941  18.918  0.00  0.00    +0.000 A 
ATOM      7  O   UNL     1      -0.040  12.526  17.844  0.00  0.00    +0.000 OA
ATOM      8  C   UNL     1      -0.524  12.546  20.144  0.00  0.00    +0.000 A 
ATOM      9  C   UNL     1      -0.393  11.854  21.286  0.00  0.00    +0.000 A 
ATOM     10  N   UNL     1       0.250  10.642  21.421  0.00  0.00    +0.000 N 
ATOM     11  C   UNL     1       0.821  10.007  20.290  0.00  0.00    +0.000 A 
ATOM     12  C   UNL     1       1.479   8.754  20.390  0.00  0.00    +0.000 A 
ATOM     13  O   UNL     1       1.618   8.125  21.613  0.00  0.00    +0.000 OA
ATOM     14  C   UNL     1       1.580   9.048  22.701  0.00  0.00    +0.000 C 
ATOM     15  C   UNL     1       0.287   9.861  22.667  0.00  0.00    +0.000 C 
ATOM     16  C   UNL     1      -0.952   8.964  22.762  0.00  0.00    +0.000 C 
ENDROOT
BRANCH   1  20
ATOM     17  C   UNL     1       3.530   5.075  18.763  0.00  0.00    +0.000 C 
ATOM     18  C   UNL     1       3.812   5.092  17.251  0.00  0.00    +0.000 C 
ATOM     19  C   UNL     1       2.084   5.495  19.119  0.00  0.00    +0.000 C 
ATOM     20  N   UNL     1       2.584   6.810  19.353  0.00  0.00    +0.000 N 
ATOM     21  C   UNL     1       3.953   6.398  19.437  0.00  0.00    +0.000 C 
BRANCH  17  22
ATOM     22  C   UNL     1       3.987   3.775  19.434  0.00  0.00    +0.000 C 
BRANCH  22  23
ATOM     23  N   UNL     1       4.342   2.776  18.421  0.00  0.00    +0.000 NA
ATOM     24  H   UNL     1       4.183   3.162  17.492  0.00  0.00    +0.000 HD
BRANCH  23  26
ATOM     25  C   UNL     1       2.087   1.906  18.293  0.00  0.00    +0.000 C 
ATOM     26  C   UNL     1       3.548   1.557  18.541  0.00  0.00    +0.000 C 
ENDBRANCH  23  26
ENDBRANCH  22  23
ENDBRANCH  17  22
ENDBRANCH   1  20
BRANCH   8  27
ATOM     27  C   UNL     1      -1.239  13.841  20.180  0.00  0.00    +0.000 C 
ATOM     28  O   UNL     1      -2.072  14.122  21.027  0.00  0.00    +0.000 OA
BRANCH  27  29
ATOM     29  O   UNL     1      -0.894  14.695  19.198  0.00  0.00    +0.000 OA
ATOM     30  H   UNL     1      -1.493  15.473  19.105  0.00  0.00    +0.000 HD
ENDBRANCH  27  29
ENDBRANCH   8  27
TORSDOF 6
ENDMDL
MODEL 9
REMARK VINA RESULT:      -5.9      3.227      6.107
REMARK  Name = 
REMARK  9 active torsions:
REMARK  status: ('A' for Active; 'I' for Inactive)
REMARK    1  A    between atoms: C_1  and  C_2
REMARK    2  A    between atoms: C_2  and  N_3
REMARK    3  A    between atoms: N_3  and  C_4
REMARK    4  A    between atoms: C_4  and  C_5
REMARK    5  A    between atoms: C_5  and  C_6
REMARK    6  A    between atoms: N_8  and  C_9
REMARK    7  A    between atoms: C_16  and  C_17
REMARK    8  A    between atoms: C_17  and  O_19
REMARK    9  A    between atoms: C_26  and  C_27
REMARK                            x       y       z     vdW  Elec       q    Type
REMARK                         _______ _______ _______ _____ _____    ______ ____
ROOT
ATOM      1  C   UNL     1      -0.578  10.891  22.326  0.00  0.00    +0.000 A 
ATOM      2  C   UNL     1      -0.010   9.781  22.980  0.00  0.00    +0.000 A 
ATOM      3  F   UNL     1      -0.191   9.600  24.297  0.00  0.00    +0.000 F 
ATOM      4  C   UNL     1       0.775   8.836  22.314  0.00  0.00    +0.000 A 
ATOM      5  C   UNL     1       0.990   8.966  20.942  0.00  0.00    +0.000 A 
ATOM      6  C   UNL     1       1.787   7.947  20.210  0.00  0.00    +0.000 A 
ATOM      7  O   UNL     1       2.291   6.988  20.785  0.00  0.00    +0.000 OA
ATOM      8  C   UNL     1       1.960   8.109  18.744  0.00  0.00    +0.000 A 
ATOM      9  C   UNL     1       1.379   9.176  18.176  0.00  0.00    +0.000 A 
ATOM     10  N   UNL     1       0.655  10.144  18.838  0.00  0.00    +0.000 N 
ATOM     11  C   UNL     1       0.447  10.049  20.237  0.00  0.00    +0.000 A 
ATOM     12  C   UNL     1      -0.303  11.020  20.948  0.00  0.00    +0.000 A 
ATOM     13  O   UNL     1      -0.830  12.120  20.299  0.00  0.00    +0.000 OA
ATOM     14  C   UNL     1      -0.103  12.446  19.114  0.00  0.00    +0.000 C 
ATOM     15  C   UNL     1      -0.055  11.246  18.169  0.00  0.00    +0.000 C 
ATOM     16  C   UNL     1      -1.459  10.792  17.756  0.00  0.00    +0.000 C 
ENDROOT
BRANCH   1  20
ATOM     17  C   UNL     1      -2.751  13.330  23.330  0.00  0.00    +0.000 C 
ATOM     18  C   UNL     1      -3.385  13.777  22.001  0.00  0.00    +0.000 C 
ATOM     19  C   UNL     1      -1.208  13.222  23.264  0.00  0.00    +0.000 C 
ATOM     20  N   UNL     1      -1.372  11.828  23.017  0.00  0.00    +0.000 N 
ATOM     21  C   UNL     1      -2.732  11.792  23.465  0.00  0.00    +0.000 C 
BRANCH  17  22
ATOM     22  C   UNL     1      -3.272  14.127  24.530  0.00  0.00    +0.000 C 
BRANCH  22  23
ATOM     23  N   UNL     1      -4.449  14.913  24.148  0.00  0.00    +0.000 NA
ATOM     24  H   UNL     1      -4.464  15.033  23.136  0.00  0.00    +0.000 HD
BRANCH  23  26
ATOM     25  C   UNL     1      -3.010  16.692  24.938  0.00  0.00    +0.000 C 
ATOM     26  C   UNL     1      -4.453  16.241  24.755  0.00  0.00    +0.000 C 
ENDBRANCH  23  26
ENDBRANCH  22  23
ENDBRANCH  17  22
ENDBRANCH   1  20
BRANCH   8  27
ATOM     27  C   UNL     1       2.712   7.170  17.883  0.00  0.00    +0.000 C 
ATOM     28  O   UNL     1       3.678   7.503  17.215  0.00  0.00    +0.000 OA
BRANCH  27  29
ATOM     29  O   UNL     1       2.244   5.907  17.895  0.00  0.00    +0.000 OA
ATOM     30  H   UNL     1       2.865   5.239  17.519  0.00  0.00    +0.000 HD
ENDBRANCH  27  29
ENDBRANCH   8  27
TORSDOF 6
ENDMDL
