MODEL 1
REMARK VINA RESULT:      -7.5      0.000      0.000
REMARK  Name = 
REMARK  7 active torsions:
REMARK  status: ('A' for Active; 'I' for Inactive)
REMARK    1  A    between atoms: C_2  and  C_3
REMARK    2  A    between atoms: C_4  and  C_5
REMARK    3  A    between atoms: N_7  and  C_8
REMARK    4  A    between atoms: C_8  and  C_9
REMARK    5  A    between atoms: C_9  and  O_10
REMARK    6  A    between atoms: O_10  and  C_11
REMARK    7  A    between atoms: N_19  and  O_20
REMARK                            x       y       z     vdW  Elec       q    Type
REMARK                         _______ _______ _______ _____ _____    ______ ____
ROOT
ATOM      1  C   UNL     1       6.537   4.599  14.915  0.00  0.00    +0.000 A 
ATOM      2  C   UNL     1       5.741   4.772  16.017  0.00  0.00    +0.000 A 
ATOM      3  N   UNL     1       6.359   5.773  16.713  0.00  0.00    +0.000 N 
ATOM      4  N   UNL     1       7.473   6.186  16.076  0.00  0.00    +0.000 NA
ATOM      5  N   UNL     1       7.590   5.465  14.964  0.00  0.00    +0.000 NA
ENDROOT
BRANCH   1   7
ATOM      6  C   UNL     1       5.401   3.846  12.893  0.00  0.00    +0.000 C 
ATOM      7  C   UNL     1       6.324   3.686  13.854  0.00  0.00    +0.000 C 
BRANCH   6   9
ATOM      8  O   UNL     1       4.262   2.796  11.074  0.00  0.00    +0.000 OA
ATOM      9  C   UNL     1       5.217   2.818  11.844  0.00  0.00    +0.000 C 
ATOM     10  N   UNL     1       6.241   1.909  11.798  0.00  0.00    +0.000 N 
ATOM     11  H   UNL     1       7.092   1.964  12.347  0.00  0.00    +0.000 HD
BRANCH  10  12
ATOM     12  O   UNL     1       6.225   0.976  10.740  0.00  0.00    +0.000 OA
ATOM     13  H   UNL     1       6.354   1.546   9.951  0.00  0.00    +0.000 HD
ENDBRANCH  10  12
ENDBRANCH   6   9
ENDBRANCH   1   7
BRANCH   3  14
ATOM     14  C   UNL     1       5.962   6.403  17.959  0.00  0.00    +0.000 C 
BRANCH  14  15
ATOM     15  C   UNL     1       5.869   5.405  19.107  0.00  0.00    +0.000 C 
BRANCH  15  16
ATOM     16  O   UNL     1       4.543   5.309  19.628  0.00  0.00    +0.000 OA
BRANCH  16  17
ATOM     17  C   UNL     1       3.812   4.285  19.068  0.00  0.00    +0.000 A 
ATOM     18  C   UNL     1       2.644   4.662  18.405  0.00  0.00    +0.000 A 
ATOM     19  C   UNL     1       1.822   3.693  17.820  0.00  0.00    +0.000 A 
ATOM     20  C   UNL     1       2.174   2.345  17.882  0.00  0.00    +0.000 A 
ATOM     21  C   UNL     1       3.350   1.965  18.521  0.00  0.00    +0.000 A 
ATOM     22  C   UNL     1       4.169   2.933  19.108  0.00  0.00    +0.000 A 
ENDBRANCH  16  17
ENDBRANCH  15  16
ENDBRANCH  14  15
ENDBRANCH   3  14
TORSDOF 7
ENDMDL
MODEL 2
REMARK VINA RESULT:      -7.4      1.159      1.363
REMARK  Name = 
REMARK  7 active torsions:
REMARK  status: ('A' for Active; 'I' for Inactive)
REMARK    1  A    between atoms: C_2  and  C_3
REMARK    2  A    between atoms: C_4  and  C_5
REMARK    3  A    between atoms: N_7  and  C_8
REMARK    4  A    between atoms: C_8  and  C_9
REMARK    5  A    between atoms: C_9  and  O_10
REMARK    6  A    between atoms: O_10  and  C_11
REMARK    7  A    between atoms: N_19  and  O_20
REMARK                            x       y       z     vdW  Elec       q    Type
REMARK                         _______ _______ _______ _____ _____    ______ ____
ROOT
ATOM      1  C   UNL     1       6.131   4.740  15.140  0.00  0.00    +0.000 A 
ATOM      2  C   UNL     1       6.368   4.403  16.446  0.00  0.00    +0.000 A 
ATOM      3  N   UNL     1       6.219   5.582  17.121  0.00  0.00    +0.000 N 
ATOM      4  N   UNL     1       5.915   6.586  16.275  0.00  0.00    +0.000 NA
ATOM      5  N   UNL     1       5.859   6.074  15.048  0.00  0.00    +0.000 NA
ENDROOT
BRANCH   1   7
ATOM      6  C   UNL     1       5.217   3.878  13.050  0.00  0.00    +0.000 C 
ATOM      7  C   UNL     1       6.137   3.865  14.027  0.00  0.00    +0.000 C 
BRANCH   6   9
ATOM      8  O   UNL     1       4.405   2.784  11.087  0.00  0.00    +0.000 OA
ATOM      9  C   UNL     1       5.277   2.897  11.944  0.00  0.00    +0.000 C 
ATOM     10  N   UNL     1       6.422   2.146  11.954  0.00  0.00    +0.000 N 
ATOM     11  H   UNL     1       7.205   2.289  12.582  0.00  0.00    +0.000 HD
BRANCH  10  12
ATOM     12  O   UNL     1       6.634   1.283  10.858  0.00  0.00    +0.000 OA
ATOM     13  H   UNL     1       7.342   1.743  10.358  0.00  0.00    +0.000 HD
ENDBRANCH  10  12
ENDBRANCH   6   9
ENDBRANCH   1   7
BRANCH   3  14
ATOM     14  C   UNL     1       6.329   5.844  18.544  0.00  0.00    +0.000 C 
BRANCH  14  15
ATOM     15  C   UNL     1       5.334   5.029  19.361  0.00  0.00    +0.000 C 
BRANCH  15  16
ATOM     16  O   UNL     1       4.090   5.710  19.527  0.00  0.00    +0.000 OA
BRANCH  16  17
ATOM     17  C   UNL     1       3.009   4.859  19.582  0.00  0.00    +0.000 A 
ATOM     18  C   UNL     1       2.624   4.281  18.372  0.00  0.00    +0.000 A 
ATOM     19  C   UNL     1       1.525   3.418  18.321  0.00  0.00    +0.000 A 
ATOM     20  C   UNL     1       0.815   3.117  19.482  0.00  0.00    +0.000 A 
ATOM     21  C   UNL     1       1.208   3.672  20.697  0.00  0.00    +0.000 A 
ATOM     22  C   UNL     1       2.305   4.536  20.747  0.00  0.00    +0.000 A 
ENDBRANCH  16  17
ENDBRANCH  15  16
ENDBRANCH  14  15
ENDBRANCH   3  14
TORSDOF 7
ENDMDL
MODEL 3
REMARK VINA RESULT:      -7.3      0.862      1.173
REMARK  Name = 
REMARK  7 active torsions:
REMARK  status: ('A' for Active; 'I' for Inactive)
REMARK    1  A    between atoms: C_2  and  C_3
REMARK    2  A    between atoms: C_4  and  C_5
REMARK    3  A    between atoms: N_7  and  C_8
REMARK    4  A    between atoms: C_8  and  C_9
REMARK    5  A    between atoms: C_9  and  O_10
REMARK    6  A    between atoms: O_10  and  C_11
REMARK    7  A    between atoms: N_19  and  O_20
REMARK                            x       y       z     vdW  Elec       q    Type
REMARK                         _______ _______ _______ _____ _____    ______ ____
ROOT
ATOM      1  C   UNL     1       6.156   4.717  14.955  0.00  0.00    +0.000 A 
ATOM      2  C   UNL     1       5.771   4.768  16.269  0.00  0.00    +0.000 A 
ATOM      3  N   UNL     1       6.697   5.588  16.850  0.00  0.00    +0.000 N 
ATOM      4  N   UNL     1       7.602   6.010  15.945  0.00  0.00    +0.000 NA
ATOM      5  N   UNL     1       7.275   5.476  14.771  0.00  0.00    +0.000 NA
ENDROOT
BRANCH   1   7
ATOM      6  C   UNL     1       6.142   3.479  12.854  0.00  0.00    +0.000 C 
ATOM      7  C   UNL     1       5.509   4.012  13.911  0.00  0.00    +0.000 C 
BRANCH   6   9
ATOM      8  O   UNL     1       5.706   1.715  11.304  0.00  0.00    +0.000 OA
ATOM      9  C   UNL     1       5.381   2.796  11.785  0.00  0.00    +0.000 C 
ATOM     10  N   UNL     1       4.254   3.477  11.409  0.00  0.00    +0.000 N 
ATOM     11  H   UNL     1       3.903   4.314  11.861  0.00  0.00    +0.000 HD
BRANCH  10  12
ATOM     12  O   UNL     1       3.389   2.836  10.497  0.00  0.00    +0.000 OA
ATOM     13  H   UNL     1       3.575   3.309   9.658  0.00  0.00    +0.000 HD
ENDBRANCH  10  12
ENDBRANCH   6   9
ENDBRANCH   1   7
BRANCH   3  14
ATOM     14  C   UNL     1       6.791   6.033  18.229  0.00  0.00    +0.000 C 
BRANCH  14  15
ATOM     15  C   UNL     1       6.084   5.087  19.191  0.00  0.00    +0.000 C 
BRANCH  15  16
ATOM     16  O   UNL     1       4.762   5.526  19.503  0.00  0.00    +0.000 OA
BRANCH  16  17
ATOM     17  C   UNL     1       3.785   4.654  19.078  0.00  0.00    +0.000 A 
ATOM     18  C   UNL     1       2.735   5.220  18.355  0.00  0.00    +0.000 A 
ATOM     19  C   UNL     1       1.684   4.420  17.896  0.00  0.00    +0.000 A 
ATOM     20  C   UNL     1       1.686   3.048  18.147  0.00  0.00    +0.000 A 
ATOM     21  C   UNL     1       2.742   2.474  18.847  0.00  0.00    +0.000 A 
ATOM     22  C   UNL     1       3.791   3.274  19.307  0.00  0.00    +0.000 A 
ENDBRANCH  16  17
ENDBRANCH  15  16
ENDBRANCH  14  15
ENDBRANCH   3  14
TORSDOF 7
ENDMDL
MODEL 4
REMARK VINA RESULT:      -7.3      1.553      1.777
REMARK  Name = 
REMARK  7 active torsions:
REMARK  status: ('A' for Active; 'I' for Inactive)
REMARK    1  A    between atoms: C_2  and  C_3
REMARK    2  A    between atoms: C_4  and  C_5
REMARK    3  A    between atoms: N_7  and  C_8
REMARK    4  A    between atoms: C_8  and  C_9
REMARK    5  A    between atoms: C_9  and  O_10
REMARK    6  A    between atoms: O_10  and  C_11
REMARK    7  A    between atoms: N_19  and  O_20
REMARK                            x       y       z     vdW  Elec       q    Type
REMARK                         _______ _______ _______ _____ _____    ______ ____
ROOT
ATOM      1  C   UNL     1       6.532   4.239  14.354  0.00  0.00    +0.000 A 
ATOM      2  C   UNL     1       6.140   3.795  15.589  0.00  0.00    +0.000 A 
ATOM      3  N   UNL     1       6.805   4.614  16.458  0.00  0.00    +0.000 N 
ATOM      4  N   UNL     1       7.567   5.505  15.793  0.00  0.00    +0.000 NA
ATOM      5  N   UNL     1       7.403   5.280  14.492  0.00  0.00    +0.000 NA
ENDROOT
BRANCH   1   7
ATOM      6  C   UNL     1       4.828   3.703  12.694  0.00  0.00    +0.000 C 
ATOM      7  C   UNL     1       6.106   3.737  13.100  0.00  0.00    +0.000 C 
BRANCH   6   9
ATOM      8  O   UNL     1       4.868   2.026  10.992  0.00  0.00    +0.000 OA
ATOM      9  C   UNL     1       4.468   3.118  11.383  0.00  0.00    +0.000 C 
ATOM     10  N   UNL     1       3.612   3.908  10.661  0.00  0.00    +0.000 N 
ATOM     11  H   UNL     1       3.181   4.760  11.001  0.00  0.00    +0.000 HD
BRANCH  10  12
ATOM     12  O   UNL     1       3.101   3.370   9.461  0.00  0.00    +0.000 OA
ATOM     13  H   UNL     1       3.627   3.838   8.777  0.00  0.00    +0.000 HD
ENDBRANCH  10  12
ENDBRANCH   6   9
ENDBRANCH   1   7
BRANCH   3  14
ATOM     14  C   UNL     1       6.768   4.634  17.909  0.00  0.00    +0.000 C 
BRANCH  14  15
ATOM     15  C   UNL     1       5.345   4.700  18.450  0.00  0.00    +0.000 C 
BRANCH  15  16
ATOM     16  O   UNL     1       5.054   3.614  19.330  0.00  0.00    +0.000 OA
BRANCH  16  17
ATOM     17  C   UNL     1       3.705   3.394  19.494  0.00  0.00    +0.000 A 
ATOM     18  C   UNL     1       2.886   3.814  18.445  0.00  0.00    +0.000 A 
ATOM     19  C   UNL     1       1.499   3.653  18.525  0.00  0.00    +0.000 A 
ATOM     20  C   UNL     1       0.926   3.057  19.648  0.00  0.00    +0.000 A 
ATOM     21  C   UNL     1       1.739   2.614  20.687  0.00  0.00    +0.000 A 
ATOM     22  C   UNL     1       3.124   2.778  20.608  0.00  0.00    +0.000 A 
ENDBRANCH  16  17
ENDBRANCH  15  16
ENDBRANCH  14  15
ENDBRANCH   3  14
TORSDOF 7
ENDMDL
MODEL 5
REMARK VINA RESULT:      -7.3      1.217      1.794
REMARK  Name = 
REMARK  7 active torsions:
REMARK  status: ('A' for Active; 'I' for Inactive)
REMARK    1  A    between atoms: C_2  and  C_3
REMARK    2  A    between atoms: C_4  and  C_5
REMARK    3  A    between atoms: N_7  and  C_8
REMARK    4  A    between atoms: C_8  and  C_9
REMARK    5  A    between atoms: C_9  and  O_10
REMARK    6  A    between atoms: O_10  and  C_11
REMARK    7  A    between atoms: N_19  and  O_20
REMARK                            x       y       z     vdW  Elec       q    Type
REMARK                         _______ _______ _______ _____ _____    ______ ____
ROOT
ATOM      1  C   UNL     1       6.541   4.201  14.378  0.00  0.00    +0.000 A 
ATOM      2  C   UNL     1       6.279   3.800  15.662  0.00  0.00    +0.000 A 
ATOM      3  N   UNL     1       6.936   4.717  16.433  0.00  0.00    +0.000 N 
ATOM      4  N   UNL     1       7.571   5.624  15.665  0.00  0.00    +0.000 NA
ATOM      5  N   UNL     1       7.332   5.313  14.394  0.00  0.00    +0.000 NA
ENDROOT
BRANCH   1   7
ATOM      6  C   UNL     1       4.917   3.920  12.581  0.00  0.00    +0.000 C 
ATOM      7  C   UNL     1       6.068   3.595  13.189  0.00  0.00    +0.000 C 
BRANCH   6   9
ATOM      8  O   UNL     1       4.851   2.073  11.068  0.00  0.00    +0.000 OA
ATOM      9  C   UNL     1       4.477   3.203  11.364  0.00  0.00    +0.000 C 
ATOM     10  N   UNL     1       3.581   3.918  10.615  0.00  0.00    +0.000 N 
ATOM     11  H   UNL     1       3.173   4.805  10.888  0.00  0.00    +0.000 HD
BRANCH  10  12
ATOM     12  O   UNL     1       2.997   3.261   9.512  0.00  0.00    +0.000 OA
ATOM     13  H   UNL     1       3.252   2.325   9.662  0.00  0.00    +0.000 HD
ENDBRANCH  10  12
ENDBRANCH   6   9
ENDBRANCH   1   7
BRANCH   3  14
ATOM     14  C   UNL     1       7.003   4.819  17.879  0.00  0.00    +0.000 C 
BRANCH  14  15
ATOM     15  C   UNL     1       5.909   5.714  18.447  0.00  0.00    +0.000 C 
BRANCH  15  16
ATOM     16  O   UNL     1       5.101   5.032  19.407  0.00  0.00    +0.000 OA
BRANCH  16  17
ATOM     17  C   UNL     1       4.208   4.152  18.838  0.00  0.00    +0.000 A 
ATOM     18  C   UNL     1       4.237   2.847  19.333  0.00  0.00    +0.000 A 
ATOM     19  C   UNL     1       3.381   1.875  18.807  0.00  0.00    +0.000 A 
ATOM     20  C   UNL     1       2.482   2.205  17.794  0.00  0.00    +0.000 A 
ATOM     21  C   UNL     1       2.432   3.510  17.312  0.00  0.00    +0.000 A 
ATOM     22  C   UNL     1       3.288   4.481  17.836  0.00  0.00    +0.000 A 
ENDBRANCH  16  17
ENDBRANCH  15  16
ENDBRANCH  14  15
ENDBRANCH   3  14
TORSDOF 7
ENDMDL
MODEL 6
REMARK VINA RESULT:      -7.2      0.978      1.083
REMARK  Name = 
REMARK  7 active torsions:
REMARK  status: ('A' for Active; 'I' for Inactive)
REMARK    1  A    between atoms: C_2  and  C_3
REMARK    2  A    between atoms: C_4  and  C_5
REMARK    3  A    between atoms: N_7  and  C_8
REMARK    4  A    between atoms: C_8  and  C_9
REMARK    5  A    between atoms: C_9  and  O_10
REMARK    6  A    between atoms: O_10  and  C_11
REMARK    7  A    between atoms: N_19  and  O_20
REMARK                            x       y       z     vdW  Elec       q    Type
REMARK                         _______ _______ _______ _____ _____    ______ ____
ROOT
ATOM      1  C   UNL     1       5.943   4.921  15.092  0.00  0.00    +0.000 A 
ATOM      2  C   UNL     1       6.722   4.684  16.194  0.00  0.00    +0.000 A 
ATOM      3  N   UNL     1       6.731   5.882  16.852  0.00  0.00    +0.000 N 
ATOM      4  N   UNL     1       6.004   6.802  16.188  0.00  0.00    +0.000 NA
ATOM      5  N   UNL     1       5.514   6.216  15.099  0.00  0.00    +0.000 NA
ENDROOT
BRANCH   1   7
ATOM      6  C   UNL     1       6.316   3.770  12.975  0.00  0.00    +0.000 C 
ATOM      7  C   UNL     1       5.595   3.987  14.086  0.00  0.00    +0.000 C 
BRANCH   6   9
ATOM      8  O   UNL     1       4.739   2.836  11.442  0.00  0.00    +0.000 OA
ATOM      9  C   UNL     1       5.855   2.805  11.952  0.00  0.00    +0.000 C 
ATOM     10  N   UNL     1       6.814   1.890  11.607  0.00  0.00    +0.000 N 
ATOM     11  H   UNL     1       7.774   1.905  11.930  0.00  0.00    +0.000 HD
BRANCH  10  12
ATOM     12  O   UNL     1       6.515   1.018  10.539  0.00  0.00    +0.000 OA
ATOM     13  H   UNL     1       7.308   0.441  10.505  0.00  0.00    +0.000 HD
ENDBRANCH  10  12
ENDBRANCH   6   9
ENDBRANCH   1   7
BRANCH   3  14
ATOM     14  C   UNL     1       7.376   6.235  18.103  0.00  0.00    +0.000 C 
BRANCH  14  15
ATOM     15  C   UNL     1       6.884   5.385  19.268  0.00  0.00    +0.000 C 
BRANCH  15  16
ATOM     16  O   UNL     1       5.550   5.719  19.651  0.00  0.00    +0.000 OA
BRANCH  16  17
ATOM     17  C   UNL     1       4.598   4.920  19.058  0.00  0.00    +0.000 A 
ATOM     18  C   UNL     1       3.521   5.586  18.473  0.00  0.00    +0.000 A 
ATOM     19  C   UNL     1       2.492   4.862  17.862  0.00  0.00    +0.000 A 
ATOM     20  C   UNL     1       2.544   3.469  17.820  0.00  0.00    +0.000 A 
ATOM     21  C   UNL     1       3.627   2.800  18.382  0.00  0.00    +0.000 A 
ATOM     22  C   UNL     1       4.654   3.523  18.994  0.00  0.00    +0.000 A 
ENDBRANCH  16  17
ENDBRANCH  15  16
ENDBRANCH  14  15
ENDBRANCH   3  14
TORSDOF 7
ENDMDL
MODEL 7
REMARK VINA RESULT:      -7.1      3.549      6.315
REMARK  Name = 
REMARK  7 active torsions:
REMARK  status: ('A' for Active; 'I' for Inactive)
REMARK    1  A    between atoms: C_2  and  C_3
REMARK    2  A    between atoms: C_4  and  C_5
REMARK    3  A    between atoms: N_7  and  C_8
REMARK    4  A    between atoms: C_8  and  C_9
REMARK    5  A    between atoms: C_9  and  O_10
REMARK    6  A    between atoms: O_10  and  C_11
REMARK    7  A    between atoms: N_19  and  O_20
REMARK                            x       y       z     vdW  Elec       q    Type
REMARK                         _______ _______ _______ _____ _____    ______ ____
ROOT
ATOM      1  C   UNL     1       7.473   6.900  17.720  0.00  0.00    +0.000 A 
ATOM      2  C   UNL     1       6.677   6.011  18.393  0.00  0.00    +0.000 A 
ATOM      3  N   UNL     1       6.250   5.151  17.420  0.00  0.00    +0.000 N 
ATOM      4  N   UNL     1       6.750   5.499  16.218  0.00  0.00    +0.000 NA
ATOM      5  N   UNL     1       7.507   6.578  16.394  0.00  0.00    +0.000 NA
ENDROOT
BRANCH   1   7
ATOM      6  C   UNL     1       8.132   9.246  17.811  0.00  0.00    +0.000 C 
ATOM      7  C   UNL     1       8.185   7.989  18.279  0.00  0.00    +0.000 C 
BRANCH   6   9
ATOM      8  O   UNL     1       9.212  11.376  17.872  0.00  0.00    +0.000 OA
ATOM      9  C   UNL     1       8.945  10.316  18.430  0.00  0.00    +0.000 C 
ATOM     10  N   UNL     1       9.343  10.017  19.706  0.00  0.00    +0.000 N 
ATOM     11  H   UNL     1       9.048   9.201  20.231  0.00  0.00    +0.000 HD
BRANCH  10  12
ATOM     12  O   UNL     1      10.001  11.035  20.429  0.00  0.00    +0.000 OA
ATOM     13  H   UNL     1       9.353  11.249  21.135  0.00  0.00    +0.000 HD
ENDBRANCH  10  12
ENDBRANCH   6   9
ENDBRANCH   1   7
BRANCH   3  14
ATOM     14  C   UNL     1       5.395   3.984  17.539  0.00  0.00    +0.000 C 
BRANCH  14  15
ATOM     15  C   UNL     1       4.050   4.180  16.851  0.00  0.00    +0.000 C 
BRANCH  15  16
ATOM     16  O   UNL     1       3.214   5.098  17.556  0.00  0.00    +0.000 OA
BRANCH  16  17
ATOM     17  C   UNL     1       2.478   4.505  18.556  0.00  0.00    +0.000 A 
ATOM     18  C   UNL     1       2.659   5.025  19.838  0.00  0.00    +0.000 A 
ATOM     19  C   UNL     1       1.970   4.477  20.925  0.00  0.00    +0.000 A 
ATOM     20  C   UNL     1       1.085   3.417  20.732  0.00  0.00    +0.000 A 
ATOM     21  C   UNL     1       0.882   2.909  19.452  0.00  0.00    +0.000 A 
ATOM     22  C   UNL     1       1.572   3.455  18.367  0.00  0.00    +0.000 A 
ENDBRANCH  16  17
ENDBRANCH  15  16
ENDBRANCH  14  15
ENDBRANCH   3  14
TORSDOF 7
ENDMDL
MODEL 8
REMARK VINA RESULT:      -7.0      1.252      1.612
REMARK  Name = 
REMARK  7 active torsions:
REMARK  status: ('A' for Active; 'I' for Inactive)
REMARK    1  A    between atoms: C_2  and  C_3
REMARK    2  A    between atoms: C_4  and  C_5
REMARK    3  A    between atoms: N_7  and  C_8
REMARK    4  A    between atoms: C_8  and  C_9
REMARK    5  A    between atoms: C_9  and  O_10
REMARK    6  A    between atoms: O_10  and  C_11
REMARK    7  A    between atoms: N_19  and  O_20
REMARK                            x       y       z     vdW  Elec       q    Type
REMARK                         _______ _______ _______ _____ _____    ______ ____
ROOT
ATOM      1  C   UNL     1       6.563   4.778  14.675  0.00  0.00    +0.000 A 
ATOM      2  C   UNL     1       5.585   4.936  15.622  0.00  0.00    +0.000 A 
ATOM      3  N   UNL     1       6.144   5.789  16.532  0.00  0.00    +0.000 N 
ATOM      4  N   UNL     1       7.396   6.129  16.167  0.00  0.00    +0.000 NA
ATOM      5  N   UNL     1       7.663   5.509  15.021  0.00  0.00    +0.000 NA
ENDROOT
BRANCH   1   7
ATOM      6  C   UNL     1       5.341   3.487  13.007  0.00  0.00    +0.000 C 
ATOM      7  C   UNL     1       6.480   4.001  13.494  0.00  0.00    +0.000 C 
BRANCH   6   9
ATOM      8  O   UNL     1       4.461   2.661  10.945  0.00  0.00    +0.000 OA
ATOM      9  C   UNL     1       5.353   2.648  11.788  0.00  0.00    +0.000 C 
ATOM     10  N   UNL     1       6.479   1.877  11.678  0.00  0.00    +0.000 N 
ATOM     11  H   UNL     1       7.278   1.924  12.300  0.00  0.00    +0.000 HD
BRANCH  10  12
ATOM     12  O   UNL     1       6.646   1.150  10.480  0.00  0.00    +0.000 OA
ATOM     13  H   UNL     1       6.886   0.256  10.805  0.00  0.00    +0.000 HD
ENDBRANCH  10  12
ENDBRANCH   6   9
ENDBRANCH   1   7
BRANCH   3  14
ATOM     14  C   UNL     1       5.569   6.337  17.746  0.00  0.00    +0.000 C 
BRANCH  14  15
ATOM     15  C   UNL     1       4.048   6.405  17.688  0.00  0.00    +0.000 C 
BRANCH  15  16
ATOM     16  O   UNL     1       3.463   5.131  17.418  0.00  0.00    +0.000 OA
BRANCH  16  17
ATOM     17  C   UNL     1       2.656   4.677  18.437  0.00  0.00    +0.000 A 
ATOM     18  C   UNL     1       2.562   5.505  19.556  0.00  0.00    +0.000 A 
ATOM     19  C   UNL     1       1.782   5.123  20.652  0.00  0.00    +0.000 A 
ATOM     20  C   UNL     1       1.081   3.918  20.628  0.00  0.00    +0.000 A 
ATOM     21  C   UNL     1       1.152   3.099  19.505  0.00  0.00    +0.000 A 
ATOM     22  C   UNL     1       1.933   3.479  18.411  0.00  0.00    +0.000 A 
ENDBRANCH  16  17
ENDBRANCH  15  16
ENDBRANCH  14  15
ENDBRANCH   3  14
TORSDOF 7
ENDMDL
MODEL 9
REMARK VINA RESULT:      -6.9      1.352      1.530
REMARK  Name = 
REMARK  7 active torsions:
REMARK  status: ('A' for Active; 'I' for Inactive)
REMARK    1  A    between atoms: C_2  and  C_3
REMARK    2  A    between atoms: C_4  and  C_5
REMARK    3  A    between atoms: N_7  and  C_8
REMARK    4  A    between atoms: C_8  and  C_9
REMARK    5  A    between atoms: C_9  and  O_10
REMARK    6  A    between atoms: O_10  and  C_11
REMARK    7  A    between atoms: N_19  and  O_20
REMARK                            x       y       z     vdW  Elec       q    Type
REMARK                         _______ _______ _______ _____ _____    ______ ____
ROOT
ATOM      1  C   UNL     1       6.284   5.300  15.288  0.00  0.00    +0.000 A 
ATOM      2  C   UNL     1       6.614   4.920  16.562  0.00  0.00    +0.000 A 
ATOM      3  N   UNL     1       5.959   5.823  17.352  0.00  0.00    +0.000 N 
ATOM      4  N   UNL     1       5.273   6.709  16.604  0.00  0.00    +0.000 NA
ATOM      5  N   UNL     1       5.468   6.392  15.327  0.00  0.00    +0.000 NA
ENDROOT
BRANCH   1   7
ATOM      6  C   UNL     1       5.942   3.787  13.405  0.00  0.00    +0.000 C 
ATOM      7  C   UNL     1       6.690   4.670  14.086  0.00  0.00    +0.000 C 
BRANCH   6   9
ATOM      8  O   UNL     1       7.292   3.662  11.438  0.00  0.00    +0.000 OA
ATOM      9  C   UNL     1       6.464   3.143  12.180  0.00  0.00    +0.000 C 
ATOM     10  N   UNL     1       5.951   1.890  11.973  0.00  0.00    +0.000 N 
ATOM     11  H   UNL     1       5.350   1.394  12.621  0.00  0.00    +0.000 HD
BRANCH  10  12
ATOM     12  O   UNL     1       6.495   1.141  10.908  0.00  0.00    +0.000 OA
ATOM     13  H   UNL     1       7.096   0.519  11.370  0.00  0.00    +0.000 HD
ENDBRANCH  10  12
ENDBRANCH   6   9
ENDBRANCH   1   7
BRANCH   3  14
ATOM     14  C   UNL     1       5.915   5.910  18.800  0.00  0.00    +0.000 C 
BRANCH  14  15
ATOM     15  C   UNL     1       5.210   4.716  19.431  0.00  0.00    +0.000 C 
BRANCH  15  16
ATOM     16  O   UNL     1       3.891   5.042  19.870  0.00  0.00    +0.000 OA
BRANCH  16  17
ATOM     17  C   UNL     1       2.942   4.134  19.458  0.00  0.00    +0.000 A 
ATOM     18  C   UNL     1       1.761   4.105  20.201  0.00  0.00    +0.000 A 
ATOM     19  C   UNL     1       0.743   3.204  19.873  0.00  0.00    +0.000 A 
ATOM     20  C   UNL     1       0.896   2.337  18.791  0.00  0.00    +0.000 A 
ATOM     21  C   UNL     1       2.061   2.377  18.031  0.00  0.00    +0.000 A 
ATOM     22  C   UNL     1       3.078   3.276  18.361  0.00  0.00    +0.000 A 
ENDBRANCH  16  17
ENDBRANCH  15  16
ENDBRANCH  14  15
ENDBRANCH   3  14
TORSDOF 7
ENDMDL
