MODEL 1
REMARK VINA RESULT:      -9.0      0.000      0.000
REMARK  Name = 
REMARK  7 active torsions:
REMARK  status: ('A' for Active; 'I' for Inactive)
REMARK    1  A    between atoms: C_1  and  O_2
REMARK    2  A    between atoms: O_2  and  C_3
REMARK    3  A    between atoms: C_7  and  C_8
REMARK    4  A    between atoms: N_10  and  C_11
REMARK    5  A    between atoms: C_11  and  C_12
REMARK    6  A    between atoms: C_12  and  N_13
REMARK    7  A    between atoms: N_16  and  C_17
REMARK                            x       y       z     vdW  Elec       q    Type
REMARK                         _______ _______ _______ _____ _____    ______ ____
ROOT
ATOM      1  C   UNL     1       3.131   6.072  18.200  0.00  0.00    +0.000 C 
ATOM      2  C   UNL     1       2.838   6.009  19.789  0.00  0.00    +0.000 C 
ATOM      3  C   UNL     1       2.119   4.710  19.989  0.00  0.00    +0.000 A 
ATOM      4  C   UNL     1       1.558   4.141  21.113  0.00  0.00    +0.000 A 
ATOM      5  C   UNL     1       1.251   2.781  21.062  0.00  0.00    +0.000 A 
ATOM      6  C   UNL     1       1.581   2.029  19.925  0.00  0.00    +0.000 A 
ATOM      7  C   UNL     1       1.946   2.676  18.744  0.00  0.00    +0.000 A 
ATOM      8  C   UNL     1       2.045   4.049  18.777  0.00  0.00    +0.000 A 
ATOM      9  C   UNL     1       2.037   5.085  17.694  0.00  0.00    +0.000 C 
ENDROOT
BRANCH   1  10
ATOM     10  N   UNL     1       4.468   5.537  17.698  0.00  0.00    +0.000 NA
ATOM     11  C   UNL     1       5.526   5.391  18.709  0.00  0.00    +0.000 C 
ATOM     12  C   UNL     1       6.908   4.978  18.128  0.00  0.00    +0.000 C 
ATOM     13  N   UNL     1       7.411   5.819  17.024  0.00  0.00    +0.000 NA
ATOM     14  C   UNL     1       7.749   7.170  17.456  0.00  0.00    +0.000 C 
ATOM     15  C   UNL     1       6.384   5.826  15.978  0.00  0.00    +0.000 C 
ATOM     16  C   UNL     1       4.976   6.223  16.476  0.00  0.00    +0.000 C 
ENDBRANCH   1  10
BRANCH   1  17
ATOM     17  C   UNL     1       2.880   7.587  17.876  0.00  0.00    +0.000 C 
BRANCH  17  20
ATOM     18  C   UNL     1       1.597   9.602  18.434  0.00  0.00    +0.000 C 
ATOM     19  O   UNL     1       1.966  10.160  17.414  0.00  0.00    +0.000 OA
ATOM     20  N   UNL     1       1.995   8.318  18.761  0.00  0.00    +0.000 N 
ATOM     21  H   UNL     1       1.633   7.821  19.543  0.00  0.00    +0.000 HD
BRANCH  18  26
ATOM     22  C   UNL     1      -0.172  10.852  21.572  0.00  0.00    +0.000 A 
ATOM     23  C   UNL     1      -1.111  11.706  20.980  0.00  0.00    +0.000 A 
ATOM     24  C   UNL     1      -1.163  11.861  19.596  0.00  0.00    +0.000 A 
ATOM     25  C   UNL     1      -0.277  11.155  18.799  0.00  0.00    +0.000 A 
ATOM     26  C   UNL     1       0.674  10.294  19.364  0.00  0.00    +0.000 A 
ATOM     27  C   UNL     1       0.723  10.154  20.768  0.00  0.00    +0.000 A 
BRANCH  22  29
ATOM     28  C   UNL     1      -0.021   9.532  23.548  0.00  0.00    +0.000 C 
ATOM     29  O   UNL     1      -0.242  10.796  22.936  0.00  0.00    +0.000 OA
ENDBRANCH  22  29
ENDBRANCH  18  26
ENDBRANCH  17  20
ENDBRANCH   1  17
TORSDOF 5
ENDMDL
MODEL 2
REMARK VINA RESULT:      -8.8      1.537      2.371
REMARK  Name = 
REMARK  7 active torsions:
REMARK  status: ('A' for Active; 'I' for Inactive)
REMARK    1  A    between atoms: C_1  and  O_2
REMARK    2  A    between atoms: O_2  and  C_3
REMARK    3  A    between atoms: C_7  and  C_8
REMARK    4  A    between atoms: N_10  and  C_11
REMARK    5  A    between atoms: C_11  and  C_12
REMARK    6  A    between atoms: C_12  and  N_13
REMARK    7  A    between atoms: N_16  and  C_17
REMARK                            x       y       z     vdW  Elec       q    Type
REMARK                         _______ _______ _______ _____ _____    ______ ____
ROOT
ATOM      1  C   UNL     1       3.119   6.243  18.154  0.00  0.00    +0.000 C 
ATOM      2  C   UNL     1       2.748   6.155  19.725  0.00  0.00    +0.000 C 
ATOM      3  C   UNL     1       1.987   4.871  19.863  0.00  0.00    +0.000 A 
ATOM      4  C   UNL     1       1.358   4.295  20.946  0.00  0.00    +0.000 A 
ATOM      5  C   UNL     1       1.020   2.944  20.852  0.00  0.00    +0.000 A 
ATOM      6  C   UNL     1       1.385   2.207  19.716  0.00  0.00    +0.000 A 
ATOM      7  C   UNL     1       1.823   2.868  18.567  0.00  0.00    +0.000 A 
ATOM      8  C   UNL     1       1.956   4.237  18.635  0.00  0.00    +0.000 A 
ATOM      9  C   UNL     1       2.026   5.295  17.575  0.00  0.00    +0.000 C 
ENDROOT
BRANCH   1  10
ATOM     10  N   UNL     1       4.464   5.683  17.705  0.00  0.00    +0.000 NA
ATOM     11  C   UNL     1       5.481   5.524  18.756  0.00  0.00    +0.000 C 
ATOM     12  C   UNL     1       6.877   5.085  18.229  0.00  0.00    +0.000 C 
ATOM     13  N   UNL     1       7.435   5.913  17.142  0.00  0.00    +0.000 NA
ATOM     14  C   UNL     1       7.780   7.260  17.582  0.00  0.00    +0.000 C 
ATOM     15  C   UNL     1       6.448   5.932  16.058  0.00  0.00    +0.000 C 
ATOM     16  C   UNL     1       5.030   6.354  16.501  0.00  0.00    +0.000 C 
ENDBRANCH   1  10
BRANCH   1  17
ATOM     17  C   UNL     1       2.921   7.770  17.851  0.00  0.00    +0.000 C 
BRANCH  17  20
ATOM     18  C   UNL     1       1.419   9.693  18.096  0.00  0.00    +0.000 C 
ATOM     19  O   UNL     1       2.346  10.475  17.974  0.00  0.00    +0.000 OA
ATOM     20  N   UNL     1       1.597   8.322  18.052  0.00  0.00    +0.000 N 
ATOM     21  H   UNL     1       0.840   7.676  18.063  0.00  0.00    +0.000 HD
BRANCH  18  26
ATOM     22  C   UNL     1      -2.320  10.342  17.719  0.00  0.00    +0.000 A 
ATOM     23  C   UNL     1      -2.509  11.218  18.795  0.00  0.00    +0.000 A 
ATOM     24  C   UNL     1      -1.442  11.586  19.613  0.00  0.00    +0.000 A 
ATOM     25  C   UNL     1      -0.179  11.081  19.351  0.00  0.00    +0.000 A 
ATOM     26  C   UNL     1       0.039  10.202  18.282  0.00  0.00    +0.000 A 
ATOM     27  C   UNL     1      -1.052   9.828  17.468  0.00  0.00    +0.000 A 
BRANCH  22  29
ATOM     28  C   UNL     1      -4.407  11.123  16.880  0.00  0.00    +0.000 C 
ATOM     29  O   UNL     1      -3.453  10.076  17.003  0.00  0.00    +0.000 OA
ENDBRANCH  22  29
ENDBRANCH  18  26
ENDBRANCH  17  20
ENDBRANCH   1  17
TORSDOF 5
ENDMDL
MODEL 3
REMARK VINA RESULT:      -8.7      0.909      1.666
REMARK  Name = 
REMARK  7 active torsions:
REMARK  status: ('A' for Active; 'I' for Inactive)
REMARK    1  A    between atoms: C_1  and  O_2
REMARK    2  A    between atoms: O_2  and  C_3
REMARK    3  A    between atoms: C_7  and  C_8
REMARK    4  A    between atoms: N_10  and  C_11
REMARK    5  A    between atoms: C_11  and  C_12
REMARK    6  A    between atoms: C_12  and  N_13
REMARK    7  A    between atoms: N_16  and  C_17
REMARK                            x       y       z     vdW  Elec       q    Type
REMARK                         _______ _______ _______ _____ _____    ______ ____
ROOT
ATOM      1  C   UNL     1       3.024   6.176  18.358  0.00  0.00    +0.000 C 
ATOM      2  C   UNL     1       2.838   5.869  19.934  0.00  0.00    +0.000 C 
ATOM      3  C   UNL     1       2.151   4.537  19.980  0.00  0.00    +0.000 A 
ATOM      4  C   UNL     1       1.673   3.794  21.039  0.00  0.00    +0.000 A 
ATOM      5  C   UNL     1       1.383   2.449  20.802  0.00  0.00    +0.000 A 
ATOM      6  C   UNL     1       1.648   1.884  19.546  0.00  0.00    +0.000 A 
ATOM      7  C   UNL     1       1.925   2.709  18.456  0.00  0.00    +0.000 A 
ATOM      8  C   UNL     1       2.008   4.064  18.690  0.00  0.00    +0.000 A 
ATOM      9  C   UNL     1       1.913   5.251  17.778  0.00  0.00    +0.000 C 
ENDROOT
BRANCH   1  10
ATOM     10  N   UNL     1       4.333   5.754  17.698  0.00  0.00    +0.000 NA
ATOM     11  C   UNL     1       5.463   5.506  18.604  0.00  0.00    +0.000 C 
ATOM     12  C   UNL     1       6.809   5.217  17.880  0.00  0.00    +0.000 C 
ATOM     13  N   UNL     1       7.213   6.214  16.869  0.00  0.00    +0.000 NA
ATOM     14  C   UNL     1       7.553   7.504  17.457  0.00  0.00    +0.000 C 
ATOM     15  C   UNL     1       6.114   6.330  15.906  0.00  0.00    +0.000 C 
ATOM     16  C   UNL     1       4.738   6.613  16.549  0.00  0.00    +0.000 C 
ENDBRANCH   1  10
BRANCH   1  17
ATOM     17  C   UNL     1       2.731   7.716  18.283  0.00  0.00    +0.000 C 
BRANCH  17  20
ATOM     18  C   UNL     1       1.080   9.279  19.202  0.00  0.00    +0.000 C 
ATOM     19  O   UNL     1       0.760   9.651  18.086  0.00  0.00    +0.000 OA
ATOM     20  N   UNL     1       2.053   8.320  19.413  0.00  0.00    +0.000 N 
ATOM     21  H   UNL     1       2.262   7.946  20.311  0.00  0.00    +0.000 HD
BRANCH  18  26
ATOM     22  C   UNL     1      -0.981  11.486  21.531  0.00  0.00    +0.000 A 
ATOM     23  C   UNL     1      -0.842  10.757  22.719  0.00  0.00    +0.000 A 
ATOM     24  C   UNL     1      -0.092   9.583  22.753  0.00  0.00    +0.000 A 
ATOM     25  C   UNL     1       0.528   9.138  21.596  0.00  0.00    +0.000 A 
ATOM     26  C   UNL     1       0.404   9.847  20.394  0.00  0.00    +0.000 A 
ATOM     27  C   UNL     1      -0.367  11.028  20.370  0.00  0.00    +0.000 A 
BRANCH  22  29
ATOM     28  C   UNL     1      -1.577  13.617  20.652  0.00  0.00    +0.000 C 
ATOM     29  O   UNL     1      -1.740  12.617  21.649  0.00  0.00    +0.000 OA
ENDBRANCH  22  29
ENDBRANCH  18  26
ENDBRANCH  17  20
ENDBRANCH   1  17
TORSDOF 5
ENDMDL
MODEL 4
REMARK VINA RESULT:      -8.6      1.404      1.810
REMARK  Name = 
REMARK  7 active torsions:
REMARK  status: ('A' for Active; 'I' for Inactive)
REMARK    1  A    between atoms: C_1  and  O_2
REMARK    2  A    between atoms: O_2  and  C_3
REMARK    3  A    between atoms: C_7  and  C_8
REMARK    4  A    between atoms: N_10  and  C_11
REMARK    5  A    between atoms: C_11  and  C_12
REMARK    6  A    between atoms: C_12  and  N_13
REMARK    7  A    between atoms: N_16  and  C_17
REMARK                            x       y       z     vdW  Elec       q    Type
REMARK                         _______ _______ _______ _____ _____    ______ ____
ROOT
ATOM      1  C   UNL     1       3.108   6.282  18.224  0.00  0.00    +0.000 C 
ATOM      2  C   UNL     1       2.761   6.177  19.799  0.00  0.00    +0.000 C 
ATOM      3  C   UNL     1       2.019   4.883  19.937  0.00  0.00    +0.000 A 
ATOM      4  C   UNL     1       1.413   4.290  21.025  0.00  0.00    +0.000 A 
ATOM      5  C   UNL     1       1.091   2.935  20.924  0.00  0.00    +0.000 A 
ATOM      6  C   UNL     1       1.449   2.212  19.777  0.00  0.00    +0.000 A 
ATOM      7  C   UNL     1       1.862   2.888  18.628  0.00  0.00    +0.000 A 
ATOM      8  C   UNL     1       1.978   4.258  18.705  0.00  0.00    +0.000 A 
ATOM      9  C   UNL     1       2.019   5.326  17.652  0.00  0.00    +0.000 C 
ENDROOT
BRANCH   1  10
ATOM     10  N   UNL     1       4.454   5.743  17.751  0.00  0.00    +0.000 NA
ATOM     11  C   UNL     1       5.434   5.441  18.804  0.00  0.00    +0.000 C 
ATOM     12  C   UNL     1       6.836   5.030  18.269  0.00  0.00    +0.000 C 
ATOM     13  N   UNL     1       7.444   5.962  17.300  0.00  0.00    +0.000 NA
ATOM     14  C   UNL     1       7.805   7.241  17.900  0.00  0.00    +0.000 C 
ATOM     15  C   UNL     1       6.492   6.128  16.198  0.00  0.00    +0.000 C 
ATOM     16  C   UNL     1       5.070   6.533  16.647  0.00  0.00    +0.000 C 
ENDBRANCH   1  10
BRANCH   1  17
ATOM     17  C   UNL     1       2.887   7.809  17.936  0.00  0.00    +0.000 C 
BRANCH  17  20
ATOM     18  C   UNL     1       1.327   9.694  18.115  0.00  0.00    +0.000 C 
ATOM     19  O   UNL     1       2.236  10.500  18.004  0.00  0.00    +0.000 OA
ATOM     20  N   UNL     1       1.543   8.328  18.096  0.00  0.00    +0.000 N 
ATOM     21  H   UNL     1       0.804   7.662  18.099  0.00  0.00    +0.000 HD
BRANCH  18  26
ATOM     22  C   UNL     1      -1.812  11.517  19.283  0.00  0.00    +0.000 A 
ATOM     23  C   UNL     1      -2.734  10.991  18.370  0.00  0.00    +0.000 A 
ATOM     24  C   UNL     1      -2.337  10.065  17.407  0.00  0.00    +0.000 A 
ATOM     25  C   UNL     1      -1.014   9.658  17.359  0.00  0.00    +0.000 A 
ATOM     26  C   UNL     1      -0.069  10.168  18.260  0.00  0.00    +0.000 A 
ATOM     27  C   UNL     1      -0.482  11.114  19.223  0.00  0.00    +0.000 A 
BRANCH  22  29
ATOM     28  C   UNL     1      -3.747  12.630  20.110  0.00  0.00    +0.000 C 
ATOM     29  O   UNL     1      -2.344  12.409  20.172  0.00  0.00    +0.000 OA
ENDBRANCH  22  29
ENDBRANCH  18  26
ENDBRANCH  17  20
ENDBRANCH   1  17
TORSDOF 5
ENDMDL
MODEL 5
REMARK VINA RESULT:      -8.2      1.082      1.170
REMARK  Name = 
REMARK  7 active torsions:
REMARK  status: ('A' for Active; 'I' for Inactive)
REMARK    1  A    between atoms: C_1  and  O_2
REMARK    2  A    between atoms: O_2  and  C_3
REMARK    3  A    between atoms: C_7  and  C_8
REMARK    4  A    between atoms: N_10  and  C_11
REMARK    5  A    between atoms: C_11  and  C_12
REMARK    6  A    between atoms: C_12  and  N_13
REMARK    7  A    between atoms: N_16  and  C_17
REMARK                            x       y       z     vdW  Elec       q    Type
REMARK                         _______ _______ _______ _____ _____    ______ ____
ROOT
ATOM      1  C   UNL     1       3.000   6.009  18.060  0.00  0.00    +0.000 C 
ATOM      2  C   UNL     1       3.222   5.763  19.642  0.00  0.00    +0.000 C 
ATOM      3  C   UNL     1       2.310   4.623  19.978  0.00  0.00    +0.000 A 
ATOM      4  C   UNL     1       2.015   4.014  21.180  0.00  0.00    +0.000 A 
ATOM      5  C   UNL     1       1.385   2.770  21.135  0.00  0.00    +0.000 A 
ATOM      6  C   UNL     1       1.142   2.151  19.900  0.00  0.00    +0.000 A 
ATOM      7  C   UNL     1       1.258   2.884  18.718  0.00  0.00    +0.000 A 
ATOM      8  C   UNL     1       1.695   4.186  18.819  0.00  0.00    +0.000 A 
ATOM      9  C   UNL     1       1.595   5.357  17.888  0.00  0.00    +0.000 C 
ENDROOT
BRANCH   1  10
ATOM     10  N   UNL     1       3.934   5.297  17.087  0.00  0.00    +0.000 NA
ATOM     11  C   UNL     1       4.517   4.033  17.561  0.00  0.00    +0.000 C 
ATOM     12  C   UNL     1       5.569   3.416  16.595  0.00  0.00    +0.000 C 
ATOM     13  N   UNL     1       6.658   4.322  16.179  0.00  0.00    +0.000 NA
ATOM     14  C   UNL     1       7.549   4.672  17.279  0.00  0.00    +0.000 C 
ATOM     15  C   UNL     1       6.035   5.509  15.586  0.00  0.00    +0.000 C 
ATOM     16  C   UNL     1       4.972   6.180  16.484  0.00  0.00    +0.000 C 
ENDBRANCH   1  10
BRANCH   1  17
ATOM     17  C   UNL     1       3.036   7.575  17.959  0.00  0.00    +0.000 C 
BRANCH  17  20
ATOM     18  C   UNL     1       1.710   9.606  18.321  0.00  0.00    +0.000 C 
ATOM     19  O   UNL     1       2.254  10.169  17.386  0.00  0.00    +0.000 OA
ATOM     20  N   UNL     1       2.027   8.313  18.693  0.00  0.00    +0.000 N 
ATOM     21  H   UNL     1       1.532   7.813  19.396  0.00  0.00    +0.000 HD
BRANCH  18  26
ATOM     22  C   UNL     1      -0.195  11.473  21.046  0.00  0.00    +0.000 A 
ATOM     23  C   UNL     1      -1.424  11.637  20.394  0.00  0.00    +0.000 A 
ATOM     24  C   UNL     1      -1.620  11.145  19.105  0.00  0.00    +0.000 A 
ATOM     25  C   UNL     1      -0.585  10.481  18.466  0.00  0.00    +0.000 A 
ATOM     26  C   UNL     1       0.655  10.305  19.094  0.00  0.00    +0.000 A 
ATOM     27  C   UNL     1       0.844  10.817  20.395  0.00  0.00    +0.000 A 
BRANCH  22  29
ATOM     28  C   UNL     1      -1.392  12.230  22.960  0.00  0.00    +0.000 C 
ATOM     29  O   UNL     1      -0.150  12.002  22.306  0.00  0.00    +0.000 OA
ENDBRANCH  22  29
ENDBRANCH  18  26
ENDBRANCH  17  20
ENDBRANCH   1  17
TORSDOF 5
ENDMDL
MODEL 6
REMARK VINA RESULT:      -8.2      1.255      2.121
REMARK  Name = 
REMARK  7 active torsions:
REMARK  status: ('A' for Active; 'I' for Inactive)
REMARK    1  A    between atoms: C_1  and  O_2
REMARK    2  A    between atoms: O_2  and  C_3
REMARK    3  A    between atoms: C_7  and  C_8
REMARK    4  A    between atoms: N_10  and  C_11
REMARK    5  A    between atoms: C_11  and  C_12
REMARK    6  A    between atoms: C_12  and  N_13
REMARK    7  A    between atoms: N_16  and  C_17
REMARK                            x       y       z     vdW  Elec       q    Type
REMARK                         _______ _______ _______ _____ _____    ______ ____
ROOT
ATOM      1  C   UNL     1       2.827   6.550  18.518  0.00  0.00    +0.000 C 
ATOM      2  C   UNL     1       2.378   6.109  20.006  0.00  0.00    +0.000 C 
ATOM      3  C   UNL     1       1.854   4.714  19.845  0.00  0.00    +0.000 A 
ATOM      4  C   UNL     1       1.271   3.849  20.747  0.00  0.00    +0.000 A 
ATOM      5  C   UNL     1       1.189   2.502  20.387  0.00  0.00    +0.000 A 
ATOM      6  C   UNL     1       1.754   2.062  19.181  0.00  0.00    +0.000 A 
ATOM      7  C   UNL     1       2.139   2.990  18.213  0.00  0.00    +0.000 A 
ATOM      8  C   UNL     1       2.017   4.326  18.529  0.00  0.00    +0.000 A 
ATOM      9  C   UNL     1       1.963   5.560  17.680  0.00  0.00    +0.000 C 
ENDROOT
BRANCH   1  10
ATOM     10  N   UNL     1       4.278   6.315  18.110  0.00  0.00    +0.000 NA
ATOM     11  C   UNL     1       4.574   6.438  16.675  0.00  0.00    +0.000 C 
ATOM     12  C   UNL     1       6.031   6.053  16.290  0.00  0.00    +0.000 C 
ATOM     13  N   UNL     1       6.484   4.730  16.763  0.00  0.00    +0.000 NA
ATOM     14  C   UNL     1       5.786   3.630  16.108  0.00  0.00    +0.000 C 
ATOM     15  C   UNL     1       6.302   4.700  18.217  0.00  0.00    +0.000 C 
ATOM     16  C   UNL     1       4.877   5.076  18.683  0.00  0.00    +0.000 C 
ENDBRANCH   1  10
BRANCH   1  17
ATOM     17  C   UNL     1       2.378   8.053  18.466  0.00  0.00    +0.000 C 
BRANCH  17  20
ATOM     18  C   UNL     1       0.692   9.502  19.502  0.00  0.00    +0.000 C 
ATOM     19  O   UNL     1       0.302   9.884  18.411  0.00  0.00    +0.000 OA
ATOM     20  N   UNL     1       1.723   8.591  19.641  0.00  0.00    +0.000 N 
ATOM     21  H   UNL     1       1.992   8.207  20.519  0.00  0.00    +0.000 HD
BRANCH  18  26
ATOM     22  C   UNL     1      -1.328  11.568  21.990  0.00  0.00    +0.000 A 
ATOM     23  C   UNL     1      -1.145  10.786  23.138  0.00  0.00    +0.000 A 
ATOM     24  C   UNL     1      -0.379   9.623  23.095  0.00  0.00    +0.000 A 
ATOM     25  C   UNL     1       0.212   9.241  21.901  0.00  0.00    +0.000 A 
ATOM     26  C   UNL     1       0.044  10.004  20.737  0.00  0.00    +0.000 A 
ATOM     27  C   UNL     1      -0.743  11.174  20.792  0.00  0.00    +0.000 A 
BRANCH  22  29
ATOM     28  C   UNL     1      -2.841  12.756  23.394  0.00  0.00    +0.000 C 
ATOM     29  O   UNL     1      -2.098  12.681  22.184  0.00  0.00    +0.000 OA
ENDBRANCH  22  29
ENDBRANCH  18  26
ENDBRANCH  17  20
ENDBRANCH   1  17
TORSDOF 5
ENDMDL
MODEL 7
REMARK VINA RESULT:      -8.1      1.063      1.368
REMARK  Name = 
REMARK  7 active torsions:
REMARK  status: ('A' for Active; 'I' for Inactive)
REMARK    1  A    between atoms: C_1  and  O_2
REMARK    2  A    between atoms: O_2  and  C_3
REMARK    3  A    between atoms: C_7  and  C_8
REMARK    4  A    between atoms: N_10  and  C_11
REMARK    5  A    between atoms: C_11  and  C_12
REMARK    6  A    between atoms: C_12  and  N_13
REMARK    7  A    between atoms: N_16  and  C_17
REMARK                            x       y       z     vdW  Elec       q    Type
REMARK                         _______ _______ _______ _____ _____    ______ ____
ROOT
ATOM      1  C   UNL     1       3.326   5.915  18.204  0.00  0.00    +0.000 C 
ATOM      2  C   UNL     1       3.002   5.932  19.788  0.00  0.00    +0.000 C 
ATOM      3  C   UNL     1       2.233   4.669  20.030  0.00  0.00    +0.000 A 
ATOM      4  C   UNL     1       1.631   4.170  21.167  0.00  0.00    +0.000 A 
ATOM      5  C   UNL     1       1.277   2.820  21.169  0.00  0.00    +0.000 A 
ATOM      6  C   UNL     1       1.601   2.008  20.072  0.00  0.00    +0.000 A 
ATOM      7  C   UNL     1       2.010   2.589  18.871  0.00  0.00    +0.000 A 
ATOM      8  C   UNL     1       2.158   3.958  18.846  0.00  0.00    +0.000 A 
ATOM      9  C   UNL     1       2.206   4.946  17.719  0.00  0.00    +0.000 C 
ENDROOT
BRANCH   1  10
ATOM     10  N   UNL     1       4.652   5.312  17.752  0.00  0.00    +0.000 NA
ATOM     11  C   UNL     1       5.699   6.270  17.369  0.00  0.00    +0.000 C 
ATOM     12  C   UNL     1       6.981   5.610  16.784  0.00  0.00    +0.000 C 
ATOM     13  N   UNL     1       6.757   4.670  15.667  0.00  0.00    +0.000 NA
ATOM     14  C   UNL     1       6.280   5.335  14.460  0.00  0.00    +0.000 C 
ATOM     15  C   UNL     1       5.812   3.652  16.136  0.00  0.00    +0.000 C 
ATOM     16  C   UNL     1       4.511   4.228  16.739  0.00  0.00    +0.000 C 
ENDBRANCH   1  10
BRANCH   1  17
ATOM     17  C   UNL     1       3.134   7.422  17.810  0.00  0.00    +0.000 C 
BRANCH  17  20
ATOM     18  C   UNL     1       1.798   9.458  18.100  0.00  0.00    +0.000 C 
ATOM     19  O   UNL     1       2.567  10.102  17.405  0.00  0.00    +0.000 OA
ATOM     20  N   UNL     1       1.990   8.115  18.366  0.00  0.00    +0.000 N 
ATOM     21  H   UNL     1       1.327   7.559  18.858  0.00  0.00    +0.000 HD
BRANCH  18  26
ATOM     22  C   UNL     1      -0.578  11.370  20.388  0.00  0.00    +0.000 A 
ATOM     23  C   UNL     1      -1.736  11.329  19.601  0.00  0.00    +0.000 A 
ATOM     24  C   UNL     1      -1.735  10.690  18.362  0.00  0.00    +0.000 A 
ATOM     25  C   UNL     1      -0.574  10.084  17.910  0.00  0.00    +0.000 A 
ATOM     26  C   UNL     1       0.599  10.111  18.677  0.00  0.00    +0.000 A 
ATOM     27  C   UNL     1       0.588  10.770  19.924  0.00  0.00    +0.000 A 
BRANCH  22  29
ATOM     28  C   UNL     1      -0.895  11.229  22.744  0.00  0.00    +0.000 C 
ATOM     29  O   UNL     1      -0.729  12.025  21.578  0.00  0.00    +0.000 OA
ENDBRANCH  22  29
ENDBRANCH  18  26
ENDBRANCH  17  20
ENDBRANCH   1  17
TORSDOF 5
ENDMDL
MODEL 8
REMARK VINA RESULT:      -8.1      1.828      2.697
REMARK  Name = 
REMARK  7 active torsions:
REMARK  status: ('A' for Active; 'I' for Inactive)
REMARK    1  A    between atoms: C_1  and  O_2
REMARK    2  A    between atoms: O_2  and  C_3
REMARK    3  A    between atoms: C_7  and  C_8
REMARK    4  A    between atoms: N_10  and  C_11
REMARK    5  A    between atoms: C_11  and  C_12
REMARK    6  A    between atoms: C_12  and  N_13
REMARK    7  A    between atoms: N_16  and  C_17
REMARK                            x       y       z     vdW  Elec       q    Type
REMARK                         _______ _______ _______ _____ _____    ______ ____
ROOT
ATOM      1  C   UNL     1       3.138   6.236  18.029  0.00  0.00    +0.000 C 
ATOM      2  C   UNL     1       3.314   5.887  19.598  0.00  0.00    +0.000 C 
ATOM      3  C   UNL     1       2.297   4.819  19.864  0.00  0.00    +0.000 A 
ATOM      4  C   UNL     1       1.931   4.177  21.028  0.00  0.00    +0.000 A 
ATOM      5  C   UNL     1       1.192   2.999  20.909  0.00  0.00    +0.000 A 
ATOM      6  C   UNL     1       0.912   2.471  19.641  0.00  0.00    +0.000 A 
ATOM      7  C   UNL     1       1.111   3.252  18.501  0.00  0.00    +0.000 A 
ATOM      8  C   UNL     1       1.663   4.502  18.677  0.00  0.00    +0.000 A 
ATOM      9  C   UNL     1       1.683   5.725  17.810  0.00  0.00    +0.000 C 
ENDROOT
BRANCH   1  10
ATOM     10  N   UNL     1       4.017   5.494  17.029  0.00  0.00    +0.000 NA
ATOM     11  C   UNL     1       4.521   4.182  17.461  0.00  0.00    +0.000 C 
ATOM     12  C   UNL     1       5.525   3.528  16.469  0.00  0.00    +0.000 C 
ATOM     13  N   UNL     1       6.667   4.374  16.070  0.00  0.00    +0.000 NA
ATOM     14  C   UNL     1       7.586   4.633  17.173  0.00  0.00    +0.000 C 
ATOM     15  C   UNL     1       6.118   5.615  15.517  0.00  0.00    +0.000 C 
ATOM     16  C   UNL     1       5.106   6.326  16.443  0.00  0.00    +0.000 C 
ENDBRANCH   1  10
BRANCH   1  17
ATOM     17  C   UNL     1       3.317   7.796  18.014  0.00  0.00    +0.000 C 
BRANCH  17  20
ATOM     18  C   UNL     1       1.391   9.146  18.709  0.00  0.00    +0.000 C 
ATOM     19  O   UNL     1       1.660   8.983  19.887  0.00  0.00    +0.000 OA
ATOM     20  N   UNL     1       2.152   8.596  17.694  0.00  0.00    +0.000 N 
ATOM     21  H   UNL     1       1.996   8.792  16.731  0.00  0.00    +0.000 HD
BRANCH  18  26
ATOM     22  C   UNL     1      -1.909  10.342  17.219  0.00  0.00    +0.000 A 
ATOM     23  C   UNL     1      -1.926  11.649  17.724  0.00  0.00    +0.000 A 
ATOM     24  C   UNL     1      -0.886  12.121  18.522  0.00  0.00    +0.000 A 
ATOM     25  C   UNL     1       0.180  11.285  18.813  0.00  0.00    +0.000 A 
ATOM     26  C   UNL     1       0.224   9.973  18.323  0.00  0.00    +0.000 A 
ATOM     27  C   UNL     1      -0.841   9.504  17.524  0.00  0.00    +0.000 A 
BRANCH  22  29
ATOM     28  C   UNL     1      -4.079  10.935  16.441  0.00  0.00    +0.000 C 
ATOM     29  O   UNL     1      -2.991  10.021  16.449  0.00  0.00    +0.000 OA
ENDBRANCH  22  29
ENDBRANCH  18  26
ENDBRANCH  17  20
ENDBRANCH   1  17
TORSDOF 5
ENDMDL
MODEL 9
REMARK VINA RESULT:      -8.1      1.650      2.456
REMARK  Name = 
REMARK  7 active torsions:
REMARK  status: ('A' for Active; 'I' for Inactive)
REMARK    1  A    between atoms: C_1  and  O_2
REMARK    2  A    between atoms: O_2  and  C_3
REMARK    3  A    between atoms: C_7  and  C_8
REMARK    4  A    between atoms: N_10  and  C_11
REMARK    5  A    between atoms: C_11  and  C_12
REMARK    6  A    between atoms: C_12  and  N_13
REMARK    7  A    between atoms: N_16  and  C_17
REMARK                            x       y       z     vdW  Elec       q    Type
REMARK                         _______ _______ _______ _____ _____    ______ ____
ROOT
ATOM      1  C   UNL     1       3.355   6.127  18.182  0.00  0.00    +0.000 C 
ATOM      2  C   UNL     1       2.880   6.104  19.727  0.00  0.00    +0.000 C 
ATOM      3  C   UNL     1       2.150   4.805  19.879  0.00  0.00    +0.000 A 
ATOM      4  C   UNL     1       1.466   4.262  20.946  0.00  0.00    +0.000 A 
ATOM      5  C   UNL     1       1.175   2.898  20.899  0.00  0.00    +0.000 A 
ATOM      6  C   UNL     1       1.639   2.118  19.829  0.00  0.00    +0.000 A 
ATOM      7  C   UNL     1       2.135   2.736  18.680  0.00  0.00    +0.000 A 
ATOM      8  C   UNL     1       2.222   4.111  18.686  0.00  0.00    +0.000 A 
ATOM      9  C   UNL     1       2.333   5.117  17.580  0.00  0.00    +0.000 C 
ENDROOT
BRANCH   1  10
ATOM     10  N   UNL     1       4.744   5.590  17.853  0.00  0.00    +0.000 NA
ATOM     11  C   UNL     1       5.727   6.582  17.393  0.00  0.00    +0.000 C 
ATOM     12  C   UNL     1       7.083   5.970  16.936  0.00  0.00    +0.000 C 
ATOM     13  N   UNL     1       6.986   4.888  15.936  0.00  0.00    +0.000 NA
ATOM     14  C   UNL     1       6.511   5.362  14.641  0.00  0.00    +0.000 C 
ATOM     15  C   UNL     1       6.107   3.856  16.493  0.00  0.00    +0.000 C 
ATOM     16  C   UNL     1       4.738   4.386  16.975  0.00  0.00    +0.000 C 
ENDBRANCH   1  10
BRANCH   1  17
ATOM     17  C   UNL     1       3.134   7.630  17.788  0.00  0.00    +0.000 C 
BRANCH  17  20
ATOM     18  C   UNL     1       1.688   9.600  17.996  0.00  0.00    +0.000 C 
ATOM     19  O   UNL     1       2.541  10.319  17.502  0.00  0.00    +0.000 OA
ATOM     20  N   UNL     1       1.883   8.245  18.185  0.00  0.00    +0.000 N 
ATOM     21  H   UNL     1       1.167   7.633  18.506  0.00  0.00    +0.000 HD
BRANCH  18  26
ATOM     22  C   UNL     1      -1.993  10.587  18.105  0.00  0.00    +0.000 A 
ATOM     23  C   UNL     1      -2.010  11.270  19.328  0.00  0.00    +0.000 A 
ATOM     24  C   UNL     1      -0.849  11.405  20.087  0.00  0.00    +0.000 A 
ATOM     25  C   UNL     1       0.336  10.861  19.620  0.00  0.00    +0.000 A 
ATOM     26  C   UNL     1       0.382  10.171  18.401  0.00  0.00    +0.000 A 
ATOM     27  C   UNL     1      -0.803  10.032  17.647  0.00  0.00    +0.000 A 
BRANCH  22  29
ATOM     28  C   UNL     1      -3.198  10.223  16.084  0.00  0.00    +0.000 C 
ATOM     29  O   UNL     1      -3.203  10.538  17.470  0.00  0.00    +0.000 OA
ENDBRANCH  22  29
ENDBRANCH  18  26
ENDBRANCH  17  20
ENDBRANCH   1  17
TORSDOF 5
ENDMDL
