MODEL 1
REMARK VINA RESULT:      -8.6      0.000      0.000
REMARK  Name = 
REMARK  9 active torsions:
REMARK  status: ('A' for Active; 'I' for Inactive)
REMARK    1  A    between atoms: C_1  and  N_2
REMARK    2  A    between atoms: N_2  and  C_3
REMARK    3  A    between atoms: N_2  and  C_4
REMARK    4  A    between atoms: C_4  and  C_5
REMARK    5  A    between atoms: C_5  and  C_6
REMARK    6  A    between atoms: C_6  and  N_7
REMARK    7  A    between atoms: N_7  and  C_8
REMARK    8  A    between atoms: C_10  and  C_11
REMARK    9  A    between atoms: C_12  and  C_13
REMARK                            x       y       z     vdW  Elec       q    Type
REMARK                         _______ _______ _______ _____ _____    ______ ____
ROOT
ATOM      1  C   UNL     1       6.804   5.583  16.331  0.00  0.00    +0.000 A 
ATOM      2  N   UNL     1       7.526   6.697  16.531  0.00  0.00    +0.000 NA
ATOM      3  C   UNL     1       6.944   7.675  17.243  0.00  0.00    +0.000 A 
ATOM      4  N   UNL     1       5.703   7.637  17.759  0.00  0.00    +0.000 NA
ATOM      5  C   UNL     1       5.019   6.499  17.602  0.00  0.00    +0.000 A 
ATOM      6  C   UNL     1       3.798   6.343  18.248  0.00  0.00    +0.000 A 
ATOM      7  C   UNL     1       3.117   5.110  18.273  0.00  0.00    +0.000 A 
ATOM      8  C   UNL     1       1.968   4.907  19.055  0.00  0.00    +0.000 A 
ATOM      9  C   UNL     1       1.381   3.641  19.142  0.00  0.00    +0.000 A 
ATOM     10  C   UNL     1       1.910   2.573  18.423  0.00  0.00    +0.000 A 
ATOM     11  C   UNL     1       3.021   2.769  17.608  0.00  0.00    +0.000 A 
ATOM     12  C   UNL     1       3.637   4.026  17.540  0.00  0.00    +0.000 A 
ATOM     13  C   UNL     1       4.805   4.209  16.805  0.00  0.00    +0.000 A 
ATOM     14  C   UNL     1       5.524   5.423  16.871  0.00  0.00    +0.000 A 
ENDROOT
BRANCH   1  15
ATOM     15  N   UNL     1       7.341   4.520  15.592  0.00  0.00    +0.000 N 
ATOM     16  H   UNL     1       7.080   3.615  15.967  0.00  0.00    +0.000 HD
BRANCH  15  17
ATOM     17  C   UNL     1       7.406   4.636  14.146  0.00  0.00    +0.000 C 
BRANCH  17  18
ATOM     18  C   UNL     1       6.139   3.989  13.583  0.00  0.00    +0.000 C 
BRANCH  18  19
ATOM     19  C   UNL     1       6.331   3.382  12.195  0.00  0.00    +0.000 C 
BRANCH  19  21
ATOM     20  C   UNL     1       4.198   2.965  11.096  0.00  0.00    +0.000 C 
ATOM     21  N   UNL     1       5.323   2.378  11.831  0.00  0.00    +0.000 NA
ATOM     22  C   UNL     1       5.936   1.314  11.034  0.00  0.00    +0.000 C 
ENDBRANCH  19  21
ENDBRANCH  18  19
ENDBRANCH  17  18
ENDBRANCH  15  17
ENDBRANCH   1  15
BRANCH   3  23
ATOM     23  C   UNL     1       7.717   8.881  17.565  0.00  0.00    +0.000 C 
ATOM     24  C   UNL     1       8.565   8.996  18.601  0.00  0.00    +0.000 C 
BRANCH  24  25
ATOM     25  C   UNL     1       9.255  10.212  18.894  0.00  0.00    +0.000 A 
ATOM     26  C   UNL     1       9.955  11.090  18.078  0.00  0.00    +0.000 A 
ATOM     27  C   UNL     1      10.498  12.208  18.777  0.00  0.00    +0.000 A 
ATOM     28  C   UNL     1      10.200  12.165  20.117  0.00  0.00    +0.000 A 
ATOM     29  S   UNL     1       9.276  10.790  20.524  0.00  0.00    +0.000 S 
ENDBRANCH  24  25
ENDBRANCH   3  23
TORSDOF 7
ENDMDL
MODEL 2
REMARK VINA RESULT:      -7.9      1.767      4.969
REMARK  Name = 
REMARK  9 active torsions:
REMARK  status: ('A' for Active; 'I' for Inactive)
REMARK    1  A    between atoms: C_1  and  N_2
REMARK    2  A    between atoms: N_2  and  C_3
REMARK    3  A    between atoms: N_2  and  C_4
REMARK    4  A    between atoms: C_4  and  C_5
REMARK    5  A    between atoms: C_5  and  C_6
REMARK    6  A    between atoms: C_6  and  N_7
REMARK    7  A    between atoms: N_7  and  C_8
REMARK    8  A    between atoms: C_10  and  C_11
REMARK    9  A    between atoms: C_12  and  C_13
REMARK                            x       y       z     vdW  Elec       q    Type
REMARK                         _______ _______ _______ _____ _____    ______ ____
ROOT
ATOM      1  C   UNL     1       5.487   5.659  17.354  0.00  0.00    +0.000 A 
ATOM      2  N   UNL     1       6.170   6.584  18.048  0.00  0.00    +0.000 NA
ATOM      3  C   UNL     1       7.343   6.982  17.532  0.00  0.00    +0.000 A 
ATOM      4  N   UNL     1       7.894   6.527  16.393  0.00  0.00    +0.000 NA
ATOM      5  C   UNL     1       7.176   5.652  15.683  0.00  0.00    +0.000 A 
ATOM      6  C   UNL     1       7.620   5.268  14.423  0.00  0.00    +0.000 A 
ATOM      7  C   UNL     1       6.825   4.496  13.553  0.00  0.00    +0.000 A 
ATOM      8  C   UNL     1       7.202   4.242  12.224  0.00  0.00    +0.000 A 
ATOM      9  C   UNL     1       6.340   3.565  11.357  0.00  0.00    +0.000 A 
ATOM     10  C   UNL     1       5.110   3.101  11.813  0.00  0.00    +0.000 A 
ATOM     11  C   UNL     1       4.741   3.305  13.140  0.00  0.00    +0.000 A 
ATOM     12  C   UNL     1       5.583   4.012  14.008  0.00  0.00    +0.000 A 
ATOM     13  C   UNL     1       5.182   4.305  15.309  0.00  0.00    +0.000 A 
ATOM     14  C   UNL     1       5.948   5.161  16.131  0.00  0.00    +0.000 A 
ENDROOT
BRANCH   1  15
ATOM     15  N   UNL     1       4.256   5.189  17.831  0.00  0.00    +0.000 N 
ATOM     16  H   UNL     1       4.362   4.458  18.525  0.00  0.00    +0.000 HD
BRANCH  15  17
ATOM     17  C   UNL     1       3.178   6.140  18.038  0.00  0.00    +0.000 C 
BRANCH  17  18
ATOM     18  C   UNL     1       1.869   5.347  18.033  0.00  0.00    +0.000 C 
BRANCH  18  19
ATOM     19  C   UNL     1       2.025   3.918  17.514  0.00  0.00    +0.000 C 
BRANCH  19  21
ATOM     20  C   UNL     1       0.798   2.292  18.848  0.00  0.00    +0.000 C 
ATOM     21  N   UNL     1       2.103   2.900  18.568  0.00  0.00    +0.000 NA
ATOM     22  C   UNL     1       3.065   1.861  18.195  0.00  0.00    +0.000 C 
ENDBRANCH  19  21
ENDBRANCH  18  19
ENDBRANCH  17  18
ENDBRANCH  15  17
ENDBRANCH   1  15
BRANCH   3  23
ATOM     23  C   UNL     1       8.092   8.052  18.204  0.00  0.00    +0.000 C 
ATOM     24  C   UNL     1       8.025   9.355  17.882  0.00  0.00    +0.000 C 
BRANCH  24  25
ATOM     25  C   UNL     1       8.815  10.347  18.541  0.00  0.00    +0.000 A 
ATOM     26  C   UNL     1       9.510  10.319  19.742  0.00  0.00    +0.000 A 
ATOM     27  C   UNL     1      10.187  11.539  20.038  0.00  0.00    +0.000 A 
ATOM     28  C   UNL     1       9.997  12.479  19.054  0.00  0.00    +0.000 A 
ATOM     29  S   UNL     1       9.014  11.892  17.789  0.00  0.00    +0.000 S 
ENDBRANCH  24  25
ENDBRANCH   3  23
TORSDOF 7
ENDMDL
MODEL 3
REMARK VINA RESULT:      -7.9      4.377      7.264
REMARK  Name = 
REMARK  9 active torsions:
REMARK  status: ('A' for Active; 'I' for Inactive)
REMARK    1  A    between atoms: C_1  and  N_2
REMARK    2  A    between atoms: N_2  and  C_3
REMARK    3  A    between atoms: N_2  and  C_4
REMARK    4  A    between atoms: C_4  and  C_5
REMARK    5  A    between atoms: C_5  and  C_6
REMARK    6  A    between atoms: C_6  and  N_7
REMARK    7  A    between atoms: N_7  and  C_8
REMARK    8  A    between atoms: C_10  and  C_11
REMARK    9  A    between atoms: C_12  and  C_13
REMARK                            x       y       z     vdW  Elec       q    Type
REMARK                         _______ _______ _______ _____ _____    ______ ____
ROOT
ATOM      1  C   UNL     1       2.514   6.120  20.266  0.00  0.00    +0.000 A 
ATOM      2  N   UNL     1       3.327   5.769  19.256  0.00  0.00    +0.000 NA
ATOM      3  C   UNL     1       3.372   6.595  18.201  0.00  0.00    +0.000 A 
ATOM      4  N   UNL     1       2.667   7.733  18.064  0.00  0.00    +0.000 NA
ATOM      5  C   UNL     1       1.909   8.100  19.102  0.00  0.00    +0.000 A 
ATOM      6  C   UNL     1       1.284   9.342  19.084  0.00  0.00    +0.000 A 
ATOM      7  C   UNL     1       0.624   9.864  20.213  0.00  0.00    +0.000 A 
ATOM      8  C   UNL     1       0.132  11.179  20.251  0.00  0.00    +0.000 A 
ATOM      9  C   UNL     1      -0.420  11.699  21.424  0.00  0.00    +0.000 A 
ATOM     10  C   UNL     1      -0.522  10.905  22.563  0.00  0.00    +0.000 A 
ATOM     11  C   UNL     1      -0.080   9.585  22.529  0.00  0.00    +0.000 A 
ATOM     12  C   UNL     1       0.505   9.065  21.367  0.00  0.00    +0.000 A 
ATOM     13  C   UNL     1       1.038   7.778  21.352  0.00  0.00    +0.000 A 
ATOM     14  C   UNL     1       1.780   7.310  20.245  0.00  0.00    +0.000 A 
ENDROOT
BRANCH   1  15
ATOM     15  N   UNL     1       2.409   5.305  21.401  0.00  0.00    +0.000 N 
ATOM     16  H   UNL     1       1.932   5.766  22.167  0.00  0.00    +0.000 HD
BRANCH  15  17
ATOM     17  C   UNL     1       2.143   3.888  21.221  0.00  0.00    +0.000 C 
BRANCH  17  18
ATOM     18  C   UNL     1       0.907   3.770  20.328  0.00  0.00    +0.000 C 
BRANCH  18  19
ATOM     19  C   UNL     1       0.839   2.455  19.553  0.00  0.00    +0.000 C 
BRANCH  19  21
ATOM     20  C   UNL     1       1.214   3.885  17.618  0.00  0.00    +0.000 C 
ATOM     21  N   UNL     1       1.353   2.538  18.181  0.00  0.00    +0.000 NA
ATOM     22  C   UNL     1       2.757   2.127  18.143  0.00  0.00    +0.000 C 
ENDBRANCH  19  21
ENDBRANCH  18  19
ENDBRANCH  17  18
ENDBRANCH  15  17
ENDBRANCH   1  15
BRANCH   3  23
ATOM     23  C   UNL     1       4.306   6.306  17.105  0.00  0.00    +0.000 C 
ATOM     24  C   UNL     1       4.513   5.090  16.573  0.00  0.00    +0.000 C 
BRANCH  24  25
ATOM     25  C   UNL     1       5.472   4.859  15.539  0.00  0.00    +0.000 A 
ATOM     26  C   UNL     1       5.342   4.306  14.273  0.00  0.00    +0.000 A 
ATOM     27  C   UNL     1       6.565   4.263  13.541  0.00  0.00    +0.000 A 
ATOM     28  C   UNL     1       7.610   4.787  14.263  0.00  0.00    +0.000 A 
ATOM     29  S   UNL     1       7.116   5.325  15.805  0.00  0.00    +0.000 S 
ENDBRANCH  24  25
ENDBRANCH   3  23
TORSDOF 7
ENDMDL
MODEL 4
REMARK VINA RESULT:      -7.9      4.635      7.373
REMARK  Name = 
REMARK  9 active torsions:
REMARK  status: ('A' for Active; 'I' for Inactive)
REMARK    1  A    between atoms: C_1  and  N_2
REMARK    2  A    between atoms: N_2  and  C_3
REMARK    3  A    between atoms: N_2  and  C_4
REMARK    4  A    between atoms: C_4  and  C_5
REMARK    5  A    between atoms: C_5  and  C_6
REMARK    6  A    between atoms: C_6  and  N_7
REMARK    7  A    between atoms: N_7  and  C_8
REMARK    8  A    between atoms: C_10  and  C_11
REMARK    9  A    between atoms: C_12  and  C_13
REMARK                            x       y       z     vdW  Elec       q    Type
REMARK                         _______ _______ _______ _____ _____    ______ ____
ROOT
ATOM      1  C   UNL     1       2.788   6.322  19.662  0.00  0.00    +0.000 A 
ATOM      2  N   UNL     1       1.960   7.360  19.868  0.00  0.00    +0.000 NA
ATOM      3  C   UNL     1       2.005   8.355  18.970  0.00  0.00    +0.000 A 
ATOM      4  N   UNL     1       2.811   8.406  17.894  0.00  0.00    +0.000 NA
ATOM      5  C   UNL     1       3.585   7.339  17.670  0.00  0.00    +0.000 A 
ATOM      6  C   UNL     1       4.319   7.266  16.491  0.00  0.00    +0.000 A 
ATOM      7  C   UNL     1       5.007   6.098  16.111  0.00  0.00    +0.000 A 
ATOM      8  C   UNL     1       5.614   5.965  14.851  0.00  0.00    +0.000 A 
ATOM      9  C   UNL     1       6.195   4.753  14.465  0.00  0.00    +0.000 A 
ATOM     10  C   UNL     1       6.209   3.672  15.342  0.00  0.00    +0.000 A 
ATOM     11  C   UNL     1       5.651   3.802  16.611  0.00  0.00    +0.000 A 
ATOM     12  C   UNL     1       5.037   5.002  16.995  0.00  0.00    +0.000 A 
ATOM     13  C   UNL     1       4.391   5.111  18.224  0.00  0.00    +0.000 A 
ATOM     14  C   UNL     1       3.626   6.253  18.545  0.00  0.00    +0.000 A 
ENDROOT
BRANCH   1  15
ATOM     15  N   UNL     1       2.803   5.246  20.560  0.00  0.00    +0.000 N 
ATOM     16  H   UNL     1       3.503   5.354  21.285  0.00  0.00    +0.000 HD
BRANCH  15  17
ATOM     17  C   UNL     1       1.541   4.645  20.953  0.00  0.00    +0.000 C 
BRANCH  17  18
ATOM     18  C   UNL     1       1.188   3.601  19.892  0.00  0.00    +0.000 C 
BRANCH  18  19
ATOM     19  C   UNL     1       1.989   2.306  20.023  0.00  0.00    +0.000 C 
BRANCH  19  21
ATOM     20  C   UNL     1       4.378   2.063  20.428  0.00  0.00    +0.000 C 
ATOM     21  N   UNL     1       3.336   2.371  19.443  0.00  0.00    +0.000 NA
ATOM     22  C   UNL     1       3.440   1.452  18.307  0.00  0.00    +0.000 C 
ENDBRANCH  19  21
ENDBRANCH  18  19
ENDBRANCH  17  18
ENDBRANCH  15  17
ENDBRANCH   1  15
BRANCH   3  23
ATOM     23  C   UNL     1       1.064   9.475  19.098  0.00  0.00    +0.000 C 
ATOM     24  C   UNL     1       0.290   9.710  20.171  0.00  0.00    +0.000 C 
BRANCH  24  25
ATOM     25  C   UNL     1      -0.644  10.790  20.219  0.00  0.00    +0.000 A 
ATOM     26  C   UNL     1      -0.980  11.668  21.240  0.00  0.00    +0.000 A 
ATOM     27  C   UNL     1      -1.974  12.621  20.869  0.00  0.00    +0.000 A 
ATOM     28  C   UNL     1      -2.379  12.454  19.567  0.00  0.00    +0.000 A 
ATOM     29  S   UNL     1      -1.567  11.162  18.805  0.00  0.00    +0.000 S 
ENDBRANCH  24  25
ENDBRANCH   3  23
TORSDOF 7
ENDMDL
MODEL 5
REMARK VINA RESULT:      -7.8      1.840      5.584
REMARK  Name = 
REMARK  9 active torsions:
REMARK  status: ('A' for Active; 'I' for Inactive)
REMARK    1  A    between atoms: C_1  and  N_2
REMARK    2  A    between atoms: N_2  and  C_3
REMARK    3  A    between atoms: N_2  and  C_4
REMARK    4  A    between atoms: C_4  and  C_5
REMARK    5  A    between atoms: C_5  and  C_6
REMARK    6  A    between atoms: C_6  and  N_7
REMARK    7  A    between atoms: N_7  and  C_8
REMARK    8  A    between atoms: C_10  and  C_11
REMARK    9  A    between atoms: C_12  and  C_13
REMARK                            x       y       z     vdW  Elec       q    Type
REMARK                         _______ _______ _______ _____ _____    ______ ____
ROOT
ATOM      1  C   UNL     1       5.455   5.512  17.339  0.00  0.00    +0.000 A 
ATOM      2  N   UNL     1       6.091   6.456  18.053  0.00  0.00    +0.000 NA
ATOM      3  C   UNL     1       7.239   6.926  17.543  0.00  0.00    +0.000 A 
ATOM      4  N   UNL     1       7.809   6.528  16.391  0.00  0.00    +0.000 NA
ATOM      5  C   UNL     1       7.134   5.633  15.663  0.00  0.00    +0.000 A 
ATOM      6  C   UNL     1       7.592   5.303  14.393  0.00  0.00    +0.000 A 
ATOM      7  C   UNL     1       6.836   4.510  13.508  0.00  0.00    +0.000 A 
ATOM      8  C   UNL     1       7.219   4.308  12.172  0.00  0.00    +0.000 A 
ATOM      9  C   UNL     1       6.391   3.607  11.292  0.00  0.00    +0.000 A 
ATOM     10  C   UNL     1       5.188   3.069  11.740  0.00  0.00    +0.000 A 
ATOM     11  C   UNL     1       4.815   3.222  13.073  0.00  0.00    +0.000 A 
ATOM     12  C   UNL     1       5.622   3.952  13.955  0.00  0.00    +0.000 A 
ATOM     13  C   UNL     1       5.212   4.193  15.263  0.00  0.00    +0.000 A 
ATOM     14  C   UNL     1       5.935   5.069  16.103  0.00  0.00    +0.000 A 
ENDROOT
BRANCH   1  15
ATOM     15  N   UNL     1       4.252   4.967  17.808  0.00  0.00    +0.000 N 
ATOM     16  H   UNL     1       4.121   4.005  17.517  0.00  0.00    +0.000 HD
BRANCH  15  17
ATOM     17  C   UNL     1       3.802   5.314  19.145  0.00  0.00    +0.000 C 
BRANCH  17  18
ATOM     18  C   UNL     1       2.272   5.301  19.124  0.00  0.00    +0.000 C 
BRANCH  18  19
ATOM     19  C   UNL     1       1.647   5.071  20.499  0.00  0.00    +0.000 C 
BRANCH  19  21
ATOM     20  C   UNL     1       0.905   3.013  19.428  0.00  0.00    +0.000 C 
ATOM     21  N   UNL     1       1.112   3.718  20.697  0.00  0.00    +0.000 NA
ATOM     22  C   UNL     1       2.010   2.943  21.556  0.00  0.00    +0.000 C 
ENDBRANCH  19  21
ENDBRANCH  18  19
ENDBRANCH  17  18
ENDBRANCH  15  17
ENDBRANCH   1  15
BRANCH   3  23
ATOM     23  C   UNL     1       7.934   8.019  18.237  0.00  0.00    +0.000 C 
ATOM     24  C   UNL     1       8.088   9.262  17.752  0.00  0.00    +0.000 C 
BRANCH  24  25
ATOM     25  C   UNL     1       8.816  10.272  18.453  0.00  0.00    +0.000 A 
ATOM     26  C   UNL     1       9.582  10.216  19.609  0.00  0.00    +0.000 A 
ATOM     27  C   UNL     1      10.154  11.471  19.976  0.00  0.00    +0.000 A 
ATOM     28  C   UNL     1       9.814  12.464  19.090  0.00  0.00    +0.000 A 
ATOM     29  S   UNL     1       8.817  11.886  17.832  0.00  0.00    +0.000 S 
ENDBRANCH  24  25
ENDBRANCH   3  23
TORSDOF 7
ENDMDL
MODEL 6
REMARK VINA RESULT:      -7.8      4.533      7.217
REMARK  Name = 
REMARK  9 active torsions:
REMARK  status: ('A' for Active; 'I' for Inactive)
REMARK    1  A    between atoms: C_1  and  N_2
REMARK    2  A    between atoms: N_2  and  C_3
REMARK    3  A    between atoms: N_2  and  C_4
REMARK    4  A    between atoms: C_4  and  C_5
REMARK    5  A    between atoms: C_5  and  C_6
REMARK    6  A    between atoms: C_6  and  N_7
REMARK    7  A    between atoms: N_7  and  C_8
REMARK    8  A    between atoms: C_10  and  C_11
REMARK    9  A    between atoms: C_12  and  C_13
REMARK                            x       y       z     vdW  Elec       q    Type
REMARK                         _______ _______ _______ _____ _____    ______ ____
ROOT
ATOM      1  C   UNL     1       2.793   6.306  19.673  0.00  0.00    +0.000 A 
ATOM      2  N   UNL     1       1.980   7.357  19.873  0.00  0.00    +0.000 NA
ATOM      3  C   UNL     1       2.045   8.350  18.975  0.00  0.00    +0.000 A 
ATOM      4  N   UNL     1       2.857   8.388  17.903  0.00  0.00    +0.000 NA
ATOM      5  C   UNL     1       3.616   7.310  17.683  0.00  0.00    +0.000 A 
ATOM      6  C   UNL     1       4.354   7.224  16.508  0.00  0.00    +0.000 A 
ATOM      7  C   UNL     1       5.027   6.045  16.133  0.00  0.00    +0.000 A 
ATOM      8  C   UNL     1       5.639   5.902  14.877  0.00  0.00    +0.000 A 
ATOM      9  C   UNL     1       6.203   4.681  14.495  0.00  0.00    +0.000 A 
ATOM     10  C   UNL     1       6.195   3.601  15.372  0.00  0.00    +0.000 A 
ATOM     11  C   UNL     1       5.633   3.740  16.638  0.00  0.00    +0.000 A 
ATOM     12  C   UNL     1       5.036   4.949  17.018  0.00  0.00    +0.000 A 
ATOM     13  C   UNL     1       4.386   5.070  18.243  0.00  0.00    +0.000 A 
ATOM     14  C   UNL     1       3.636   6.224  18.559  0.00  0.00    +0.000 A 
ENDROOT
BRANCH   1  15
ATOM     15  N   UNL     1       2.788   5.231  20.571  0.00  0.00    +0.000 N 
ATOM     16  H   UNL     1       3.519   5.303  21.269  0.00  0.00    +0.000 HD
BRANCH  15  17
ATOM     17  C   UNL     1       1.512   4.696  21.013  0.00  0.00    +0.000 C 
BRANCH  17  18
ATOM     18  C   UNL     1       1.063   3.675  19.965  0.00  0.00    +0.000 C 
BRANCH  18  19
ATOM     19  C   UNL     1       1.898   2.396  19.965  0.00  0.00    +0.000 C 
BRANCH  19  21
ATOM     20  C   UNL     1       2.016   2.902  17.585  0.00  0.00    +0.000 C 
ATOM     21  N   UNL     1       2.222   1.889  18.626  0.00  0.00    +0.000 NA
ATOM     22  C   UNL     1       3.606   1.414  18.589  0.00  0.00    +0.000 C 
ENDBRANCH  19  21
ENDBRANCH  18  19
ENDBRANCH  17  18
ENDBRANCH  15  17
ENDBRANCH   1  15
BRANCH   3  23
ATOM     23  C   UNL     1       1.120   9.485  19.097  0.00  0.00    +0.000 C 
ATOM     24  C   UNL     1       0.254   9.665  20.108  0.00  0.00    +0.000 C 
BRANCH  24  25
ATOM     25  C   UNL     1      -0.657  10.765  20.149  0.00  0.00    +0.000 A 
ATOM     26  C   UNL     1      -1.602  11.208  19.234  0.00  0.00    +0.000 A 
ATOM     27  C   UNL     1      -2.321  12.360  19.670  0.00  0.00    +0.000 A 
ATOM     28  C   UNL     1      -1.912  12.775  20.914  0.00  0.00    +0.000 A 
ATOM     29  S   UNL     1      -0.676  11.784  21.545  0.00  0.00    +0.000 S 
ENDBRANCH  24  25
ENDBRANCH   3  23
TORSDOF 7
ENDMDL
MODEL 7
REMARK VINA RESULT:      -7.7      4.565      6.955
REMARK  Name = 
REMARK  9 active torsions:
REMARK  status: ('A' for Active; 'I' for Inactive)
REMARK    1  A    between atoms: C_1  and  N_2
REMARK    2  A    between atoms: N_2  and  C_3
REMARK    3  A    between atoms: N_2  and  C_4
REMARK    4  A    between atoms: C_4  and  C_5
REMARK    5  A    between atoms: C_5  and  C_6
REMARK    6  A    between atoms: C_6  and  N_7
REMARK    7  A    between atoms: N_7  and  C_8
REMARK    8  A    between atoms: C_10  and  C_11
REMARK    9  A    between atoms: C_12  and  C_13
REMARK                            x       y       z     vdW  Elec       q    Type
REMARK                         _______ _______ _______ _____ _____    ______ ____
ROOT
ATOM      1  C   UNL     1       2.970   6.143  19.559  0.00  0.00    +0.000 A 
ATOM      2  N   UNL     1       2.147   7.178  19.794  0.00  0.00    +0.000 NA
ATOM      3  C   UNL     1       2.173   8.184  18.906  0.00  0.00    +0.000 A 
ATOM      4  N   UNL     1       2.957   8.248  17.815  0.00  0.00    +0.000 NA
ATOM      5  C   UNL     1       3.726   7.184  17.562  0.00  0.00    +0.000 A 
ATOM      6  C   UNL     1       4.436   7.124  16.368  0.00  0.00    +0.000 A 
ATOM      7  C   UNL     1       5.117   5.961  15.961  0.00  0.00    +0.000 A 
ATOM      8  C   UNL     1       5.698   5.843  14.688  0.00  0.00    +0.000 A 
ATOM      9  C   UNL     1       6.271   4.636  14.276  0.00  0.00    +0.000 A 
ATOM     10  C   UNL     1       6.303   3.545  15.139  0.00  0.00    +0.000 A 
ATOM     11  C   UNL     1       5.771   3.660  16.421  0.00  0.00    +0.000 A 
ATOM     12  C   UNL     1       5.165   4.855  16.831  0.00  0.00    +0.000 A 
ATOM     13  C   UNL     1       4.544   4.949  18.074  0.00  0.00    +0.000 A 
ATOM     14  C   UNL     1       3.785   6.087  18.424  0.00  0.00    +0.000 A 
ENDROOT
BRANCH   1  15
ATOM     15  N   UNL     1       3.004   5.056  20.444  0.00  0.00    +0.000 N 
ATOM     16  H   UNL     1       3.904   4.952  20.896  0.00  0.00    +0.000 HD
BRANCH  15  17
ATOM     17  C   UNL     1       1.829   4.774  21.249  0.00  0.00    +0.000 C 
BRANCH  17  18
ATOM     18  C   UNL     1       1.407   3.335  20.944  0.00  0.00    +0.000 C 
BRANCH  18  19
ATOM     19  C   UNL     1       2.538   2.476  20.381  0.00  0.00    +0.000 C 
BRANCH  19  21
ATOM     20  C   UNL     1       1.505   2.817  18.202  0.00  0.00    +0.000 C 
ATOM     21  N   UNL     1       2.255   1.896  19.063  0.00  0.00    +0.000 NA
ATOM     22  C   UNL     1       3.505   1.508  18.405  0.00  0.00    +0.000 C 
ENDBRANCH  19  21
ENDBRANCH  18  19
ENDBRANCH  17  18
ENDBRANCH  15  17
ENDBRANCH   1  15
BRANCH   3  23
ATOM     23  C   UNL     1       1.234   9.302  19.066  0.00  0.00    +0.000 C 
ATOM     24  C   UNL     1       1.431  10.544  18.594  0.00  0.00    +0.000 C 
BRANCH  24  25
ATOM     25  C   UNL     1       0.502  11.606  18.822  0.00  0.00    +0.000 A 
ATOM     26  C   UNL     1       0.632  12.982  18.692  0.00  0.00    +0.000 A 
ATOM     27  C   UNL     1      -0.557  13.699  19.019  0.00  0.00    +0.000 A 
ATOM     28  C   UNL     1      -1.575  12.855  19.391  0.00  0.00    +0.000 A 
ATOM     29  S   UNL     1      -1.099  11.218  19.345  0.00  0.00    +0.000 S 
ENDBRANCH  24  25
ENDBRANCH   3  23
TORSDOF 7
ENDMDL
MODEL 8
REMARK VINA RESULT:      -7.7      4.456      7.007
REMARK  Name = 
REMARK  9 active torsions:
REMARK  status: ('A' for Active; 'I' for Inactive)
REMARK    1  A    between atoms: C_1  and  N_2
REMARK    2  A    between atoms: N_2  and  C_3
REMARK    3  A    between atoms: N_2  and  C_4
REMARK    4  A    between atoms: C_4  and  C_5
REMARK    5  A    between atoms: C_5  and  C_6
REMARK    6  A    between atoms: C_6  and  N_7
REMARK    7  A    between atoms: N_7  and  C_8
REMARK    8  A    between atoms: C_10  and  C_11
REMARK    9  A    between atoms: C_12  and  C_13
REMARK                            x       y       z     vdW  Elec       q    Type
REMARK                         _______ _______ _______ _____ _____    ______ ____
ROOT
ATOM      1  C   UNL     1       2.762   6.249  19.718  0.00  0.00    +0.000 A 
ATOM      2  N   UNL     1       1.967   7.304  19.959  0.00  0.00    +0.000 NA
ATOM      3  C   UNL     1       2.040   8.326  19.092  0.00  0.00    +0.000 A 
ATOM      4  N   UNL     1       2.844   8.386  18.016  0.00  0.00    +0.000 NA
ATOM      5  C   UNL     1       3.585   7.304  17.756  0.00  0.00    +0.000 A 
ATOM      6  C   UNL     1       4.314   7.246  16.573  0.00  0.00    +0.000 A 
ATOM      7  C   UNL     1       4.966   6.070  16.154  0.00  0.00    +0.000 A 
ATOM      8  C   UNL     1       5.566   5.958  14.890  0.00  0.00    +0.000 A 
ATOM      9  C   UNL     1       6.109   4.743  14.464  0.00  0.00    +0.000 A 
ATOM     10  C   UNL     1       6.093   3.635  15.307  0.00  0.00    +0.000 A 
ATOM     11  C   UNL     1       5.542   3.742  16.581  0.00  0.00    +0.000 A 
ATOM     12  C   UNL     1       4.965   4.946  17.004  0.00  0.00    +0.000 A 
ATOM     13  C   UNL     1       4.326   5.036  18.238  0.00  0.00    +0.000 A 
ATOM     14  C   UNL     1       3.596   6.190  18.597  0.00  0.00    +0.000 A 
ENDROOT
BRANCH   1  15
ATOM     15  N   UNL     1       2.748   5.146  20.582  0.00  0.00    +0.000 N 
ATOM     16  H   UNL     1       3.395   5.248  21.355  0.00  0.00    +0.000 HD
BRANCH  15  17
ATOM     17  C   UNL     1       1.478   4.502  20.872  0.00  0.00    +0.000 C 
BRANCH  17  18
ATOM     18  C   UNL     1       1.207   3.509  19.740  0.00  0.00    +0.000 C 
BRANCH  18  19
ATOM     19  C   UNL     1       1.986   2.202  19.878  0.00  0.00    +0.000 C 
BRANCH  19  21
ATOM     20  C   UNL     1       4.344   2.005  20.452  0.00  0.00    +0.000 C 
ATOM     21  N   UNL     1       3.368   2.270  19.390  0.00  0.00    +0.000 NA
ATOM     22  C   UNL     1       3.562   1.323  18.290  0.00  0.00    +0.000 C 
ENDBRANCH  19  21
ENDBRANCH  18  19
ENDBRANCH  17  18
ENDBRANCH  15  17
ENDBRANCH   1  15
BRANCH   3  23
ATOM     23  C   UNL     1       1.132   9.469  19.258  0.00  0.00    +0.000 C 
ATOM     24  C   UNL     1       1.255  10.646  18.621  0.00  0.00    +0.000 C 
BRANCH  24  25
ATOM     25  C   UNL     1       0.368  11.741  18.859  0.00  0.00    +0.000 A 
ATOM     26  C   UNL     1      -0.981  11.775  19.182  0.00  0.00    +0.000 A 
ATOM     27  C   UNL     1      -1.496  13.096  19.342  0.00  0.00    +0.000 A 
ATOM     28  C   UNL     1      -0.527  14.048  19.140  0.00  0.00    +0.000 A 
ATOM     29  S   UNL     1       0.985  13.353  18.762  0.00  0.00    +0.000 S 
ENDBRANCH  24  25
ENDBRANCH   3  23
TORSDOF 7
ENDMDL
MODEL 9
REMARK VINA RESULT:      -7.6      4.499      7.294
REMARK  Name = 
REMARK  9 active torsions:
REMARK  status: ('A' for Active; 'I' for Inactive)
REMARK    1  A    between atoms: C_1  and  N_2
REMARK    2  A    between atoms: N_2  and  C_3
REMARK    3  A    between atoms: N_2  and  C_4
REMARK    4  A    between atoms: C_4  and  C_5
REMARK    5  A    between atoms: C_5  and  C_6
REMARK    6  A    between atoms: C_6  and  N_7
REMARK    7  A    between atoms: N_7  and  C_8
REMARK    8  A    between atoms: C_10  and  C_11
REMARK    9  A    between atoms: C_12  and  C_13
REMARK                            x       y       z     vdW  Elec       q    Type
REMARK                         _______ _______ _______ _____ _____    ______ ____
ROOT
ATOM      1  C   UNL     1       2.573   6.086  19.864  0.00  0.00    +0.000 A 
ATOM      2  N   UNL     1       3.401   5.762  18.857  0.00  0.00    +0.000 NA
ATOM      3  C   UNL     1       3.518   6.654  17.862  0.00  0.00    +0.000 A 
ATOM      4  N   UNL     1       2.872   7.831  17.782  0.00  0.00    +0.000 NA
ATOM      5  C   UNL     1       2.099   8.166  18.820  0.00  0.00    +0.000 A 
ATOM      6  C   UNL     1       1.534   9.435  18.867  0.00  0.00    +0.000 A 
ATOM      7  C   UNL     1       0.863   9.913  20.010  0.00  0.00    +0.000 A 
ATOM      8  C   UNL     1       0.433  11.245  20.121  0.00  0.00    +0.000 A 
ATOM      9  C   UNL     1      -0.132  11.713  21.311  0.00  0.00    +0.000 A 
ATOM     10  C   UNL     1      -0.307  10.852  22.390  0.00  0.00    +0.000 A 
ATOM     11  C   UNL     1       0.073   9.517  22.280  0.00  0.00    +0.000 A 
ATOM     12  C   UNL     1       0.671   9.046  21.103  0.00  0.00    +0.000 A 
ATOM     13  C   UNL     1       1.142   7.739  21.017  0.00  0.00    +0.000 A 
ATOM     14  C   UNL     1       1.897   7.310  19.903  0.00  0.00    +0.000 A 
ENDROOT
BRANCH   1  15
ATOM     15  N   UNL     1       2.393   5.204  20.939  0.00  0.00    +0.000 N 
ATOM     16  H   UNL     1       2.641   5.620  21.829  0.00  0.00    +0.000 HD
BRANCH  15  17
ATOM     17  C   UNL     1       1.246   4.314  20.927  0.00  0.00    +0.000 C 
BRANCH  17  18
ATOM     18  C   UNL     1       1.756   2.914  21.272  0.00  0.00    +0.000 C 
BRANCH  18  19
ATOM     19  C   UNL     1       2.074   2.062  20.044  0.00  0.00    +0.000 C 
BRANCH  19  21
ATOM     20  C   UNL     1       4.499   2.282  19.989  0.00  0.00    +0.000 C 
ATOM     21  N   UNL     1       3.239   2.521  19.278  0.00  0.00    +0.000 NA
ATOM     22  C   UNL     1       3.273   1.862  17.971  0.00  0.00    +0.000 C 
ENDBRANCH  19  21
ENDBRANCH  18  19
ENDBRANCH  17  18
ENDBRANCH  15  17
ENDBRANCH   1  15
BRANCH   3  23
ATOM     23  C   UNL     1       4.473   6.391  16.777  0.00  0.00    +0.000 C 
ATOM     24  C   UNL     1       4.775   5.173  16.297  0.00  0.00    +0.000 C 
BRANCH  24  25
ATOM     25  C   UNL     1       5.750   4.975  15.271  0.00  0.00    +0.000 A 
ATOM     26  C   UNL     1       7.045   5.452  15.132  0.00  0.00    +0.000 A 
ATOM     27  C   UNL     1       7.692   5.005  13.941  0.00  0.00    +0.000 A 
ATOM     28  C   UNL     1       6.877   4.191  13.193  0.00  0.00    +0.000 A 
ATOM     29  S   UNL     1       5.350   3.971  13.921  0.00  0.00    +0.000 S 
ENDBRANCH  24  25
ENDBRANCH   3  23
TORSDOF 7
ENDMDL
