MODEL 1
REMARK VINA RESULT:      -7.0      0.000      0.000
REMARK  Name = 
REMARK  8 active torsions:
REMARK  status: ('A' for Active; 'I' for Inactive)
REMARK    1  A    between atoms: C_1  and  C_2
REMARK    2  A    between atoms: C_2  and  C_3
REMARK    3  A    between atoms: C_3  and  N_4
REMARK    4  A    between atoms: N_4  and  S_5
REMARK    5  A    between atoms: S_5  and  C_8
REMARK    6  A    between atoms: C_11  and  O_12
REMARK    7  A    between atoms: O_12  and  C_13
REMARK    8  A    between atoms: C_13  and  C_14
REMARK                            x       y       z     vdW  Elec       q    Type
REMARK                         _______ _______ _______ _____ _____    ______ ____
ROOT
ATOM      1  C   UNL     1       5.420   5.317  16.609  0.00  0.00    +0.000 A 
ATOM      2  C   UNL     1       4.457   4.419  17.069  0.00  0.00    +0.000 A 
ATOM      3  C   UNL     1       3.329   4.911  17.726  0.00  0.00    +0.000 A 
ATOM      4  C   UNL     1       3.166   6.284  17.941  0.00  0.00    +0.000 A 
ATOM      5  C   UNL     1       4.141   7.176  17.491  0.00  0.00    +0.000 A 
ATOM      6  C   UNL     1       5.281   6.691  16.837  0.00  0.00    +0.000 A 
ENDROOT
BRANCH   1   7
ATOM      7  S   UNL     1       6.860   4.719  15.742  0.00  0.00    +0.000 S 
ATOM      8  O   UNL     1       7.729   4.074  16.700  0.00  0.00    +0.000 OA
ATOM      9  O   UNL     1       7.304   5.802  14.897  0.00  0.00    +0.000 OA
BRANCH   7  10
ATOM     10  N   UNL     1       6.194   3.524  14.735  0.00  0.00    +0.000 NA
ATOM     11  H   UNL     1       6.295   2.595  15.139  0.00  0.00    +0.000 HD
BRANCH  10  12
ATOM     12  C   UNL     1       6.567   3.593  13.310  0.00  0.00    +0.000 C 
BRANCH  12  14
ATOM     13  C   UNL     1       5.579   2.181  11.436  0.00  0.00    +0.000 C 
ATOM     14  C   UNL     1       5.353   3.318  12.422  0.00  0.00    +0.000 C 
ENDBRANCH  12  14
ENDBRANCH  10  12
ENDBRANCH   7  10
ENDBRANCH   1   7
BRANCH   4  15
ATOM     15  O   UNL     1       2.003   6.629  18.569  0.00  0.00    +0.000 OA
BRANCH  15  16
ATOM     16  C   UNL     1       2.125   7.339  19.797  0.00  0.00    +0.000 C 
BRANCH  16  17
ATOM     17  C   UNL     1       1.476   8.720  19.649  0.00  0.00    +0.000 C 
ATOM     18  O   UNL     1       1.243   9.168  18.525  0.00  0.00    +0.000 OA
ATOM     19  N   UNL     1       1.128   9.415  20.799  0.00  0.00    +0.000 N 
ATOM     20  C   UNL     1       1.392   8.994  22.175  0.00  0.00    +0.000 C 
ATOM     21  C   UNL     1       0.193   9.314  23.080  0.00  0.00    +0.000 C 
ATOM     22  O   UNL     1      -0.206  10.689  22.972  0.00  0.00    +0.000 OA
ATOM     23  C   UNL     1      -0.552  11.016  21.616  0.00  0.00    +0.000 C 
ATOM     24  C   UNL     1       0.642  10.794  20.685  0.00  0.00    +0.000 C 
ENDBRANCH  16  17
ENDBRANCH  15  16
ENDBRANCH   4  15
TORSDOF 7
ENDMDL
MODEL 2
REMARK VINA RESULT:      -6.9      3.276      5.126
REMARK  Name = 
REMARK  8 active torsions:
REMARK  status: ('A' for Active; 'I' for Inactive)
REMARK    1  A    between atoms: C_1  and  C_2
REMARK    2  A    between atoms: C_2  and  C_3
REMARK    3  A    between atoms: C_3  and  N_4
REMARK    4  A    between atoms: N_4  and  S_5
REMARK    5  A    between atoms: S_5  and  C_8
REMARK    6  A    between atoms: C_11  and  O_12
REMARK    7  A    between atoms: O_12  and  C_13
REMARK    8  A    between atoms: C_13  and  C_14
REMARK                            x       y       z     vdW  Elec       q    Type
REMARK                         _______ _______ _______ _____ _____    ______ ____
ROOT
ATOM      1  C   UNL     1       5.716   5.847  17.448  0.00  0.00    +0.000 A 
ATOM      2  C   UNL     1       4.564   6.447  16.942  0.00  0.00    +0.000 A 
ATOM      3  C   UNL     1       3.449   6.583  17.770  0.00  0.00    +0.000 A 
ATOM      4  C   UNL     1       3.473   6.111  19.087  0.00  0.00    +0.000 A 
ATOM      5  C   UNL     1       4.624   5.498  19.583  0.00  0.00    +0.000 A 
ATOM      6  C   UNL     1       5.745   5.350  18.757  0.00  0.00    +0.000 A 
ENDROOT
BRANCH   1   7
ATOM      7  S   UNL     1       7.166   5.683  16.422  0.00  0.00    +0.000 S 
ATOM      8  O   UNL     1       7.826   4.445  16.767  0.00  0.00    +0.000 OA
ATOM      9  O   UNL     1       7.837   6.960  16.461  0.00  0.00    +0.000 OA
BRANCH   7  10
ATOM     10  N   UNL     1       6.483   5.511  14.875  0.00  0.00    +0.000 NA
ATOM     11  H   UNL     1       5.729   6.178  14.722  0.00  0.00    +0.000 HD
BRANCH  10  12
ATOM     12  C   UNL     1       6.147   4.136  14.463  0.00  0.00    +0.000 C 
BRANCH  12  14
ATOM     13  C   UNL     1       5.452   3.251  12.179  0.00  0.00    +0.000 C 
ATOM     14  C   UNL     1       6.553   3.896  13.009  0.00  0.00    +0.000 C 
ENDBRANCH  12  14
ENDBRANCH  10  12
ENDBRANCH   7  10
ENDBRANCH   1   7
BRANCH   4  15
ATOM     15  O   UNL     1       2.326   6.336  19.795  0.00  0.00    +0.000 OA
BRANCH  15  16
ATOM     16  C   UNL     1       1.666   5.191  20.327  0.00  0.00    +0.000 C 
BRANCH  16  17
ATOM     17  C   UNL     1       1.641   4.085  19.267  0.00  0.00    +0.000 C 
ATOM     18  O   UNL     1       0.973   4.235  18.242  0.00  0.00    +0.000 OA
ATOM     19  N   UNL     1       2.413   2.950  19.475  0.00  0.00    +0.000 N 
ATOM     20  C   UNL     1       3.209   2.655  20.667  0.00  0.00    +0.000 C 
ATOM     21  C   UNL     1       4.551   2.015  20.279  0.00  0.00    +0.000 C 
ATOM     22  O   UNL     1       4.372   0.880  19.418  0.00  0.00    +0.000 OA
ATOM     23  C   UNL     1       3.675   1.253  18.218  0.00  0.00    +0.000 C 
ATOM     24  C   UNL     1       2.292   1.819  18.549  0.00  0.00    +0.000 C 
ENDBRANCH  16  17
ENDBRANCH  15  16
ENDBRANCH   4  15
TORSDOF 7
ENDMDL
MODEL 3
REMARK VINA RESULT:      -6.9      3.246      5.086
REMARK  Name = 
REMARK  8 active torsions:
REMARK  status: ('A' for Active; 'I' for Inactive)
REMARK    1  A    between atoms: C_1  and  C_2
REMARK    2  A    between atoms: C_2  and  C_3
REMARK    3  A    between atoms: C_3  and  N_4
REMARK    4  A    between atoms: N_4  and  S_5
REMARK    5  A    between atoms: S_5  and  C_8
REMARK    6  A    between atoms: C_11  and  O_12
REMARK    7  A    between atoms: O_12  and  C_13
REMARK    8  A    between atoms: C_13  and  C_14
REMARK                            x       y       z     vdW  Elec       q    Type
REMARK                         _______ _______ _______ _____ _____    ______ ____
ROOT
ATOM      1  C   UNL     1       5.625   6.030  17.560  0.00  0.00    +0.000 A 
ATOM      2  C   UNL     1       5.531   5.490  18.842  0.00  0.00    +0.000 A 
ATOM      3  C   UNL     1       4.350   5.658  19.565  0.00  0.00    +0.000 A 
ATOM      4  C   UNL     1       3.275   6.374  19.026  0.00  0.00    +0.000 A 
ATOM      5  C   UNL     1       3.381   6.925  17.749  0.00  0.00    +0.000 A 
ATOM      6  C   UNL     1       4.565   6.767  17.018  0.00  0.00    +0.000 A 
ENDROOT
BRANCH   1   7
ATOM      7  S   UNL     1       7.112   5.808  16.601  0.00  0.00    +0.000 S 
ATOM      8  O   UNL     1       7.734   4.570  17.012  0.00  0.00    +0.000 OA
ATOM      9  O   UNL     1       7.807   7.073  16.631  0.00  0.00    +0.000 OA
BRANCH   7  10
ATOM     10  N   UNL     1       6.492   5.601  15.033  0.00  0.00    +0.000 NA
ATOM     11  H   UNL     1       5.548   5.974  14.951  0.00  0.00    +0.000 HD
BRANCH  10  12
ATOM     12  C   UNL     1       6.649   4.258  14.445  0.00  0.00    +0.000 C 
BRANCH  12  14
ATOM     13  C   UNL     1       5.940   3.239  12.221  0.00  0.00    +0.000 C 
ATOM     14  C   UNL     1       5.494   3.951  13.491  0.00  0.00    +0.000 C 
ENDBRANCH  12  14
ENDBRANCH  10  12
ENDBRANCH   7  10
ENDBRANCH   1   7
BRANCH   4  15
ATOM     15  O   UNL     1       2.171   6.436  19.829  0.00  0.00    +0.000 OA
BRANCH  15  16
ATOM     16  C   UNL     1       1.697   5.204  20.363  0.00  0.00    +0.000 C 
BRANCH  16  17
ATOM     17  C   UNL     1       1.673   4.148  19.253  0.00  0.00    +0.000 C 
ATOM     18  O   UNL     1       1.023   4.355  18.227  0.00  0.00    +0.000 OA
ATOM     19  N   UNL     1       2.427   2.995  19.419  0.00  0.00    +0.000 N 
ATOM     20  C   UNL     1       3.202   2.633  20.606  0.00  0.00    +0.000 C 
ATOM     21  C   UNL     1       4.541   1.994  20.208  0.00  0.00    +0.000 C 
ATOM     22  O   UNL     1       4.360   0.902  19.293  0.00  0.00    +0.000 OA
ATOM     23  C   UNL     1       3.685   1.341  18.102  0.00  0.00    +0.000 C 
ATOM     24  C   UNL     1       2.305   1.909  18.439  0.00  0.00    +0.000 C 
ENDBRANCH  16  17
ENDBRANCH  15  16
ENDBRANCH   4  15
TORSDOF 7
ENDMDL
MODEL 4
REMARK VINA RESULT:      -6.9      2.641      3.963
REMARK  Name = 
REMARK  8 active torsions:
REMARK  status: ('A' for Active; 'I' for Inactive)
REMARK    1  A    between atoms: C_1  and  C_2
REMARK    2  A    between atoms: C_2  and  C_3
REMARK    3  A    between atoms: C_3  and  N_4
REMARK    4  A    between atoms: N_4  and  S_5
REMARK    5  A    between atoms: S_5  and  C_8
REMARK    6  A    between atoms: C_11  and  O_12
REMARK    7  A    between atoms: O_12  and  C_13
REMARK    8  A    between atoms: C_13  and  C_14
REMARK                            x       y       z     vdW  Elec       q    Type
REMARK                         _______ _______ _______ _____ _____    ______ ____
ROOT
ATOM      1  C   UNL     1       5.660   4.573  17.368  0.00  0.00    +0.000 A 
ATOM      2  C   UNL     1       4.771   3.774  16.649  0.00  0.00    +0.000 A 
ATOM      3  C   UNL     1       3.944   2.888  17.340  0.00  0.00    +0.000 A 
ATOM      4  C   UNL     1       4.011   2.783  18.734  0.00  0.00    +0.000 A 
ATOM      5  C   UNL     1       4.913   3.576  19.445  0.00  0.00    +0.000 A 
ATOM      6  C   UNL     1       5.752   4.463  18.760  0.00  0.00    +0.000 A 
ENDROOT
BRANCH   1   7
ATOM      7  S   UNL     1       6.711   5.735  16.514  0.00  0.00    +0.000 S 
ATOM      8  O   UNL     1       7.705   6.214  17.447  0.00  0.00    +0.000 OA
ATOM      9  O   UNL     1       5.832   6.622  15.791  0.00  0.00    +0.000 OA
BRANCH   7  10
ATOM     10  N   UNL     1       7.483   4.738  15.375  0.00  0.00    +0.000 NA
ATOM     11  H   UNL     1       8.492   4.723  15.514  0.00  0.00    +0.000 HD
BRANCH  10  12
ATOM     12  C   UNL     1       7.084   4.929  13.969  0.00  0.00    +0.000 C 
BRANCH  12  14
ATOM     13  C   UNL     1       6.386   3.366  12.083  0.00  0.00    +0.000 C 
ATOM     14  C   UNL     1       6.144   3.811  13.519  0.00  0.00    +0.000 C 
ENDBRANCH  12  14
ENDBRANCH  10  12
ENDBRANCH   7  10
ENDBRANCH   1   7
BRANCH   4  15
ATOM     15  O   UNL     1       3.125   1.900  19.283  0.00  0.00    +0.000 OA
BRANCH  15  16
ATOM     16  C   UNL     1       1.754   2.283  19.282  0.00  0.00    +0.000 C 
BRANCH  16  17
ATOM     17  C   UNL     1       1.551   3.437  20.270  0.00  0.00    +0.000 C 
ATOM     18  O   UNL     1       1.435   3.198  21.473  0.00  0.00    +0.000 OA
ATOM     19  N   UNL     1       1.547   4.736  19.780  0.00  0.00    +0.000 N 
ATOM     20  C   UNL     1       1.639   5.128  18.374  0.00  0.00    +0.000 C 
ATOM     21  C   UNL     1       2.536   6.364  18.212  0.00  0.00    +0.000 C 
ATOM     22  O   UNL     1       2.129   7.436  19.076  0.00  0.00    +0.000 OA
ATOM     23  C   UNL     1       2.158   7.022  20.452  0.00  0.00    +0.000 C 
ATOM     24  C   UNL     1       1.211   5.843  20.682  0.00  0.00    +0.000 C 
ENDBRANCH  16  17
ENDBRANCH  15  16
ENDBRANCH   4  15
TORSDOF 7
ENDMDL
MODEL 5
REMARK VINA RESULT:      -6.9      2.754      3.757
REMARK  Name = 
REMARK  8 active torsions:
REMARK  status: ('A' for Active; 'I' for Inactive)
REMARK    1  A    between atoms: C_1  and  C_2
REMARK    2  A    between atoms: C_2  and  C_3
REMARK    3  A    between atoms: C_3  and  N_4
REMARK    4  A    between atoms: N_4  and  S_5
REMARK    5  A    between atoms: S_5  and  C_8
REMARK    6  A    between atoms: C_11  and  O_12
REMARK    7  A    between atoms: O_12  and  C_13
REMARK    8  A    between atoms: C_13  and  C_14
REMARK                            x       y       z     vdW  Elec       q    Type
REMARK                         _______ _______ _______ _____ _____    ______ ____
ROOT
ATOM      1  C   UNL     1       3.886   5.319  18.085  0.00  0.00    +0.000 A 
ATOM      2  C   UNL     1       3.806   6.583  17.501  0.00  0.00    +0.000 A 
ATOM      3  C   UNL     1       3.062   7.578  18.135  0.00  0.00    +0.000 A 
ATOM      4  C   UNL     1       2.388   7.316  19.332  0.00  0.00    +0.000 A 
ATOM      5  C   UNL     1       2.460   6.045  19.904  0.00  0.00    +0.000 A 
ATOM      6  C   UNL     1       3.198   5.037  19.271  0.00  0.00    +0.000 A 
ENDROOT
BRANCH   1   7
ATOM      7  S   UNL     1       4.852   4.034  17.311  0.00  0.00    +0.000 S 
ATOM      8  O   UNL     1       5.239   4.491  15.995  0.00  0.00    +0.000 OA
ATOM      9  O   UNL     1       4.133   2.801  17.525  0.00  0.00    +0.000 OA
BRANCH   7  10
ATOM     10  N   UNL     1       6.237   3.996  18.293  0.00  0.00    +0.000 NA
ATOM     11  H   UNL     1       6.015   4.213  19.263  0.00  0.00    +0.000 HD
BRANCH  10  12
ATOM     12  C   UNL     1       7.416   4.719  17.781  0.00  0.00    +0.000 C 
BRANCH  12  14
ATOM     13  C   UNL     1       7.509   7.256  17.570  0.00  0.00    +0.000 C 
ATOM     14  C   UNL     1       7.582   6.056  18.505  0.00  0.00    +0.000 C 
ENDBRANCH  12  14
ENDBRANCH  10  12
ENDBRANCH   7  10
ENDBRANCH   1   7
BRANCH   4  15
ATOM     15  O   UNL     1       1.724   8.387  19.860  0.00  0.00    +0.000 OA
BRANCH  15  16
ATOM     16  C   UNL     1       0.923   8.141  21.011  0.00  0.00    +0.000 C 
BRANCH  16  17
ATOM     17  C   UNL     1       0.761   9.444  21.802  0.00  0.00    +0.000 C 
ATOM     18  O   UNL     1       1.347   9.583  22.877  0.00  0.00    +0.000 OA
ATOM     19  N   UNL     1      -0.016  10.457  21.257  0.00  0.00    +0.000 N 
ATOM     20  C   UNL     1      -0.781  10.383  20.012  0.00  0.00    +0.000 C 
ATOM     21  C   UNL     1      -0.677  11.702  19.232  0.00  0.00    +0.000 C 
ATOM     22  O   UNL     1      -1.023  12.833  20.046  0.00  0.00    +0.000 OA
ATOM     23  C   UNL     1      -0.170  12.912  21.200  0.00  0.00    +0.000 C 
ATOM     24  C   UNL     1      -0.303  11.652  22.058  0.00  0.00    +0.000 C 
ENDBRANCH  16  17
ENDBRANCH  15  16
ENDBRANCH   4  15
TORSDOF 7
ENDMDL
MODEL 6
REMARK VINA RESULT:      -6.9      3.087      8.223
REMARK  Name = 
REMARK  8 active torsions:
REMARK  status: ('A' for Active; 'I' for Inactive)
REMARK    1  A    between atoms: C_1  and  C_2
REMARK    2  A    between atoms: C_2  and  C_3
REMARK    3  A    between atoms: C_3  and  N_4
REMARK    4  A    between atoms: N_4  and  S_5
REMARK    5  A    between atoms: S_5  and  C_8
REMARK    6  A    between atoms: C_11  and  O_12
REMARK    7  A    between atoms: O_12  and  C_13
REMARK    8  A    between atoms: C_13  and  C_14
REMARK                            x       y       z     vdW  Elec       q    Type
REMARK                         _______ _______ _______ _____ _____    ______ ____
ROOT
ATOM      1  C   UNL     1       1.659   8.757  19.049  0.00  0.00    +0.000 A 
ATOM      2  C   UNL     1       2.196   8.031  17.986  0.00  0.00    +0.000 A 
ATOM      3  C   UNL     1       2.592   6.710  18.197  0.00  0.00    +0.000 A 
ATOM      4  C   UNL     1       2.471   6.119  19.458  0.00  0.00    +0.000 A 
ATOM      5  C   UNL     1       1.947   6.855  20.522  0.00  0.00    +0.000 A 
ATOM      6  C   UNL     1       1.554   8.184  20.322  0.00  0.00    +0.000 A 
ENDROOT
BRANCH   1   7
ATOM      7  S   UNL     1       1.120  10.440  18.804  0.00  0.00    +0.000 S 
ATOM      8  O   UNL     1       2.195  11.171  18.172  0.00  0.00    +0.000 OA
ATOM      9  O   UNL     1       0.522  10.860  20.048  0.00  0.00    +0.000 OA
BRANCH   7  10
ATOM     10  N   UNL     1      -0.132  10.246  17.673  0.00  0.00    +0.000 NA
ATOM     11  H   UNL     1       0.162  10.518  16.737  0.00  0.00    +0.000 HD
BRANCH  10  12
ATOM     12  C   UNL     1      -1.447  10.792  18.059  0.00  0.00    +0.000 C 
BRANCH  12  14
ATOM     13  C   UNL     1      -3.008  10.105  16.168  0.00  0.00    +0.000 C 
ATOM     14  C   UNL     1      -2.570   9.859  17.606  0.00  0.00    +0.000 C 
ENDBRANCH  12  14
ENDBRANCH  10  12
ENDBRANCH   7  10
ENDBRANCH   1   7
BRANCH   4  15
ATOM     15  O   UNL     1       2.868   4.812  19.516  0.00  0.00    +0.000 OA
BRANCH  15  16
ATOM     16  C   UNL     1       4.263   4.560  19.382  0.00  0.00    +0.000 C 
BRANCH  16  17
ATOM     17  C   UNL     1       4.549   4.046  17.967  0.00  0.00    +0.000 C 
ATOM     18  O   UNL     1       3.750   3.284  17.420  0.00  0.00    +0.000 OA
ATOM     19  N   UNL     1       5.694   4.491  17.319  0.00  0.00    +0.000 N 
ATOM     20  C   UNL     1       6.724   5.361  17.888  0.00  0.00    +0.000 C 
ATOM     21  C   UNL     1       7.206   6.383  16.847  0.00  0.00    +0.000 C 
ATOM     22  O   UNL     1       7.608   5.750  15.623  0.00  0.00    +0.000 OA
ATOM     23  C   UNL     1       6.524   4.994  15.059  0.00  0.00    +0.000 C 
ATOM     24  C   UNL     1       6.063   3.903  16.028  0.00  0.00    +0.000 C 
ENDBRANCH  16  17
ENDBRANCH  15  16
ENDBRANCH   4  15
TORSDOF 7
ENDMDL
MODEL 7
REMARK VINA RESULT:      -6.8      1.646      2.290
REMARK  Name = 
REMARK  8 active torsions:
REMARK  status: ('A' for Active; 'I' for Inactive)
REMARK    1  A    between atoms: C_1  and  C_2
REMARK    2  A    between atoms: C_2  and  C_3
REMARK    3  A    between atoms: C_3  and  N_4
REMARK    4  A    between atoms: N_4  and  S_5
REMARK    5  A    between atoms: S_5  and  C_8
REMARK    6  A    between atoms: C_11  and  O_12
REMARK    7  A    between atoms: O_12  and  C_13
REMARK    8  A    between atoms: C_13  and  C_14
REMARK                            x       y       z     vdW  Elec       q    Type
REMARK                         _______ _______ _______ _____ _____    ______ ____
ROOT
ATOM      1  C   UNL     1       5.514   5.618  17.636  0.00  0.00    +0.000 A 
ATOM      2  C   UNL     1       4.874   6.746  17.123  0.00  0.00    +0.000 A 
ATOM      3  C   UNL     1       3.736   7.232  17.767  0.00  0.00    +0.000 A 
ATOM      4  C   UNL     1       3.226   6.593  18.902  0.00  0.00    +0.000 A 
ATOM      5  C   UNL     1       3.863   5.456  19.402  0.00  0.00    +0.000 A 
ATOM      6  C   UNL     1       5.001   4.956  18.758  0.00  0.00    +0.000 A 
ENDROOT
BRANCH   1   7
ATOM      7  S   UNL     1       6.986   4.988  16.850  0.00  0.00    +0.000 S 
ATOM      8  O   UNL     1       7.822   4.392  17.867  0.00  0.00    +0.000 OA
ATOM      9  O   UNL     1       7.456   6.033  15.972  0.00  0.00    +0.000 OA
BRANCH   7  10
ATOM     10  N   UNL     1       6.360   3.744  15.876  0.00  0.00    +0.000 NA
ATOM     11  H   UNL     1       7.076   3.060  15.635  0.00  0.00    +0.000 HD
BRANCH  10  12
ATOM     12  C   UNL     1       5.540   4.169  14.727  0.00  0.00    +0.000 C 
BRANCH  12  14
ATOM     13  C   UNL     1       5.307   3.372  12.319  0.00  0.00    +0.000 C 
ATOM     14  C   UNL     1       6.253   3.853  13.412  0.00  0.00    +0.000 C 
ENDBRANCH  12  14
ENDBRANCH  10  12
ENDBRANCH   7  10
ENDBRANCH   1   7
BRANCH   4  15
ATOM     15  O   UNL     1       2.127   7.193  19.449  0.00  0.00    +0.000 OA
BRANCH  15  16
ATOM     16  C   UNL     1       1.819   8.506  18.992  0.00  0.00    +0.000 C 
BRANCH  16  17
ATOM     17  C   UNL     1       0.966   9.220  20.045  0.00  0.00    +0.000 C 
ATOM     18  O   UNL     1       0.549   8.594  21.022  0.00  0.00    +0.000 OA
ATOM     19  N   UNL     1       0.719  10.577  19.889  0.00  0.00    +0.000 N 
ATOM     20  C   UNL     1       1.132  11.405  18.755  0.00  0.00    +0.000 C 
ATOM     21  C   UNL     1       1.607  12.785  19.234  0.00  0.00    +0.000 C 
ATOM     22  O   UNL     1       0.635  13.421  20.078  0.00  0.00    +0.000 OA
ATOM     23  C   UNL     1       0.346  12.607  21.228  0.00  0.00    +0.000 C 
ATOM     24  C   UNL     1      -0.212  11.248  20.803  0.00  0.00    +0.000 C 
ENDBRANCH  16  17
ENDBRANCH  15  16
ENDBRANCH   4  15
TORSDOF 7
ENDMDL
MODEL 8
REMARK VINA RESULT:      -6.8      1.347      1.811
REMARK  Name = 
REMARK  8 active torsions:
REMARK  status: ('A' for Active; 'I' for Inactive)
REMARK    1  A    between atoms: C_1  and  C_2
REMARK    2  A    between atoms: C_2  and  C_3
REMARK    3  A    between atoms: C_3  and  N_4
REMARK    4  A    between atoms: N_4  and  S_5
REMARK    5  A    between atoms: S_5  and  C_8
REMARK    6  A    between atoms: C_11  and  O_12
REMARK    7  A    between atoms: O_12  and  C_13
REMARK    8  A    between atoms: C_13  and  C_14
REMARK                            x       y       z     vdW  Elec       q    Type
REMARK                         _______ _______ _______ _____ _____    ______ ____
ROOT
ATOM      1  C   UNL     1       5.743   5.437  17.130  0.00  0.00    +0.000 A 
ATOM      2  C   UNL     1       5.310   4.790  18.287  0.00  0.00    +0.000 A 
ATOM      3  C   UNL     1       4.204   5.293  18.973  0.00  0.00    +0.000 A 
ATOM      4  C   UNL     1       3.544   6.442  18.524  0.00  0.00    +0.000 A 
ATOM      5  C   UNL     1       3.992   7.094  17.374  0.00  0.00    +0.000 A 
ATOM      6  C   UNL     1       5.106   6.601  16.683  0.00  0.00    +0.000 A 
ENDROOT
BRANCH   1   7
ATOM      7  S   UNL     1       7.138   4.802  16.217  0.00  0.00    +0.000 S 
ATOM      8  O   UNL     1       8.023   4.140  17.148  0.00  0.00    +0.000 OA
ATOM      9  O   UNL     1       7.577   5.870  15.352  0.00  0.00    +0.000 OA
BRANCH   7  10
ATOM     10  N   UNL     1       6.408   3.619  15.240  0.00  0.00    +0.000 NA
ATOM     11  H   UNL     1       7.062   2.876  14.999  0.00  0.00    +0.000 HD
BRANCH  10  12
ATOM     12  C   UNL     1       5.630   4.115  14.090  0.00  0.00    +0.000 C 
BRANCH  12  14
ATOM     13  C   UNL     1       7.150   4.236  12.051  0.00  0.00    +0.000 C 
ATOM     14  C   UNL     1       6.090   3.440  12.798  0.00  0.00    +0.000 C 
ENDBRANCH  12  14
ENDBRANCH  10  12
ENDBRANCH   7  10
ENDBRANCH   1   7
BRANCH   4  15
ATOM     15  O   UNL     1       2.461   6.807  19.273  0.00  0.00    +0.000 OA
BRANCH  15  16
ATOM     16  C   UNL     1       1.972   8.131  19.088  0.00  0.00    +0.000 C 
BRANCH  16  17
ATOM     17  C   UNL     1       1.298   8.605  20.381  0.00  0.00    +0.000 C 
ATOM     18  O   UNL     1       1.590   8.073  21.453  0.00  0.00    +0.000 OA
ATOM     19  N   UNL     1       0.398   9.660  20.310  0.00  0.00    +0.000 N 
ATOM     20  C   UNL     1      -0.046  10.336  19.091  0.00  0.00    +0.000 C 
ATOM     21  C   UNL     1      -0.155  11.851  19.319  0.00  0.00    +0.000 C 
ATOM     22  O   UNL     1      -0.959  12.162  20.467  0.00  0.00    +0.000 OA
ATOM     23  C   UNL     1      -0.415  11.556  21.651  0.00  0.00    +0.000 C 
ATOM     24  C   UNL     1      -0.366  10.033  21.506  0.00  0.00    +0.000 C 
ENDBRANCH  16  17
ENDBRANCH  15  16
ENDBRANCH   4  15
TORSDOF 7
ENDMDL
MODEL 9
REMARK VINA RESULT:      -6.8      1.708      2.275
REMARK  Name = 
REMARK  8 active torsions:
REMARK  status: ('A' for Active; 'I' for Inactive)
REMARK    1  A    between atoms: C_1  and  C_2
REMARK    2  A    between atoms: C_2  and  C_3
REMARK    3  A    between atoms: C_3  and  N_4
REMARK    4  A    between atoms: N_4  and  S_5
REMARK    5  A    between atoms: S_5  and  C_8
REMARK    6  A    between atoms: C_11  and  O_12
REMARK    7  A    between atoms: O_12  and  C_13
REMARK    8  A    between atoms: C_13  and  C_14
REMARK                            x       y       z     vdW  Elec       q    Type
REMARK                         _______ _______ _______ _____ _____    ______ ____
ROOT
ATOM      1  C   UNL     1       5.404   5.735  17.935  0.00  0.00    +0.000 A 
ATOM      2  C   UNL     1       4.956   5.203  19.143  0.00  0.00    +0.000 A 
ATOM      3  C   UNL     1       3.741   5.643  19.669  0.00  0.00    +0.000 A 
ATOM      4  C   UNL     1       2.985   6.618  19.009  0.00  0.00    +0.000 A 
ATOM      5  C   UNL     1       3.447   7.156  17.807  0.00  0.00    +0.000 A 
ATOM      6  C   UNL     1       4.668   6.726  17.275  0.00  0.00    +0.000 A 
ENDROOT
BRANCH   1   7
ATOM      7  S   UNL     1       6.941   5.172  17.224  0.00  0.00    +0.000 S 
ATOM      8  O   UNL     1       7.654   4.417  18.229  0.00  0.00    +0.000 OA
ATOM      9  O   UNL     1       7.519   6.311  16.553  0.00  0.00    +0.000 OA
BRANCH   7  10
ATOM     10  N   UNL     1       6.401   4.093  16.028  0.00  0.00    +0.000 NA
ATOM     11  H   UNL     1       6.576   3.124  16.290  0.00  0.00    +0.000 HD
BRANCH  10  12
ATOM     12  C   UNL     1       6.793   4.410  14.643  0.00  0.00    +0.000 C 
BRANCH  12  14
ATOM     13  C   UNL     1       6.472   3.600  12.250  0.00  0.00    +0.000 C 
ATOM     14  C   UNL     1       5.878   3.696  13.648  0.00  0.00    +0.000 C 
ENDBRANCH  12  14
ENDBRANCH  10  12
ENDBRANCH   7  10
ENDBRANCH   1   7
BRANCH   4  15
ATOM     15  O   UNL     1       1.803   6.934  19.619  0.00  0.00    +0.000 OA
BRANCH  15  16
ATOM     16  C   UNL     1       1.861   7.896  20.666  0.00  0.00    +0.000 C 
BRANCH  16  17
ATOM     17  C   UNL     1       0.554   8.697  20.689  0.00  0.00    +0.000 C 
ATOM     18  O   UNL     1      -0.328   8.404  21.497  0.00  0.00    +0.000 OA
ATOM     19  N   UNL     1       0.419   9.768  19.816  0.00  0.00    +0.000 N 
ATOM     20  C   UNL     1       1.384  10.177  18.795  0.00  0.00    +0.000 C 
ATOM     21  C   UNL     1       1.490  11.708  18.731  0.00  0.00    +0.000 C 
ATOM     22  O   UNL     1       0.204  12.327  18.579  0.00  0.00    +0.000 OA
ATOM     23  C   UNL     1      -0.667  11.970  19.665  0.00  0.00    +0.000 C 
ATOM     24  C   UNL     1      -0.873  10.455  19.718  0.00  0.00    +0.000 C 
ENDBRANCH  16  17
ENDBRANCH  15  16
ENDBRANCH   4  15
TORSDOF 7
ENDMDL
