MODEL 1
REMARK VINA RESULT:      -8.1      0.000      0.000
REMARK  Name = 
REMARK  8 active torsions:
REMARK  status: ('A' for Active; 'I' for Inactive)
REMARK    1  A    between atoms: C_1  and  N_2
REMARK    2  A    between atoms: N_2  and  C_3
REMARK    3  A    between atoms: N_2  and  S_4
REMARK    4  A    between atoms: S_4  and  C_7
REMARK    5  A    between atoms: C_10  and  N_11
REMARK    6  A    between atoms: C_15  and  C_16
REMARK    7  A    between atoms: C_16  and  C_18
REMARK    8  A    between atoms: C_24  and  N_25
REMARK                            x       y       z     vdW  Elec       q    Type
REMARK                         _______ _______ _______ _____ _____    ______ ____
ROOT
ATOM      1  N   UNL     1       0.524  10.863  18.239  0.00  0.00    +0.000 N 
ATOM      2  C   UNL     1       1.251   9.703  18.583  0.00  0.00    +0.000 A 
ATOM      3  C   UNL     1       1.965   9.059  17.581  0.00  0.00    +0.000 A 
ATOM      4  C   UNL     1       2.564   7.831  17.853  0.00  0.00    +0.000 A 
ATOM      5  C   UNL     1       2.460   7.278  19.134  0.00  0.00    +0.000 A 
ATOM      6  C   UNL     1       1.742   7.988  20.096  0.00  0.00    +0.000 A 
ATOM      7  N   UNL     1       1.172   9.180  19.826  0.00  0.00    +0.000 NA
ATOM      8  H   UNL     1       1.104  11.533  17.749  0.00  0.00    +0.000 HD
ENDROOT
BRANCH   1  12
ATOM      9  C   UNL     1      -2.680  12.655  20.309  0.00  0.00    +0.000 A 
ATOM     10  C   UNL     1      -2.949  11.893  19.179  0.00  0.00    +0.000 A 
ATOM     11  C   UNL     1      -1.890  11.305  18.489  0.00  0.00    +0.000 A 
ATOM     12  C   UNL     1      -0.562  11.446  18.924  0.00  0.00    +0.000 A 
ATOM     13  C   UNL     1      -0.313  12.301  20.008  0.00  0.00    +0.000 A 
ATOM     14  C   UNL     1      -1.364  12.909  20.699  0.00  0.00    +0.000 A 
BRANCH   9  15
ATOM     15  S   UNL     1      -4.032  13.271  21.291  0.00  0.00    +0.000 S 
ATOM     16  O   UNL     1      -5.005  12.211  21.423  0.00  0.00    +0.000 OA
ATOM     17  O   UNL     1      -4.398  14.567  20.754  0.00  0.00    +0.000 OA
BRANCH  15  19
ATOM     18  C   UNL     1      -3.381  14.874  23.372  0.00  0.00    +0.000 C 
ATOM     19  N   UNL     1      -3.285  13.513  22.809  0.00  0.00    +0.000 NA
ATOM     20  C   UNL     1      -3.504  12.458  23.815  0.00  0.00    +0.000 C 
ENDBRANCH  15  19
ENDBRANCH   9  15
ENDBRANCH   1  12
BRANCH   6  21
ATOM     21  N   UNL     1       1.438   7.493  21.350  0.00  0.00    +0.000 N 
ATOM     22  H   UNL     1       0.929   8.118  21.965  0.00  0.00    +0.000 HD
ATOM     23  H   UNL     1       1.142   6.527  21.320  0.00  0.00    +0.000 HD
ENDBRANCH   6  21
BRANCH   5  24
ATOM     24  C   UNL     1       3.108   5.981  19.465  0.00  0.00    +0.000 C 
ATOM     25  O   UNL     1       4.324   5.911  19.628  0.00  0.00    +0.000 OA
BRANCH  24  26
ATOM     26  C   UNL     1       2.322   4.725  19.580  0.00  0.00    +0.000 A 
ATOM     27  C   UNL     1       1.803   4.157  18.409  0.00  0.00    +0.000 A 
ATOM     28  C   UNL     1       1.040   2.992  18.475  0.00  0.00    +0.000 A 
ATOM     29  C   UNL     1       0.790   2.392  19.708  0.00  0.00    +0.000 A 
ATOM     30  C   UNL     1       1.287   2.963  20.880  0.00  0.00    +0.000 A 
ATOM     31  C   UNL     1       2.041   4.137  20.819  0.00  0.00    +0.000 A 
ENDBRANCH  24  26
ENDBRANCH   5  24
TORSDOF 6
ENDMDL
MODEL 2
REMARK VINA RESULT:      -8.1      1.232      1.877
REMARK  Name = 
REMARK  8 active torsions:
REMARK  status: ('A' for Active; 'I' for Inactive)
REMARK    1  A    between atoms: C_1  and  N_2
REMARK    2  A    between atoms: N_2  and  C_3
REMARK    3  A    between atoms: N_2  and  S_4
REMARK    4  A    between atoms: S_4  and  C_7
REMARK    5  A    between atoms: C_10  and  N_11
REMARK    6  A    between atoms: C_15  and  C_16
REMARK    7  A    between atoms: C_16  and  C_18
REMARK    8  A    between atoms: C_24  and  N_25
REMARK                            x       y       z     vdW  Elec       q    Type
REMARK                         _______ _______ _______ _____ _____    ______ ____
ROOT
ATOM      1  N   UNL     1       0.473  10.956  18.339  0.00  0.00    +0.000 N 
ATOM      2  C   UNL     1       1.201   9.786  18.650  0.00  0.00    +0.000 A 
ATOM      3  C   UNL     1       1.913   9.170  17.628  0.00  0.00    +0.000 A 
ATOM      4  C   UNL     1       2.513   7.936  17.866  0.00  0.00    +0.000 A 
ATOM      5  C   UNL     1       2.413   7.349  19.131  0.00  0.00    +0.000 A 
ATOM      6  C   UNL     1       1.697   8.031  20.114  0.00  0.00    +0.000 A 
ATOM      7  N   UNL     1       1.127   9.230  19.878  0.00  0.00    +0.000 NA
ATOM      8  H   UNL     1       1.052  11.638  17.867  0.00  0.00    +0.000 HD
ENDROOT
BRANCH   1  12
ATOM      9  C   UNL     1      -2.726  12.687  20.469  0.00  0.00    +0.000 A 
ATOM     10  C   UNL     1      -2.995  11.986  19.299  0.00  0.00    +0.000 A 
ATOM     11  C   UNL     1      -1.937  11.419  18.590  0.00  0.00    +0.000 A 
ATOM     12  C   UNL     1      -0.611  11.519  19.043  0.00  0.00    +0.000 A 
ATOM     13  C   UNL     1      -0.361  12.315  20.170  0.00  0.00    +0.000 A 
ATOM     14  C   UNL     1      -1.410  12.902  20.883  0.00  0.00    +0.000 A 
BRANCH   9  15
ATOM     15  S   UNL     1      -4.079  13.272  21.468  0.00  0.00    +0.000 S 
ATOM     16  O   UNL     1      -3.892  14.689  21.684  0.00  0.00    +0.000 OA
ATOM     17  O   UNL     1      -4.221  12.352  22.580  0.00  0.00    +0.000 OA
BRANCH  15  19
ATOM     18  C   UNL     1      -6.438  12.091  20.864  0.00  0.00    +0.000 C 
ATOM     19  N   UNL     1      -5.412  13.054  20.421  0.00  0.00    +0.000 NA
ATOM     20  C   UNL     1      -5.988  14.282  19.841  0.00  0.00    +0.000 C 
ENDBRANCH  15  19
ENDBRANCH   9  15
ENDBRANCH   1  12
BRANCH   6  21
ATOM     21  N   UNL     1       1.397   7.502  21.355  0.00  0.00    +0.000 N 
ATOM     22  H   UNL     1       0.740   6.729  21.364  0.00  0.00    +0.000 HD
ATOM     23  H   UNL     1       2.213   7.426  21.947  0.00  0.00    +0.000 HD
ENDBRANCH   6  21
BRANCH   5  24
ATOM     24  C   UNL     1       3.063   6.043  19.425  0.00  0.00    +0.000 C 
ATOM     25  O   UNL     1       4.274   5.976  19.622  0.00  0.00    +0.000 OA
BRANCH  24  26
ATOM     26  C   UNL     1       2.286   4.777  19.460  0.00  0.00    +0.000 A 
ATOM     27  C   UNL     1       2.047   4.178  20.703  0.00  0.00    +0.000 A 
ATOM     28  C   UNL     1       1.343   2.976  20.778  0.00  0.00    +0.000 A 
ATOM     29  C   UNL     1       0.877   2.369  19.613  0.00  0.00    +0.000 A 
ATOM     30  C   UNL     1       1.129   2.949  18.370  0.00  0.00    +0.000 A 
ATOM     31  C   UNL     1       1.845   4.145  18.290  0.00  0.00    +0.000 A 
ENDBRANCH  24  26
ENDBRANCH   5  24
TORSDOF 6
ENDMDL
MODEL 3
REMARK VINA RESULT:      -8.0      3.625      9.369
REMARK  Name = 
REMARK  8 active torsions:
REMARK  status: ('A' for Active; 'I' for Inactive)
REMARK    1  A    between atoms: C_1  and  N_2
REMARK    2  A    between atoms: N_2  and  C_3
REMARK    3  A    between atoms: N_2  and  S_4
REMARK    4  A    between atoms: S_4  and  C_7
REMARK    5  A    between atoms: C_10  and  N_11
REMARK    6  A    between atoms: C_15  and  C_16
REMARK    7  A    between atoms: C_16  and  C_18
REMARK    8  A    between atoms: C_24  and  N_25
REMARK                            x       y       z     vdW  Elec       q    Type
REMARK                         _______ _______ _______ _____ _____    ______ ____
ROOT
ATOM      1  N   UNL     1       0.873  10.150  19.426  0.00  0.00    +0.000 N 
ATOM      2  C   UNL     1      -0.388  10.588  18.965  0.00  0.00    +0.000 A 
ATOM      3  C   UNL     1      -1.091  11.491  19.751  0.00  0.00    +0.000 A 
ATOM      4  C   UNL     1      -2.399  11.823  19.402  0.00  0.00    +0.000 A 
ATOM      5  C   UNL     1      -2.972  11.264  18.255  0.00  0.00    +0.000 A 
ATOM      6  C   UNL     1      -2.201  10.377  17.504  0.00  0.00    +0.000 A 
ATOM      7  N   UNL     1      -0.934  10.068  17.845  0.00  0.00    +0.000 NA
ATOM      8  H   UNL     1       1.471  10.930  19.668  0.00  0.00    +0.000 HD
ENDROOT
BRANCH   1  12
ATOM      9  C   UNL     1       3.020   6.707  18.283  0.00  0.00    +0.000 A 
ATOM     10  C   UNL     1       2.437   6.751  19.544  0.00  0.00    +0.000 A 
ATOM     11  C   UNL     1       1.732   7.892  19.926  0.00  0.00    +0.000 A 
ATOM     12  C   UNL     1       1.578   8.986  19.058  0.00  0.00    +0.000 A 
ATOM     13  C   UNL     1       2.260   8.953  17.833  0.00  0.00    +0.000 A 
ATOM     14  C   UNL     1       2.982   7.822  17.443  0.00  0.00    +0.000 A 
BRANCH   9  15
ATOM     15  S   UNL     1       3.777   5.197  17.723  0.00  0.00    +0.000 S 
ATOM     16  O   UNL     1       4.710   5.530  16.671  0.00  0.00    +0.000 OA
ATOM     17  O   UNL     1       2.713   4.235  17.509  0.00  0.00    +0.000 OA
BRANCH  15  19
ATOM     18  C   UNL     1       4.561   3.290  19.477  0.00  0.00    +0.000 C 
ATOM     19  N   UNL     1       4.665   4.714  19.101  0.00  0.00    +0.000 NA
ATOM     20  C   UNL     1       6.040   5.235  19.202  0.00  0.00    +0.000 C 
ENDBRANCH  15  19
ENDBRANCH   9  15
ENDBRANCH   1  12
BRANCH   6  21
ATOM     21  N   UNL     1      -2.690   9.645  16.439  0.00  0.00    +0.000 N 
ATOM     22  H   UNL     1      -3.314   8.879  16.672  0.00  0.00    +0.000 HD
ATOM     23  H   UNL     1      -2.945  10.230  15.655  0.00  0.00    +0.000 HD
ENDBRANCH   6  21
BRANCH   5  24
ATOM     24  C   UNL     1      -4.357  11.615  17.840  0.00  0.00    +0.000 C 
ATOM     25  O   UNL     1      -4.605  11.914  16.675  0.00  0.00    +0.000 OA
BRANCH  24  26
ATOM     26  C   UNL     1      -5.477  11.650  18.816  0.00  0.00    +0.000 A 
ATOM     27  C   UNL     1      -6.268  10.504  18.960  0.00  0.00    +0.000 A 
ATOM     28  C   UNL     1      -7.345  10.502  19.847  0.00  0.00    +0.000 A 
ATOM     29  C   UNL     1      -7.635  11.645  20.591  0.00  0.00    +0.000 A 
ATOM     30  C   UNL     1      -6.864  12.797  20.437  0.00  0.00    +0.000 A 
ATOM     31  C   UNL     1      -5.794  12.806  19.540  0.00  0.00    +0.000 A 
ENDBRANCH  24  26
ENDBRANCH   5  24
TORSDOF 6
ENDMDL
MODEL 4
REMARK VINA RESULT:      -8.0      0.543      1.071
REMARK  Name = 
REMARK  8 active torsions:
REMARK  status: ('A' for Active; 'I' for Inactive)
REMARK    1  A    between atoms: C_1  and  N_2
REMARK    2  A    between atoms: N_2  and  C_3
REMARK    3  A    between atoms: N_2  and  S_4
REMARK    4  A    between atoms: S_4  and  C_7
REMARK    5  A    between atoms: C_10  and  N_11
REMARK    6  A    between atoms: C_15  and  C_16
REMARK    7  A    between atoms: C_16  and  C_18
REMARK    8  A    between atoms: C_24  and  N_25
REMARK                            x       y       z     vdW  Elec       q    Type
REMARK                         _______ _______ _______ _____ _____    ______ ____
ROOT
ATOM      1  N   UNL     1       0.525  10.781  18.382  0.00  0.00    +0.000 N 
ATOM      2  C   UNL     1       1.273   9.613  18.649  0.00  0.00    +0.000 A 
ATOM      3  C   UNL     1       1.957   9.022  17.595  0.00  0.00    +0.000 A 
ATOM      4  C   UNL     1       2.576   7.790  17.791  0.00  0.00    +0.000 A 
ATOM      5  C   UNL     1       2.522   7.180  19.049  0.00  0.00    +0.000 A 
ATOM      6  C   UNL     1       1.832   7.839  20.066  0.00  0.00    +0.000 A 
ATOM      7  N   UNL     1       1.243   9.036  19.870  0.00  0.00    +0.000 NA
ATOM      8  H   UNL     1       1.081  11.477  17.903  0.00  0.00    +0.000 HD
ENDROOT
BRANCH   1  12
ATOM      9  C   UNL     1      -2.708  12.362  20.577  0.00  0.00    +0.000 A 
ATOM     10  C   UNL     1      -1.471  12.231  21.197  0.00  0.00    +0.000 A 
ATOM     11  C   UNL     1      -0.403  11.702  20.474  0.00  0.00    +0.000 A 
ATOM     12  C   UNL     1      -0.542  11.321  19.130  0.00  0.00    +0.000 A 
ATOM     13  C   UNL     1      -1.824  11.372  18.562  0.00  0.00    +0.000 A 
ATOM     14  C   UNL     1      -2.907  11.886  19.280  0.00  0.00    +0.000 A 
BRANCH   9  15
ATOM     15  S   UNL     1      -4.033  13.187  21.434  0.00  0.00    +0.000 S 
ATOM     16  O   UNL     1      -5.131  12.256  21.557  0.00  0.00    +0.000 OA
ATOM     17  O   UNL     1      -4.210  14.482  20.806  0.00  0.00    +0.000 OA
BRANCH  15  19
ATOM     18  C   UNL     1      -3.124  14.835  23.379  0.00  0.00    +0.000 C 
ATOM     19  N   UNL     1      -3.354  13.432  22.983  0.00  0.00    +0.000 NA
ATOM     20  C   UNL     1      -3.912  12.611  24.073  0.00  0.00    +0.000 C 
ENDBRANCH  15  19
ENDBRANCH   9  15
ENDBRANCH   1  12
BRANCH   6  21
ATOM     21  N   UNL     1       1.577   7.285  21.307  0.00  0.00    +0.000 N 
ATOM     22  H   UNL     1       0.799   6.636  21.354  0.00  0.00    +0.000 HD
ATOM     23  H   UNL     1       2.424   7.032  21.795  0.00  0.00    +0.000 HD
ENDBRANCH   6  21
BRANCH   5  24
ATOM     24  C   UNL     1       3.193   5.876  19.300  0.00  0.00    +0.000 C 
ATOM     25  O   UNL     1       4.371   5.833  19.645  0.00  0.00    +0.000 OA
BRANCH  24  26
ATOM     26  C   UNL     1       2.481   4.585  19.113  0.00  0.00    +0.000 A 
ATOM     27  C   UNL     1       2.870   3.759  18.052  0.00  0.00    +0.000 A 
ATOM     28  C   UNL     1       2.211   2.550  17.827  0.00  0.00    +0.000 A 
ATOM     29  C   UNL     1       1.161   2.165  18.658  0.00  0.00    +0.000 A 
ATOM     30  C   UNL     1       0.754   2.993  19.704  0.00  0.00    +0.000 A 
ATOM     31  C   UNL     1       1.403   4.209  19.925  0.00  0.00    +0.000 A 
ENDBRANCH  24  26
ENDBRANCH   5  24
TORSDOF 6
ENDMDL
MODEL 5
REMARK VINA RESULT:      -8.0      3.341      9.102
REMARK  Name = 
REMARK  8 active torsions:
REMARK  status: ('A' for Active; 'I' for Inactive)
REMARK    1  A    between atoms: C_1  and  N_2
REMARK    2  A    between atoms: N_2  and  C_3
REMARK    3  A    between atoms: N_2  and  S_4
REMARK    4  A    between atoms: S_4  and  C_7
REMARK    5  A    between atoms: C_10  and  N_11
REMARK    6  A    between atoms: C_15  and  C_16
REMARK    7  A    between atoms: C_16  and  C_18
REMARK    8  A    between atoms: C_24  and  N_25
REMARK                            x       y       z     vdW  Elec       q    Type
REMARK                         _______ _______ _______ _____ _____    ______ ____
ROOT
ATOM      1  N   UNL     1       0.598  10.675  19.373  0.00  0.00    +0.000 N 
ATOM      2  C   UNL     1      -0.720  10.983  18.970  0.00  0.00    +0.000 A 
ATOM      3  C   UNL     1      -1.352  12.061  19.576  0.00  0.00    +0.000 A 
ATOM      4  C   UNL     1      -2.700  12.296  19.314  0.00  0.00    +0.000 A 
ATOM      5  C   UNL     1      -3.389  11.461  18.428  0.00  0.00    +0.000 A 
ATOM      6  C   UNL     1      -2.687  10.407  17.844  0.00  0.00    +0.000 A 
ATOM      7  N   UNL     1      -1.380  10.192  18.096  0.00  0.00    +0.000 NA
ATOM      8  H   UNL     1       1.198  11.488  19.332  0.00  0.00    +0.000 HD
ENDROOT
BRANCH   1  12
ATOM      9  C   UNL     1       2.699   7.050  18.915  0.00  0.00    +0.000 A 
ATOM     10  C   UNL     1       2.061   7.312  20.121  0.00  0.00    +0.000 A 
ATOM     11  C   UNL     1       1.371   8.514  20.276  0.00  0.00    +0.000 A 
ATOM     12  C   UNL     1       1.287   9.452  19.235  0.00  0.00    +0.000 A 
ATOM     13  C   UNL     1       2.022   9.205  18.067  0.00  0.00    +0.000 A 
ATOM     14  C   UNL     1       2.730   8.011  17.903  0.00  0.00    +0.000 A 
BRANCH   9  15
ATOM     15  S   UNL     1       3.440   5.453  18.647  0.00  0.00    +0.000 S 
ATOM     16  O   UNL     1       4.546   5.316  19.566  0.00  0.00    +0.000 OA
ATOM     17  O   UNL     1       3.626   5.300  17.217  0.00  0.00    +0.000 OA
BRANCH  15  19
ATOM     18  C   UNL     1       1.539   3.616  18.070  0.00  0.00    +0.000 C 
ATOM     19  N   UNL     1       2.191   4.396  19.139  0.00  0.00    +0.000 NA
ATOM     20  C   UNL     1       2.455   3.600  20.352  0.00  0.00    +0.000 C 
ENDBRANCH  15  19
ENDBRANCH   9  15
ENDBRANCH   1  12
BRANCH   6  21
ATOM     21  N   UNL     1      -3.277   9.424  17.070  0.00  0.00    +0.000 N 
ATOM     22  H   UNL     1      -4.002   9.735  16.432  0.00  0.00    +0.000 HD
ATOM     23  H   UNL     1      -2.605   8.755  16.722  0.00  0.00    +0.000 HD
ENDBRANCH   6  21
BRANCH   5  24
ATOM     24  C   UNL     1      -4.822  11.697  18.107  0.00  0.00    +0.000 C 
ATOM     25  O   UNL     1      -5.155  12.131  17.007  0.00  0.00    +0.000 OA
BRANCH  24  26
ATOM     26  C   UNL     1      -5.895  11.451  19.106  0.00  0.00    +0.000 A 
ATOM     27  C   UNL     1      -6.222  12.481  19.997  0.00  0.00    +0.000 A 
ATOM     28  C   UNL     1      -7.205  12.283  20.965  0.00  0.00    +0.000 A 
ATOM     29  C   UNL     1      -7.863  11.057  21.049  0.00  0.00    +0.000 A 
ATOM     30  C   UNL     1      -7.528  10.020  20.178  0.00  0.00    +0.000 A 
ATOM     31  C   UNL     1      -6.534  10.210  19.215  0.00  0.00    +0.000 A 
ENDBRANCH  24  26
ENDBRANCH   5  24
TORSDOF 6
ENDMDL
MODEL 6
REMARK VINA RESULT:      -7.9      0.721      1.257
REMARK  Name = 
REMARK  8 active torsions:
REMARK  status: ('A' for Active; 'I' for Inactive)
REMARK    1  A    between atoms: C_1  and  N_2
REMARK    2  A    between atoms: N_2  and  C_3
REMARK    3  A    between atoms: N_2  and  S_4
REMARK    4  A    between atoms: S_4  and  C_7
REMARK    5  A    between atoms: C_10  and  N_11
REMARK    6  A    between atoms: C_15  and  C_16
REMARK    7  A    between atoms: C_16  and  C_18
REMARK    8  A    between atoms: C_24  and  N_25
REMARK                            x       y       z     vdW  Elec       q    Type
REMARK                         _______ _______ _______ _____ _____    ______ ____
ROOT
ATOM      1  N   UNL     1       0.623  10.917  18.209  0.00  0.00    +0.000 N 
ATOM      2  C   UNL     1       1.326   9.741  18.553  0.00  0.00    +0.000 A 
ATOM      3  C   UNL     1       1.958   9.039  17.534  0.00  0.00    +0.000 A 
ATOM      4  C   UNL     1       2.528   7.799  17.815  0.00  0.00    +0.000 A 
ATOM      5  C   UNL     1       2.479   7.293  19.118  0.00  0.00    +0.000 A 
ATOM      6  C   UNL     1       1.843   8.060  20.094  0.00  0.00    +0.000 A 
ATOM      7  N   UNL     1       1.301   9.264  19.815  0.00  0.00    +0.000 NA
ATOM      8  H   UNL     1       1.197  11.548  17.665  0.00  0.00    +0.000 HD
ENDROOT
BRANCH   1  12
ATOM      9  C   UNL     1      -2.479  12.793  20.360  0.00  0.00    +0.000 A 
ATOM     10  C   UNL     1      -1.160  13.060  20.707  0.00  0.00    +0.000 A 
ATOM     11  C   UNL     1      -0.133  12.435  20.001  0.00  0.00    +0.000 A 
ATOM     12  C   UNL     1      -0.400  11.562  18.933  0.00  0.00    +0.000 A 
ATOM     13  C   UNL     1      -1.739  11.236  18.671  0.00  0.00    +0.000 A 
ATOM     14  C   UNL     1      -2.779  11.843  19.381  0.00  0.00    +0.000 A 
BRANCH   9  15
ATOM     15  S   UNL     1      -3.791  13.708  21.141  0.00  0.00    +0.000 S 
ATOM     16  O   UNL     1      -4.877  13.825  20.195  0.00  0.00    +0.000 OA
ATOM     17  O   UNL     1      -3.194  14.881  21.750  0.00  0.00    +0.000 OA
BRANCH  15  19
ATOM     18  C   UNL     1      -3.254  12.344  23.416  0.00  0.00    +0.000 C 
ATOM     19  N   UNL     1      -4.271  12.644  22.389  0.00  0.00    +0.000 NA
ATOM     20  C   UNL     1      -5.612  12.874  22.958  0.00  0.00    +0.000 C 
ENDBRANCH  15  19
ENDBRANCH   9  15
ENDBRANCH   1  12
BRANCH   6  21
ATOM     21  N   UNL     1       1.594   7.618  21.380  0.00  0.00    +0.000 N 
ATOM     22  H   UNL     1       2.407   7.350  21.924  0.00  0.00    +0.000 HD
ATOM     23  H   UNL     1       0.884   8.167  21.843  0.00  0.00    +0.000 HD
ENDBRANCH   6  21
BRANCH   5  24
ATOM     24  C   UNL     1       3.098   5.984  19.458  0.00  0.00    +0.000 C 
ATOM     25  O   UNL     1       4.307   5.895  19.654  0.00  0.00    +0.000 OA
BRANCH  24  26
ATOM     26  C   UNL     1       2.291   4.738  19.539  0.00  0.00    +0.000 A 
ATOM     27  C   UNL     1       1.813   4.178  18.348  0.00  0.00    +0.000 A 
ATOM     28  C   UNL     1       1.031   3.023  18.382  0.00  0.00    +0.000 A 
ATOM     29  C   UNL     1       0.724   2.426  19.604  0.00  0.00    +0.000 A 
ATOM     30  C   UNL     1       1.181   2.991  20.795  0.00  0.00    +0.000 A 
ATOM     31  C   UNL     1       1.952   4.154  20.766  0.00  0.00    +0.000 A 
ENDBRANCH  24  26
ENDBRANCH   5  24
TORSDOF 6
ENDMDL
MODEL 7
REMARK VINA RESULT:      -7.9      3.330      9.190
REMARK  Name = 
REMARK  8 active torsions:
REMARK  status: ('A' for Active; 'I' for Inactive)
REMARK    1  A    between atoms: C_1  and  N_2
REMARK    2  A    between atoms: N_2  and  C_3
REMARK    3  A    between atoms: N_2  and  S_4
REMARK    4  A    between atoms: S_4  and  C_7
REMARK    5  A    between atoms: C_10  and  N_11
REMARK    6  A    between atoms: C_15  and  C_16
REMARK    7  A    between atoms: C_16  and  C_18
REMARK    8  A    between atoms: C_24  and  N_25
REMARK                            x       y       z     vdW  Elec       q    Type
REMARK                         _______ _______ _______ _____ _____    ______ ____
ROOT
ATOM      1  N   UNL     1       0.749  10.679  19.226  0.00  0.00    +0.000 N 
ATOM      2  C   UNL     1      -0.580  11.003  18.874  0.00  0.00    +0.000 A 
ATOM      3  C   UNL     1      -1.119  12.179  19.378  0.00  0.00    +0.000 A 
ATOM      4  C   UNL     1      -2.470  12.449  19.177  0.00  0.00    +0.000 A 
ATOM      5  C   UNL     1      -3.257  11.548  18.451  0.00  0.00    +0.000 A 
ATOM      6  C   UNL     1      -2.645  10.395  17.961  0.00  0.00    +0.000 A 
ATOM      7  N   UNL     1      -1.333  10.146  18.153  0.00  0.00    +0.000 NA
ATOM      8  H   UNL     1       1.380  11.449  19.042  0.00  0.00    +0.000 HD
ENDROOT
BRANCH   1  12
ATOM      9  C   UNL     1       2.572   6.879  19.197  0.00  0.00    +0.000 A 
ATOM     10  C   UNL     1       2.598   7.648  18.040  0.00  0.00    +0.000 A 
ATOM     11  C   UNL     1       1.990   8.902  18.047  0.00  0.00    +0.000 A 
ATOM     12  C   UNL     1       1.373   9.415  19.199  0.00  0.00    +0.000 A 
ATOM     13  C   UNL     1       1.276   8.576  20.320  0.00  0.00    +0.000 A 
ATOM     14  C   UNL     1       1.868   7.311  20.323  0.00  0.00    +0.000 A 
BRANCH   9  15
ATOM     15  S   UNL     1       3.486   5.352  19.253  0.00  0.00    +0.000 S 
ATOM     16  O   UNL     1       2.972   4.564  20.350  0.00  0.00    +0.000 OA
ATOM     17  O   UNL     1       4.893   5.689  19.162  0.00  0.00    +0.000 OA
BRANCH  15  19
ATOM     18  C   UNL     1       4.027   3.739  17.148  0.00  0.00    +0.000 C 
ATOM     19  N   UNL     1       3.019   4.607  17.787  0.00  0.00    +0.000 NA
ATOM     20  C   UNL     1       1.662   4.032  17.755  0.00  0.00    +0.000 C 
ENDBRANCH  15  19
ENDBRANCH   9  15
ENDBRANCH   1  12
BRANCH   6  21
ATOM     21  N   UNL     1      -3.330   9.357  17.358  0.00  0.00    +0.000 N 
ATOM     22  H   UNL     1      -3.864   8.756  17.978  0.00  0.00    +0.000 HD
ATOM     23  H   UNL     1      -3.767   9.637  16.492  0.00  0.00    +0.000 HD
ENDBRANCH   6  21
BRANCH   5  24
ATOM     24  C   UNL     1      -4.697  11.817  18.197  0.00  0.00    +0.000 C 
ATOM     25  O   UNL     1      -5.086  12.147  17.079  0.00  0.00    +0.000 OA
BRANCH  24  26
ATOM     26  C   UNL     1      -5.709  11.730  19.282  0.00  0.00    +0.000 A 
ATOM     27  C   UNL     1      -6.559  10.617  19.310  0.00  0.00    +0.000 A 
ATOM     28  C   UNL     1      -7.538  10.509  20.297  0.00  0.00    +0.000 A 
ATOM     29  C   UNL     1      -7.673  11.510  21.257  0.00  0.00    +0.000 A 
ATOM     30  C   UNL     1      -6.843  12.631  21.223  0.00  0.00    +0.000 A 
ATOM     31  C   UNL     1      -5.871  12.750  20.228  0.00  0.00    +0.000 A 
ENDBRANCH  24  26
ENDBRANCH   5  24
TORSDOF 6
ENDMDL
MODEL 8
REMARK VINA RESULT:      -7.9      0.622      1.191
REMARK  Name = 
REMARK  8 active torsions:
REMARK  status: ('A' for Active; 'I' for Inactive)
REMARK    1  A    between atoms: C_1  and  N_2
REMARK    2  A    between atoms: N_2  and  C_3
REMARK    3  A    between atoms: N_2  and  S_4
REMARK    4  A    between atoms: S_4  and  C_7
REMARK    5  A    between atoms: C_10  and  N_11
REMARK    6  A    between atoms: C_15  and  C_16
REMARK    7  A    between atoms: C_16  and  C_18
REMARK    8  A    between atoms: C_24  and  N_25
REMARK                            x       y       z     vdW  Elec       q    Type
REMARK                         _______ _______ _______ _____ _____    ______ ____
ROOT
ATOM      1  N   UNL     1       0.597  10.904  18.217  0.00  0.00    +0.000 N 
ATOM      2  C   UNL     1       1.299   9.731  18.575  0.00  0.00    +0.000 A 
ATOM      3  C   UNL     1       2.038   9.089  17.590  0.00  0.00    +0.000 A 
ATOM      4  C   UNL     1       2.614   7.851  17.870  0.00  0.00    +0.000 A 
ATOM      5  C   UNL     1       2.462   7.288  19.141  0.00  0.00    +0.000 A 
ATOM      6  C   UNL     1       1.720   7.997  20.085  0.00  0.00    +0.000 A 
ATOM      7  N   UNL     1       1.173   9.198  19.809  0.00  0.00    +0.000 NA
ATOM      8  H   UNL     1       1.201  11.571  17.754  0.00  0.00    +0.000 HD
ENDROOT
BRANCH   1  12
ATOM      9  C   UNL     1      -2.656  12.715  20.192  0.00  0.00    +0.000 A 
ATOM     10  C   UNL     1      -2.904  11.877  19.112  0.00  0.00    +0.000 A 
ATOM     11  C   UNL     1      -1.829  11.283  18.454  0.00  0.00    +0.000 A 
ATOM     12  C   UNL     1      -0.504  11.492  18.871  0.00  0.00    +0.000 A 
ATOM     13  C   UNL     1      -0.279  12.419  19.900  0.00  0.00    +0.000 A 
ATOM     14  C   UNL     1      -1.347  13.034  20.559  0.00  0.00    +0.000 A 
BRANCH   9  15
ATOM     15  S   UNL     1      -4.023  13.347  21.142  0.00  0.00    +0.000 S 
ATOM     16  O   UNL     1      -4.321  12.390  22.183  0.00  0.00    +0.000 OA
ATOM     17  O   UNL     1      -5.039  13.776  20.200  0.00  0.00    +0.000 OA
BRANCH  15  19
ATOM     18  C   UNL     1      -3.760  16.036  21.298  0.00  0.00    +0.000 C 
ATOM     19  N   UNL     1      -3.341  14.738  21.863  0.00  0.00    +0.000 NA
ATOM     20  C   UNL     1      -3.285  14.743  23.336  0.00  0.00    +0.000 C 
ENDBRANCH  15  19
ENDBRANCH   9  15
ENDBRANCH   1  12
BRANCH   6  21
ATOM     21  N   UNL     1       1.368   7.493  21.324  0.00  0.00    +0.000 N 
ATOM     22  H   UNL     1       1.556   6.507  21.474  0.00  0.00    +0.000 HD
ATOM     23  H   UNL     1       1.595   8.129  22.075  0.00  0.00    +0.000 HD
ENDBRANCH   6  21
BRANCH   5  24
ATOM     24  C   UNL     1       3.083   5.980  19.481  0.00  0.00    +0.000 C 
ATOM     25  O   UNL     1       4.292   5.895  19.684  0.00  0.00    +0.000 OA
BRANCH  24  26
ATOM     26  C   UNL     1       2.280   4.732  19.556  0.00  0.00    +0.000 A 
ATOM     27  C   UNL     1       2.088   4.140  20.810  0.00  0.00    +0.000 A 
ATOM     28  C   UNL     1       1.361   2.954  20.921  0.00  0.00    +0.000 A 
ATOM     29  C   UNL     1       0.827   2.356  19.781  0.00  0.00    +0.000 A 
ATOM     30  C   UNL     1       1.032   2.930  18.526  0.00  0.00    +0.000 A 
ATOM     31  C   UNL     1       1.770   4.109  18.410  0.00  0.00    +0.000 A 
ENDBRANCH  24  26
ENDBRANCH   5  24
TORSDOF 6
ENDMDL
MODEL 9
REMARK VINA RESULT:      -7.9      3.658      9.305
REMARK  Name = 
REMARK  8 active torsions:
REMARK  status: ('A' for Active; 'I' for Inactive)
REMARK    1  A    between atoms: C_1  and  N_2
REMARK    2  A    between atoms: N_2  and  C_3
REMARK    3  A    between atoms: N_2  and  S_4
REMARK    4  A    between atoms: S_4  and  C_7
REMARK    5  A    between atoms: C_10  and  N_11
REMARK    6  A    between atoms: C_15  and  C_16
REMARK    7  A    between atoms: C_16  and  C_18
REMARK    8  A    between atoms: C_24  and  N_25
REMARK                            x       y       z     vdW  Elec       q    Type
REMARK                         _______ _______ _______ _____ _____    ______ ____
ROOT
ATOM      1  N   UNL     1       0.768  10.447  19.410  0.00  0.00    +0.000 N 
ATOM      2  C   UNL     1      -0.524  10.805  18.967  0.00  0.00    +0.000 A 
ATOM      3  C   UNL     1      -1.237  11.730  19.719  0.00  0.00    +0.000 A 
ATOM      4  C   UNL     1      -2.568  11.988  19.397  0.00  0.00    +0.000 A 
ATOM      5  C   UNL     1      -3.156  11.335  18.309  0.00  0.00    +0.000 A 
ATOM      6  C   UNL     1      -2.376  10.432  17.589  0.00  0.00    +0.000 A 
ATOM      7  N   UNL     1      -1.086  10.194  17.902  0.00  0.00    +0.000 NA
ATOM      8  H   UNL     1       1.342  11.262  19.580  0.00  0.00    +0.000 HD
ENDROOT
BRANCH   1  12
ATOM      9  C   UNL     1       2.940   6.950  18.504  0.00  0.00    +0.000 A 
ATOM     10  C   UNL     1       2.812   7.935  17.532  0.00  0.00    +0.000 A 
ATOM     11  C   UNL     1       2.088   9.089  17.828  0.00  0.00    +0.000 A 
ATOM     12  C   UNL     1       1.507   9.289  19.091  0.00  0.00    +0.000 A 
ATOM     13  C   UNL     1       1.569   8.236  20.016  0.00  0.00    +0.000 A 
ATOM     14  C   UNL     1       2.279   7.067  19.728  0.00  0.00    +0.000 A 
BRANCH   9  15
ATOM     15  S   UNL     1       3.998   5.551  18.197  0.00  0.00    +0.000 S 
ATOM     16  O   UNL     1       3.198   4.513  17.588  0.00  0.00    +0.000 OA
ATOM     17  O   UNL     1       4.751   5.306  19.411  0.00  0.00    +0.000 OA
BRANCH  15  19
ATOM     18  C   UNL     1       6.345   6.717  17.522  0.00  0.00    +0.000 C 
ATOM     19  N   UNL     1       5.070   6.170  17.019  0.00  0.00    +0.000 NA
ATOM     20  C   UNL     1       5.235   5.357  15.800  0.00  0.00    +0.000 C 
ENDBRANCH  15  19
ENDBRANCH   9  15
ENDBRANCH   1  12
BRANCH   6  21
ATOM     21  N   UNL     1      -2.870   9.613  16.590  0.00  0.00    +0.000 N 
ATOM     22  H   UNL     1      -2.528   8.658  16.586  0.00  0.00    +0.000 HD
ATOM     23  H   UNL     1      -3.858   9.754  16.432  0.00  0.00    +0.000 HD
ENDBRANCH   6  21
BRANCH   5  24
ATOM     24  C   UNL     1      -4.567  11.605  17.922  0.00  0.00    +0.000 C 
ATOM     25  O   UNL     1      -4.841  12.020  16.799  0.00  0.00    +0.000 OA
BRANCH  24  26
ATOM     26  C   UNL     1      -5.687  11.418  18.881  0.00  0.00    +0.000 A 
ATOM     27  C   UNL     1      -6.064  12.503  19.682  0.00  0.00    +0.000 A 
ATOM     28  C   UNL     1      -7.094  12.362  20.612  0.00  0.00    +0.000 A 
ATOM     29  C   UNL     1      -7.748  11.138  20.747  0.00  0.00    +0.000 A 
ATOM     30  C   UNL     1      -7.364  10.048  19.966  0.00  0.00    +0.000 A 
ATOM     31  C   UNL     1      -6.324  10.181  19.043  0.00  0.00    +0.000 A 
ENDBRANCH  24  26
ENDBRANCH   5  24
TORSDOF 6
ENDMDL
