MODEL 1
REMARK VINA RESULT:      -7.8      0.000      0.000
REMARK  Name = 
REMARK  8 active torsions:
REMARK  status: ('A' for Active; 'I' for Inactive)
REMARK    1  A    between atoms: C_1  and  N_2
REMARK    2  A    between atoms: C_6  and  S_7
REMARK    3  A    between atoms: S_7  and  C_8
REMARK    4  A    between atoms: C_8  and  C_9
REMARK    5  A    between atoms: N_11  and  C_12
REMARK    6  A    between atoms: C_17  and  S_18
REMARK    7  A    between atoms: S_18  and  C_19
REMARK    8  A    between atoms: C_19  and  C_20
REMARK                            x       y       z     vdW  Elec       q    Type
REMARK                         _______ _______ _______ _____ _____    ______ ____
ROOT
ATOM      1  C   UNL     1       2.492   7.566  18.807  0.00  0.00    +0.000 A 
ATOM      2  C   UNL     1       2.189   8.432  17.758  0.00  0.00    +0.000 A 
ATOM      3  C   UNL     1       1.368   9.544  17.950  0.00  0.00    +0.000 A 
ATOM      4  C   UNL     1       0.812   9.793  19.215  0.00  0.00    +0.000 A 
ATOM      5  N   UNL     1      -0.035  10.840  19.522  0.00  0.00    +0.000 NA
ATOM      6  C   UNL     1      -0.416  10.746  20.773  0.00  0.00    +0.000 A 
ATOM      7  S   UNL     1       0.275   9.465  21.675  0.00  0.00    +0.000 S 
ATOM      8  C   UNL     1       1.097   8.911  20.260  0.00  0.00    +0.000 A 
ATOM      9  C   UNL     1       1.929   7.787  20.077  0.00  0.00    +0.000 A 
ENDROOT
BRANCH   1  12
ATOM     10  C   UNL     1       3.027   5.238  18.071  0.00  0.00    +0.000 C 
ATOM     11  O   UNL     1       1.940   4.951  17.571  0.00  0.00    +0.000 OA
ATOM     12  N   UNL     1       3.357   6.459  18.649  0.00  0.00    +0.000 N 
ATOM     13  H   UNL     1       4.352   6.638  18.794  0.00  0.00    +0.000 HD
BRANCH  10  14
ATOM     14  C   UNL     1       4.167   4.235  18.040  0.00  0.00    +0.000 C 
BRANCH  14  15
ATOM     15  S   UNL     1       3.519   2.541  18.176  0.00  0.00    +0.000 S 
BRANCH  15  21
ATOM     16  C   UNL     1       0.428   2.474  19.140  0.00  0.00    +0.000 C 
ATOM     17  N   UNL     1       1.535   2.554  20.055  0.00  0.00    +0.000 N 
ATOM     18  C   UNL     1       1.452   2.574  21.416  0.00  0.00    +0.000 A 
ATOM     19  N   UNL     1       2.664   2.592  21.931  0.00  0.00    +0.000 NA
ATOM     20  N   UNL     1       3.558   2.608  20.890  0.00  0.00    +0.000 NA
ATOM     21  C   UNL     1       2.870   2.588  19.772  0.00  0.00    +0.000 A 
ENDBRANCH  15  21
ENDBRANCH  14  15
ENDBRANCH  10  14
ENDBRANCH   1  12
BRANCH   6  22
ATOM     22  S   UNL     1      -1.592  11.869  21.430  0.00  0.00    +0.000 S 
BRANCH  22  23
ATOM     23  C   UNL     1      -2.127  12.654  19.875  0.00  0.00    +0.000 C 
BRANCH  23  24
ATOM     24  C   UNL     1      -3.500  12.202  19.428  0.00  0.00    +0.000 A 
ATOM     25  C   UNL     1      -4.602  12.460  20.266  0.00  0.00    +0.000 A 
ATOM     26  C   UNL     1      -5.894  12.088  19.889  0.00  0.00    +0.000 A 
ATOM     27  C   UNL     1      -6.107  11.442  18.676  0.00  0.00    +0.000 A 
ATOM     28  C   UNL     1      -5.026  11.168  17.838  0.00  0.00    +0.000 A 
ATOM     29  C   UNL     1      -3.730  11.545  18.209  0.00  0.00    +0.000 A 
ATOM     30 CL   UNL     1      -2.451  11.189  17.104  0.00  0.00    +0.000 Cl
ENDBRANCH  23  24
ENDBRANCH  22  23
ENDBRANCH   6  22
TORSDOF 7
ENDMDL
MODEL 2
REMARK VINA RESULT:      -7.8      1.589      2.152
REMARK  Name = 
REMARK  8 active torsions:
REMARK  status: ('A' for Active; 'I' for Inactive)
REMARK    1  A    between atoms: C_1  and  N_2
REMARK    2  A    between atoms: C_6  and  S_7
REMARK    3  A    between atoms: S_7  and  C_8
REMARK    4  A    between atoms: C_8  and  C_9
REMARK    5  A    between atoms: N_11  and  C_12
REMARK    6  A    between atoms: C_17  and  S_18
REMARK    7  A    between atoms: S_18  and  C_19
REMARK    8  A    between atoms: C_19  and  C_20
REMARK                            x       y       z     vdW  Elec       q    Type
REMARK                         _______ _______ _______ _____ _____    ______ ____
ROOT
ATOM      1  C   UNL     1       2.838   6.591  18.593  0.00  0.00    +0.000 A 
ATOM      2  C   UNL     1       2.860   7.591  17.624  0.00  0.00    +0.000 A 
ATOM      3  C   UNL     1       2.272   8.836  17.852  0.00  0.00    +0.000 A 
ATOM      4  C   UNL     1       1.620   9.088  19.069  0.00  0.00    +0.000 A 
ATOM      5  N   UNL     1       0.978  10.265  19.402  0.00  0.00    +0.000 NA
ATOM      6  C   UNL     1       0.428  10.148  20.586  0.00  0.00    +0.000 A 
ATOM      7  S   UNL     1       0.714   8.672  21.405  0.00  0.00    +0.000 S 
ATOM      8  C   UNL     1       1.578   8.077  20.032  0.00  0.00    +0.000 A 
ATOM      9  C   UNL     1       2.174   6.818  19.813  0.00  0.00    +0.000 A 
ENDROOT
BRANCH   1  12
ATOM     10  C   UNL     1       4.687   4.945  18.944  0.00  0.00    +0.000 C 
ATOM     11  O   UNL     1       5.385   5.615  19.703  0.00  0.00    +0.000 OA
ATOM     12  N   UNL     1       3.466   5.339  18.404  0.00  0.00    +0.000 N 
ATOM     13  H   UNL     1       2.890   4.599  18.001  0.00  0.00    +0.000 HD
BRANCH  10  14
ATOM     14  C   UNL     1       5.110   3.536  18.565  0.00  0.00    +0.000 C 
BRANCH  14  15
ATOM     15  S   UNL     1       4.437   2.336  19.753  0.00  0.00    +0.000 S 
BRANCH  15  21
ATOM     16  C   UNL     1       2.055   3.387  21.679  0.00  0.00    +0.000 C 
ATOM     17  N   UNL     1       1.837   2.948  20.327  0.00  0.00    +0.000 N 
ATOM     18  C   UNL     1       0.644   2.945  19.667  0.00  0.00    +0.000 A 
ATOM     19  N   UNL     1       0.826   2.534  18.429  0.00  0.00    +0.000 NA
ATOM     20  N   UNL     1       2.159   2.239  18.281  0.00  0.00    +0.000 NA
ATOM     21  C   UNL     1       2.752   2.489  19.425  0.00  0.00    +0.000 A 
ENDBRANCH  15  21
ENDBRANCH  14  15
ENDBRANCH  10  14
ENDBRANCH   1  12
BRANCH   6  22
ATOM     22  S   UNL     1      -0.564  11.440  21.236  0.00  0.00    +0.000 S 
BRANCH  22  23
ATOM     23  C   UNL     1      -0.983  12.283  19.675  0.00  0.00    +0.000 C 
BRANCH  23  24
ATOM     24  C   UNL     1      -2.302  11.825  19.094  0.00  0.00    +0.000 A 
ATOM     25  C   UNL     1      -2.294  10.824  18.105  0.00  0.00    +0.000 A 
ATOM     26  C   UNL     1      -3.485  10.346  17.555  0.00  0.00    +0.000 A 
ATOM     27  C   UNL     1      -4.704  10.869  17.974  0.00  0.00    +0.000 A 
ATOM     28  C   UNL     1      -4.732  11.869  18.945  0.00  0.00    +0.000 A 
ATOM     29  C   UNL     1      -3.540  12.345  19.504  0.00  0.00    +0.000 A 
ATOM     30 CL   UNL     1      -3.663  13.570  20.716  0.00  0.00    +0.000 Cl
ENDBRANCH  23  24
ENDBRANCH  22  23
ENDBRANCH   6  22
TORSDOF 7
ENDMDL
MODEL 3
REMARK VINA RESULT:      -7.7      1.959      2.997
REMARK  Name = 
REMARK  8 active torsions:
REMARK  status: ('A' for Active; 'I' for Inactive)
REMARK    1  A    between atoms: C_1  and  N_2
REMARK    2  A    between atoms: C_6  and  S_7
REMARK    3  A    between atoms: S_7  and  C_8
REMARK    4  A    between atoms: C_8  and  C_9
REMARK    5  A    between atoms: N_11  and  C_12
REMARK    6  A    between atoms: C_17  and  S_18
REMARK    7  A    between atoms: S_18  and  C_19
REMARK    8  A    between atoms: C_19  and  C_20
REMARK                            x       y       z     vdW  Elec       q    Type
REMARK                         _______ _______ _______ _____ _____    ______ ____
ROOT
ATOM      1  C   UNL     1       2.544   7.190  18.692  0.00  0.00    +0.000 A 
ATOM      2  C   UNL     1       2.268   8.165  17.736  0.00  0.00    +0.000 A 
ATOM      3  C   UNL     1       1.593   9.339  18.071  0.00  0.00    +0.000 A 
ATOM      4  C   UNL     1       1.157   9.542  19.390  0.00  0.00    +0.000 A 
ATOM      5  N   UNL     1       0.457  10.646  19.838  0.00  0.00    +0.000 NA
ATOM      6  C   UNL     1       0.155  10.492  21.104  0.00  0.00    +0.000 A 
ATOM      7  S   UNL     1       0.758   9.076  21.854  0.00  0.00    +0.000 S 
ATOM      8  C   UNL     1       1.413   8.554  20.343  0.00  0.00    +0.000 A 
ATOM      9  C   UNL     1       2.099   7.366  20.014  0.00  0.00    +0.000 A 
ENDROOT
BRANCH   1  12
ATOM     10  C   UNL     1       2.730   4.827  17.896  0.00  0.00    +0.000 C 
ATOM     11  O   UNL     1       1.548   4.636  17.616  0.00  0.00    +0.000 OA
ATOM     12  N   UNL     1       3.266   6.014  18.387  0.00  0.00    +0.000 N 
ATOM     13  H   UNL     1       4.282   6.106  18.338  0.00  0.00    +0.000 HD
BRANCH  10  14
ATOM     14  C   UNL     1       3.755   3.730  17.663  0.00  0.00    +0.000 C 
BRANCH  14  15
ATOM     15  S   UNL     1       5.157   4.374  16.701  0.00  0.00    +0.000 S 
BRANCH  15  21
ATOM     16  C   UNL     1       7.333   6.773  16.734  0.00  0.00    +0.000 C 
ATOM     17  N   UNL     1       7.077   5.929  17.869  0.00  0.00    +0.000 N 
ATOM     18  C   UNL     1       7.664   6.034  19.096  0.00  0.00    +0.000 A 
ATOM     19  N   UNL     1       7.148   5.135  19.910  0.00  0.00    +0.000 NA
ATOM     20  N   UNL     1       6.223   4.412  19.198  0.00  0.00    +0.000 NA
ATOM     21  C   UNL     1       6.192   4.895  17.977  0.00  0.00    +0.000 A 
ENDBRANCH  15  21
ENDBRANCH  14  15
ENDBRANCH  10  14
ENDBRANCH   1  12
BRANCH   6  22
ATOM     22  S   UNL     1      -0.840  11.677  21.930  0.00  0.00    +0.000 S 
BRANCH  22  23
ATOM     23  C   UNL     1      -1.349  12.667  20.488  0.00  0.00    +0.000 C 
BRANCH  23  24
ATOM     24  C   UNL     1      -2.805  12.476  20.127  0.00  0.00    +0.000 A 
ATOM     25  C   UNL     1      -3.789  12.862  21.057  0.00  0.00    +0.000 A 
ATOM     26  C   UNL     1      -5.148  12.732  20.762  0.00  0.00    +0.000 A 
ATOM     27  C   UNL     1      -5.548  12.203  19.540  0.00  0.00    +0.000 A 
ATOM     28  C   UNL     1      -4.588  11.805  18.610  0.00  0.00    +0.000 A 
ATOM     29  C   UNL     1      -3.225  11.940  18.899  0.00  0.00    +0.000 A 
ATOM     30 CL   UNL     1      -2.101  11.443  17.684  0.00  0.00    +0.000 Cl
ENDBRANCH  23  24
ENDBRANCH  22  23
ENDBRANCH   6  22
TORSDOF 7
ENDMDL
MODEL 4
REMARK VINA RESULT:      -7.7      4.282      9.942
REMARK  Name = 
REMARK  8 active torsions:
REMARK  status: ('A' for Active; 'I' for Inactive)
REMARK    1  A    between atoms: C_1  and  N_2
REMARK    2  A    between atoms: C_6  and  S_7
REMARK    3  A    between atoms: S_7  and  C_8
REMARK    4  A    between atoms: C_8  and  C_9
REMARK    5  A    between atoms: N_11  and  C_12
REMARK    6  A    between atoms: C_17  and  S_18
REMARK    7  A    between atoms: S_18  and  C_19
REMARK    8  A    between atoms: C_19  and  C_20
REMARK                            x       y       z     vdW  Elec       q    Type
REMARK                         _______ _______ _______ _____ _____    ______ ____
ROOT
ATOM      1  C   UNL     1      -0.683  10.917  21.242  0.00  0.00    +0.000 A 
ATOM      2  C   UNL     1      -0.328   9.949  22.180  0.00  0.00    +0.000 A 
ATOM      3  C   UNL     1       0.565   8.926  21.864  0.00  0.00    +0.000 A 
ATOM      4  C   UNL     1       1.106   8.845  20.570  0.00  0.00    +0.000 A 
ATOM      5  N   UNL     1       1.976   7.866  20.129  0.00  0.00    +0.000 NA
ATOM      6  C   UNL     1       2.240   8.051  18.859  0.00  0.00    +0.000 A 
ATOM      7  S   UNL     1       1.543   9.441  18.141  0.00  0.00    +0.000 S 
ATOM      8  C   UNL     1       0.732   9.801  19.624  0.00  0.00    +0.000 A 
ATOM      9  C   UNL     1      -0.167  10.842  19.935  0.00  0.00    +0.000 A 
ENDROOT
BRANCH   1  12
ATOM     10  C   UNL     1      -1.274  13.042  22.418  0.00  0.00    +0.000 C 
ATOM     11  O   UNL     1      -0.214  13.220  23.016  0.00  0.00    +0.000 OA
ATOM     12  N   UNL     1      -1.551  11.989  21.551  0.00  0.00    +0.000 N 
ATOM     13  H   UNL     1      -2.364  12.104  20.944  0.00  0.00    +0.000 HD
BRANCH  10  14
ATOM     14  C   UNL     1      -2.403  14.051  22.552  0.00  0.00    +0.000 C 
BRANCH  14  15
ATOM     15  S   UNL     1      -2.920  14.187  24.290  0.00  0.00    +0.000 S 
BRANCH  15  21
ATOM     16  C   UNL     1      -5.798  15.546  23.695  0.00  0.00    +0.000 C 
ATOM     17  N   UNL     1      -5.630  14.141  23.947  0.00  0.00    +0.000 N 
ATOM     18  C   UNL     1      -6.617  13.199  23.934  0.00  0.00    +0.000 A 
ATOM     19  N   UNL     1      -6.093  12.009  24.147  0.00  0.00    +0.000 NA
ATOM     20  N   UNL     1      -4.742  12.175  24.326  0.00  0.00    +0.000 NA
ATOM     21  C   UNL     1      -4.478  13.456  24.206  0.00  0.00    +0.000 A 
ENDBRANCH  15  21
ENDBRANCH  14  15
ENDBRANCH  10  14
ENDBRANCH   1  12
BRANCH   6  22
ATOM     22  S   UNL     1       3.225   6.898  17.979  0.00  0.00    +0.000 S 
BRANCH  22  23
ATOM     23  C   UNL     1       3.492   5.685  19.312  0.00  0.00    +0.000 C 
BRANCH  23  24
ATOM     24  C   UNL     1       2.648   4.439  19.153  0.00  0.00    +0.000 A 
ATOM     25  C   UNL     1       1.558   4.246  20.024  0.00  0.00    +0.000 A 
ATOM     26  C   UNL     1       0.731   3.127  19.903  0.00  0.00    +0.000 A 
ATOM     27  C   UNL     1       0.985   2.177  18.919  0.00  0.00    +0.000 A 
ATOM     28  C   UNL     1       2.066   2.345  18.056  0.00  0.00    +0.000 A 
ATOM     29  C   UNL     1       2.893   3.469  18.169  0.00  0.00    +0.000 A 
ATOM     30 CL   UNL     1       4.198   3.614  17.045  0.00  0.00    +0.000 Cl
ENDBRANCH  23  24
ENDBRANCH  22  23
ENDBRANCH   6  22
TORSDOF 7
ENDMDL
MODEL 5
REMARK VINA RESULT:      -7.6      1.727      2.620
REMARK  Name = 
REMARK  8 active torsions:
REMARK  status: ('A' for Active; 'I' for Inactive)
REMARK    1  A    between atoms: C_1  and  N_2
REMARK    2  A    between atoms: C_6  and  S_7
REMARK    3  A    between atoms: S_7  and  C_8
REMARK    4  A    between atoms: C_8  and  C_9
REMARK    5  A    between atoms: N_11  and  C_12
REMARK    6  A    between atoms: C_17  and  S_18
REMARK    7  A    between atoms: S_18  and  C_19
REMARK    8  A    between atoms: C_19  and  C_20
REMARK                            x       y       z     vdW  Elec       q    Type
REMARK                         _______ _______ _______ _____ _____    ______ ____
ROOT
ATOM      1  C   UNL     1       2.192   6.636  20.110  0.00  0.00    +0.000 A 
ATOM      2  C   UNL     1       2.575   6.898  18.796  0.00  0.00    +0.000 A 
ATOM      3  C   UNL     1       2.284   8.118  18.185  0.00  0.00    +0.000 A 
ATOM      4  C   UNL     1       1.571   9.101  18.891  0.00  0.00    +0.000 A 
ATOM      5  N   UNL     1       1.200  10.332  18.388  0.00  0.00    +0.000 NA
ATOM      6  C   UNL     1       0.498  10.981  19.285  0.00  0.00    +0.000 A 
ATOM      7  S   UNL     1       0.314  10.206  20.800  0.00  0.00    +0.000 S 
ATOM      8  C   UNL     1       1.168   8.829  20.200  0.00  0.00    +0.000 A 
ATOM      9  C   UNL     1       1.461   7.600  20.827  0.00  0.00    +0.000 A 
ENDROOT
BRANCH   1  12
ATOM     10  C   UNL     1       1.720   4.285  20.818  0.00  0.00    +0.000 C 
ATOM     11  O   UNL     1       0.630   4.144  20.264  0.00  0.00    +0.000 OA
ATOM     12  N   UNL     1       2.515   5.426  20.766  0.00  0.00    +0.000 N 
ATOM     13  H   UNL     1       3.487   5.314  21.057  0.00  0.00    +0.000 HD
BRANCH  10  14
ATOM     14  C   UNL     1       2.332   3.135  21.599  0.00  0.00    +0.000 C 
BRANCH  14  15
ATOM     15  S   UNL     1       3.815   2.515  20.747  0.00  0.00    +0.000 S 
BRANCH  15  21
ATOM     16  C   UNL     1       5.130   4.368  18.439  0.00  0.00    +0.000 C 
ATOM     17  N   UNL     1       3.975   3.540  18.219  0.00  0.00    +0.000 N 
ATOM     18  C   UNL     1       3.309   3.389  17.039  0.00  0.00    +0.000 A 
ATOM     19  N   UNL     1       2.338   2.511  17.189  0.00  0.00    +0.000 NA
ATOM     20  N   UNL     1       2.353   2.096  18.498  0.00  0.00    +0.000 NA
ATOM     21  C   UNL     1       3.335   2.722  19.105  0.00  0.00    +0.000 A 
ENDBRANCH  15  21
ENDBRANCH  14  15
ENDBRANCH  10  14
ENDBRANCH   1  12
BRANCH   6  22
ATOM     22  S   UNL     1      -0.221  12.534  18.898  0.00  0.00    +0.000 S 
BRANCH  22  23
ATOM     23  C   UNL     1      -1.787  11.944  18.177  0.00  0.00    +0.000 C 
BRANCH  23  24
ATOM     24  C   UNL     1      -2.971  12.143  19.097  0.00  0.00    +0.000 A 
ATOM     25  C   UNL     1      -2.740  12.616  20.403  0.00  0.00    +0.000 A 
ATOM     26  C   UNL     1      -3.800  12.842  21.283  0.00  0.00    +0.000 A 
ATOM     27  C   UNL     1      -5.107  12.588  20.880  0.00  0.00    +0.000 A 
ATOM     28  C   UNL     1      -5.354  12.108  19.595  0.00  0.00    +0.000 A 
ATOM     29  C   UNL     1      -4.295  11.887  18.706  0.00  0.00    +0.000 A 
ATOM     30 CL   UNL     1      -4.689  11.313  17.125  0.00  0.00    +0.000 Cl
ENDBRANCH  23  24
ENDBRANCH  22  23
ENDBRANCH   6  22
TORSDOF 7
ENDMDL
MODEL 6
REMARK VINA RESULT:      -7.5      1.432      1.980
REMARK  Name = 
REMARK  8 active torsions:
REMARK  status: ('A' for Active; 'I' for Inactive)
REMARK    1  A    between atoms: C_1  and  N_2
REMARK    2  A    between atoms: C_6  and  S_7
REMARK    3  A    between atoms: S_7  and  C_8
REMARK    4  A    between atoms: C_8  and  C_9
REMARK    5  A    between atoms: N_11  and  C_12
REMARK    6  A    between atoms: C_17  and  S_18
REMARK    7  A    between atoms: S_18  and  C_19
REMARK    8  A    between atoms: C_19  and  C_20
REMARK                            x       y       z     vdW  Elec       q    Type
REMARK                         _______ _______ _______ _____ _____    ______ ____
ROOT
ATOM      1  C   UNL     1       2.493   7.001  18.604  0.00  0.00    +0.000 A 
ATOM      2  C   UNL     1       2.334   8.036  17.685  0.00  0.00    +0.000 A 
ATOM      3  C   UNL     1       1.767   9.256  18.057  0.00  0.00    +0.000 A 
ATOM      4  C   UNL     1       1.322   9.447  19.375  0.00  0.00    +0.000 A 
ATOM      5  N   UNL     1       0.721  10.593  19.856  0.00  0.00    +0.000 NA
ATOM      6  C   UNL     1       0.377  10.419  21.109  0.00  0.00    +0.000 A 
ATOM      7  S   UNL     1       0.824   8.922  21.809  0.00  0.00    +0.000 S 
ATOM      8  C   UNL     1       1.460   8.400  20.290  0.00  0.00    +0.000 A 
ATOM      9  C   UNL     1       2.037   7.166  19.925  0.00  0.00    +0.000 A 
ENDROOT
BRANCH   1  12
ATOM     10  C   UNL     1       2.477   4.678  17.680  0.00  0.00    +0.000 C 
ATOM     11  O   UNL     1       1.297   4.628  17.335  0.00  0.00    +0.000 OA
ATOM     12  N   UNL     1       3.106   5.774  18.264  0.00  0.00    +0.000 N 
ATOM     13  H   UNL     1       4.127   5.761  18.267  0.00  0.00    +0.000 HD
BRANCH  10  14
ATOM     14  C   UNL     1       3.395   3.494  17.429  0.00  0.00    +0.000 C 
BRANCH  14  15
ATOM     15  S   UNL     1       2.591   1.952  17.959  0.00  0.00    +0.000 S 
BRANCH  15  21
ATOM     16  C   UNL     1       4.591   2.164  20.497  0.00  0.00    +0.000 C 
ATOM     17  N   UNL     1       3.175   2.395  20.592  0.00  0.00    +0.000 N 
ATOM     18  C   UNL     1       2.495   2.763  21.715  0.00  0.00    +0.000 A 
ATOM     19  N   UNL     1       1.223   2.943  21.421  0.00  0.00    +0.000 NA
ATOM     20  N   UNL     1       1.062   2.667  20.086  0.00  0.00    +0.000 NA
ATOM     21  C   UNL     1       2.238   2.338  19.601  0.00  0.00    +0.000 A 
ENDBRANCH  15  21
ENDBRANCH  14  15
ENDBRANCH  10  14
ENDBRANCH   1  12
BRANCH   6  22
ATOM     22  S   UNL     1      -0.519  11.660  21.966  0.00  0.00    +0.000 S 
BRANCH  22  23
ATOM     23  C   UNL     1      -0.926  12.736  20.552  0.00  0.00    +0.000 C 
BRANCH  23  24
ATOM     24  C   UNL     1      -2.331  12.524  20.036  0.00  0.00    +0.000 A 
ATOM     25  C   UNL     1      -2.512  11.777  18.856  0.00  0.00    +0.000 A 
ATOM     26  C   UNL     1      -3.790  11.528  18.351  0.00  0.00    +0.000 A 
ATOM     27  C   UNL     1      -4.908  12.031  19.007  0.00  0.00    +0.000 A 
ATOM     28  C   UNL     1      -4.748  12.782  20.171  0.00  0.00    +0.000 A 
ATOM     29  C   UNL     1      -3.469  13.027  20.685  0.00  0.00    +0.000 A 
ATOM     30 CL   UNL     1      -3.361  13.948  22.142  0.00  0.00    +0.000 Cl
ENDBRANCH  23  24
ENDBRANCH  22  23
ENDBRANCH   6  22
TORSDOF 7
ENDMDL
MODEL 7
REMARK VINA RESULT:      -7.4      3.914      9.828
REMARK  Name = 
REMARK  8 active torsions:
REMARK  status: ('A' for Active; 'I' for Inactive)
REMARK    1  A    between atoms: C_1  and  N_2
REMARK    2  A    between atoms: C_6  and  S_7
REMARK    3  A    between atoms: S_7  and  C_8
REMARK    4  A    between atoms: C_8  and  C_9
REMARK    5  A    between atoms: N_11  and  C_12
REMARK    6  A    between atoms: C_17  and  S_18
REMARK    7  A    between atoms: S_18  and  C_19
REMARK    8  A    between atoms: C_19  and  C_20
REMARK                            x       y       z     vdW  Elec       q    Type
REMARK                         _______ _______ _______ _____ _____    ______ ____
ROOT
ATOM      1  C   UNL     1       1.169   9.651  19.785  0.00  0.00    +0.000 A 
ATOM      2  C   UNL     1       1.596   9.653  18.458  0.00  0.00    +0.000 A 
ATOM      3  C   UNL     1       2.088   8.497  17.852  0.00  0.00    +0.000 A 
ATOM      4  C   UNL     1       2.184   7.307  18.591  0.00  0.00    +0.000 A 
ATOM      5  N   UNL     1       2.679   6.109  18.113  0.00  0.00    +0.000 NA
ATOM      6  C   UNL     1       2.681   5.218  19.075  0.00  0.00    +0.000 A 
ATOM      7  S   UNL     1       2.016   5.725  20.569  0.00  0.00    +0.000 S 
ATOM      8  C   UNL     1       1.777   7.311  19.927  0.00  0.00    +0.000 A 
ATOM      9  C   UNL     1       1.273   8.473  20.547  0.00  0.00    +0.000 A 
ENDROOT
BRANCH   1  12
ATOM     10  C   UNL     1      -0.614  11.369  20.129  0.00  0.00    +0.000 C 
ATOM     11  O   UNL     1      -1.439  10.939  19.324  0.00  0.00    +0.000 OA
ATOM     12  N   UNL     1       0.623  10.796  20.407  0.00  0.00    +0.000 N 
ATOM     13  H   UNL     1       1.087  11.112  21.260  0.00  0.00    +0.000 HD
BRANCH  10  14
ATOM     14  C   UNL     1      -0.932  12.600  20.961  0.00  0.00    +0.000 C 
BRANCH  14  15
ATOM     15  S   UNL     1      -0.276  14.091  20.154  0.00  0.00    +0.000 S 
BRANCH  15  21
ATOM     16  C   UNL     1       2.602  13.419  18.829  0.00  0.00    +0.000 C 
ATOM     17  N   UNL     1       2.446  13.846  20.194  0.00  0.00    +0.000 N 
ATOM     18  C   UNL     1       3.452  14.060  21.088  0.00  0.00    +0.000 A 
ATOM     19  N   UNL     1       2.947  14.500  22.223  0.00  0.00    +0.000 NA
ATOM     20  N   UNL     1       1.583  14.554  22.078  0.00  0.00    +0.000 NA
ATOM     21  C   UNL     1       1.295  14.157  20.859  0.00  0.00    +0.000 A 
ENDBRANCH  15  21
ENDBRANCH  14  15
ENDBRANCH  10  14
ENDBRANCH   1  12
BRANCH   6  22
ATOM     22  S   UNL     1       3.366   3.626  18.809  0.00  0.00    +0.000 S 
BRANCH  22  23
ATOM     23  C   UNL     1       5.132   4.069  18.871  0.00  0.00    +0.000 C 
BRANCH  23  24
ATOM     24  C   UNL     1       5.713   4.368  17.507  0.00  0.00    +0.000 A 
ATOM     25  C   UNL     1       5.040   3.890  16.366  0.00  0.00    +0.000 A 
ATOM     26  C   UNL     1       5.518   4.162  15.083  0.00  0.00    +0.000 A 
ATOM     27  C   UNL     1       6.683   4.905  14.917  0.00  0.00    +0.000 A 
ATOM     28  C   UNL     1       7.369   5.376  16.035  0.00  0.00    +0.000 A 
ATOM     29  C   UNL     1       6.889   5.113  17.323  0.00  0.00    +0.000 A 
ATOM     30 CL   UNL     1       7.786   5.753  18.653  0.00  0.00    +0.000 Cl
ENDBRANCH  23  24
ENDBRANCH  22  23
ENDBRANCH   6  22
TORSDOF 7
ENDMDL
MODEL 8
REMARK VINA RESULT:      -7.4      2.689      3.100
REMARK  Name = 
REMARK  8 active torsions:
REMARK  status: ('A' for Active; 'I' for Inactive)
REMARK    1  A    between atoms: C_1  and  N_2
REMARK    2  A    between atoms: C_6  and  S_7
REMARK    3  A    between atoms: S_7  and  C_8
REMARK    4  A    between atoms: C_8  and  C_9
REMARK    5  A    between atoms: N_11  and  C_12
REMARK    6  A    between atoms: C_17  and  S_18
REMARK    7  A    between atoms: S_18  and  C_19
REMARK    8  A    between atoms: C_19  and  C_20
REMARK                            x       y       z     vdW  Elec       q    Type
REMARK                         _______ _______ _______ _____ _____    ______ ____
ROOT
ATOM      1  C   UNL     1       2.815   6.916  19.175  0.00  0.00    +0.000 A 
ATOM      2  C   UNL     1       2.691   7.598  17.966  0.00  0.00    +0.000 A 
ATOM      3  C   UNL     1       1.930   8.763  17.865  0.00  0.00    +0.000 A 
ATOM      4  C   UNL     1       1.250   9.254  18.991  0.00  0.00    +0.000 A 
ATOM      5  N   UNL     1       0.446  10.376  19.011  0.00  0.00    +0.000 NA
ATOM      6  C   UNL     1      -0.081  10.520  20.203  0.00  0.00    +0.000 A 
ATOM      7  S   UNL     1       0.416   9.387  21.386  0.00  0.00    +0.000 S 
ATOM      8  C   UNL     1       1.356   8.557  20.197  0.00  0.00    +0.000 A 
ATOM      9  C   UNL     1       2.127   7.382  20.310  0.00  0.00    +0.000 A 
ENDROOT
BRANCH   1  12
ATOM     10  C   UNL     1       3.936   4.859  18.303  0.00  0.00    +0.000 C 
ATOM     11  O   UNL     1       3.600   4.954  17.124  0.00  0.00    +0.000 OA
ATOM     12  N   UNL     1       3.618   5.761  19.313  0.00  0.00    +0.000 N 
ATOM     13  H   UNL     1       4.163   5.689  20.173  0.00  0.00    +0.000 HD
BRANCH  10  14
ATOM     14  C   UNL     1       4.821   3.708  18.752  0.00  0.00    +0.000 C 
BRANCH  14  15
ATOM     15  S   UNL     1       3.862   2.164  18.808  0.00  0.00    +0.000 S 
BRANCH  15  21
ATOM     16  C   UNL     1       0.663   2.657  18.863  0.00  0.00    +0.000 C 
ATOM     17  N   UNL     1       1.482   2.685  20.044  0.00  0.00    +0.000 N 
ATOM     18  C   UNL     1       1.043   2.877  21.321  0.00  0.00    +0.000 A 
ATOM     19  N   UNL     1       2.059   2.781  22.155  0.00  0.00    +0.000 NA
ATOM     20  N   UNL     1       3.188   2.544  21.410  0.00  0.00    +0.000 NA
ATOM     21  C   UNL     1       2.829   2.492  20.148  0.00  0.00    +0.000 A 
ENDBRANCH  15  21
ENDBRANCH  14  15
ENDBRANCH  10  14
ENDBRANCH   1  12
BRANCH   6  22
ATOM     22  S   UNL     1      -1.248  11.793  20.511  0.00  0.00    +0.000 S 
BRANCH  22  23
ATOM     23  C   UNL     1      -0.640  12.341  22.139  0.00  0.00    +0.000 C 
BRANCH  23  24
ATOM     24  C   UNL     1      -1.738  12.879  23.028  0.00  0.00    +0.000 A 
ATOM     25  C   UNL     1      -2.818  12.036  23.354  0.00  0.00    +0.000 A 
ATOM     26  C   UNL     1      -3.845  12.474  24.193  0.00  0.00    +0.000 A 
ATOM     27  C   UNL     1      -3.818  13.765  24.710  0.00  0.00    +0.000 A 
ATOM     28  C   UNL     1      -2.763  14.618  24.389  0.00  0.00    +0.000 A 
ATOM     29  C   UNL     1      -1.728  14.180  23.555  0.00  0.00    +0.000 A 
ATOM     30 CL   UNL     1      -0.448  15.292  23.224  0.00  0.00    +0.000 Cl
ENDBRANCH  23  24
ENDBRANCH  22  23
ENDBRANCH   6  22
TORSDOF 7
ENDMDL
MODEL 9
REMARK VINA RESULT:      -7.4      2.461      3.496
REMARK  Name = 
REMARK  8 active torsions:
REMARK  status: ('A' for Active; 'I' for Inactive)
REMARK    1  A    between atoms: C_1  and  N_2
REMARK    2  A    between atoms: C_6  and  S_7
REMARK    3  A    between atoms: S_7  and  C_8
REMARK    4  A    between atoms: C_8  and  C_9
REMARK    5  A    between atoms: N_11  and  C_12
REMARK    6  A    between atoms: C_17  and  S_18
REMARK    7  A    between atoms: S_18  and  C_19
REMARK    8  A    between atoms: C_19  and  C_20
REMARK                            x       y       z     vdW  Elec       q    Type
REMARK                         _______ _______ _______ _____ _____    ______ ____
ROOT
ATOM      1  C   UNL     1       2.300   7.369  19.232  0.00  0.00    +0.000 A 
ATOM      2  C   UNL     1       2.159   8.065  18.033  0.00  0.00    +0.000 A 
ATOM      3  C   UNL     1       1.571   9.329  17.992  0.00  0.00    +0.000 A 
ATOM      4  C   UNL     1       1.087   9.913  19.174  0.00  0.00    +0.000 A 
ATOM      5  N   UNL     1       0.463  11.142  19.259  0.00  0.00    +0.000 NA
ATOM      6  C   UNL     1       0.084  11.360  20.494  0.00  0.00    +0.000 A 
ATOM      7  S   UNL     1       0.523  10.163  21.637  0.00  0.00    +0.000 S 
ATOM      8  C   UNL     1       1.208   9.206  20.372  0.00  0.00    +0.000 A 
ATOM      9  C   UNL     1       1.805   7.929  20.423  0.00  0.00    +0.000 A 
ENDROOT
BRANCH   1  12
ATOM     10  C   UNL     1       2.359   4.929  19.772  0.00  0.00    +0.000 C 
ATOM     11  O   UNL     1       1.197   4.800  20.155  0.00  0.00    +0.000 OA
ATOM     12  N   UNL     1       2.933   6.107  19.305  0.00  0.00    +0.000 N 
ATOM     13  H   UNL     1       3.813   6.012  18.796  0.00  0.00    +0.000 HD
BRANCH  10  14
ATOM     14  C   UNL     1       3.286   3.726  19.732  0.00  0.00    +0.000 C 
BRANCH  14  15
ATOM     15  S   UNL     1       4.168   3.665  18.143  0.00  0.00    +0.000 S 
BRANCH  15  21
ATOM     16  C   UNL     1       6.738   4.381  16.307  0.00  0.00    +0.000 C 
ATOM     17  N   UNL     1       6.674   4.667  17.715  0.00  0.00    +0.000 N 
ATOM     18  C   UNL     1       7.635   5.295  18.451  0.00  0.00    +0.000 A 
ATOM     19  N   UNL     1       7.215   5.441  19.691  0.00  0.00    +0.000 NA
ATOM     20  N   UNL     1       5.965   4.879  19.776  0.00  0.00    +0.000 NA
ATOM     21  C   UNL     1       5.654   4.417  18.587  0.00  0.00    +0.000 A 
ENDBRANCH  15  21
ENDBRANCH  14  15
ENDBRANCH  10  14
ENDBRANCH   1  12
BRANCH   6  22
ATOM     22  S   UNL     1      -0.846  12.791  20.900  0.00  0.00    +0.000 S 
BRANCH  22  23
ATOM     23  C   UNL     1      -2.102  12.013  21.967  0.00  0.00    +0.000 C 
BRANCH  23  24
ATOM     24  C   UNL     1      -3.489  12.575  21.749  0.00  0.00    +0.000 A 
ATOM     25  C   UNL     1      -3.897  12.881  20.437  0.00  0.00    +0.000 A 
ATOM     26  C   UNL     1      -5.176  13.376  20.177  0.00  0.00    +0.000 A 
ATOM     27  C   UNL     1      -6.067  13.587  21.225  0.00  0.00    +0.000 A 
ATOM     28  C   UNL     1      -5.677  13.301  22.533  0.00  0.00    +0.000 A 
ATOM     29  C   UNL     1      -4.398  12.797  22.796  0.00  0.00    +0.000 A 
ATOM     30 CL   UNL     1      -4.003  12.448  24.441  0.00  0.00    +0.000 Cl
ENDBRANCH  23  24
ENDBRANCH  22  23
ENDBRANCH   6  22
TORSDOF 7
ENDMDL
