MODEL 1
REMARK VINA RESULT:      -8.6      0.000      0.000
REMARK  Name = 
REMARK  5 active torsions:
REMARK  status: ('A' for Active; 'I' for Inactive)
REMARK    1  A    between atoms: C_1  and  C_2
REMARK    2  A    between atoms: C_5  and  N_6
REMARK    3  A    between atoms: C_7  and  C_8
REMARK    4  A    between atoms: C_9  and  C_10
REMARK    5  A    between atoms: C_20  and  O_21
REMARK                            x       y       z     vdW  Elec       q    Type
REMARK                         _______ _______ _______ _____ _____    ______ ____
ROOT
ATOM      1  N   UNL     1       2.991   5.620  18.167  0.00  0.00    +0.000 N 
ATOM      2  C   UNL     1       2.571   4.315  18.464  0.00  0.00    +0.000 A 
ATOM      3  C   UNL     1       1.357   3.949  19.258  0.00  0.00    +0.000 C 
ATOM      4  C   UNL     1       3.419   3.408  17.839  0.00  0.00    +0.000 A 
ATOM      5  C   UNL     1       3.358   1.918  17.890  0.00  0.00    +0.000 C 
ATOM      6  C   UNL     1       4.375   4.163  17.128  0.00  0.00    +0.000 A 
ATOM      7  C   UNL     1       4.091   5.503  17.307  0.00  0.00    +0.000 A 
ATOM      8  C   UNL     1       4.982   6.606  16.798  0.00  0.00    +0.000 C 
ATOM      9  C   UNL     1       5.934   6.093  15.709  0.00  0.00    +0.000 C 
ATOM     10  C   UNL     1       6.566   4.758  16.076  0.00  0.00    +0.000 C 
ATOM     11  F   UNL     1       7.394   4.371  15.068  0.00  0.00    +0.000 F 
ATOM     12  F   UNL     1       7.357   4.920  17.170  0.00  0.00    +0.000 F 
ATOM     13  C   UNL     1       5.536   3.659  16.327  0.00  0.00    +0.000 C 
ENDROOT
BRANCH   1  18
ATOM     14  C   UNL     1       0.740  10.521  20.211  0.00  0.00    +0.000 C 
ATOM     15  C   UNL     1       1.322   9.245  19.673  0.00  0.00    +0.000 A 
ATOM     16  C   UNL     1       1.569   8.165  20.523  0.00  0.00    +0.000 A 
ATOM     17  C   UNL     1       2.136   6.984  20.031  0.00  0.00    +0.000 A 
ATOM     18  C   UNL     1       2.431   6.841  18.671  0.00  0.00    +0.000 A 
ATOM     19  C   UNL     1       2.170   7.917  17.812  0.00  0.00    +0.000 A 
ATOM     20  C   UNL     1       1.641   9.109  18.320  0.00  0.00    +0.000 A 
BRANCH  20  21
ATOM     21  O   UNL     1       1.424  10.177  17.495  0.00  0.00    +0.000 OA
ATOM     22  H   UNL     1       0.498  10.168  17.204  0.00  0.00    +0.000 HD
ENDBRANCH  20  21
ENDBRANCH   1  18
TORSDOF 2
ENDMDL
MODEL 2
REMARK VINA RESULT:      -8.5      1.028      1.466
REMARK  Name = 
REMARK  5 active torsions:
REMARK  status: ('A' for Active; 'I' for Inactive)
REMARK    1  A    between atoms: C_1  and  C_2
REMARK    2  A    between atoms: C_5  and  N_6
REMARK    3  A    between atoms: C_7  and  C_8
REMARK    4  A    between atoms: C_9  and  C_10
REMARK    5  A    between atoms: C_20  and  O_21
REMARK                            x       y       z     vdW  Elec       q    Type
REMARK                         _______ _______ _______ _____ _____    ______ ____
ROOT
ATOM      1  N   UNL     1       2.951   5.657  18.138  0.00  0.00    +0.000 N 
ATOM      2  C   UNL     1       2.527   4.351  18.425  0.00  0.00    +0.000 A 
ATOM      3  C   UNL     1       1.309   3.981  19.211  0.00  0.00    +0.000 C 
ATOM      4  C   UNL     1       3.377   3.446  17.798  0.00  0.00    +0.000 A 
ATOM      5  C   UNL     1       3.313   1.956  17.839  0.00  0.00    +0.000 C 
ATOM      6  C   UNL     1       4.337   4.203  17.095  0.00  0.00    +0.000 A 
ATOM      7  C   UNL     1       4.054   5.543  17.282  0.00  0.00    +0.000 A 
ATOM      8  C   UNL     1       4.950   6.648  16.784  0.00  0.00    +0.000 C 
ATOM      9  C   UNL     1       5.906   6.140  15.696  0.00  0.00    +0.000 C 
ATOM     10  C   UNL     1       6.533   4.802  16.057  0.00  0.00    +0.000 C 
ATOM     11  F   UNL     1       7.364   4.420  15.050  0.00  0.00    +0.000 F 
ATOM     12  F   UNL     1       7.320   4.955  17.155  0.00  0.00    +0.000 F 
ATOM     13  C   UNL     1       5.501   3.703  16.296  0.00  0.00    +0.000 C 
ENDROOT
BRANCH   1  18
ATOM     14  C   UNL     1       0.692  10.559  20.169  0.00  0.00    +0.000 C 
ATOM     15  C   UNL     1       1.285   9.283  19.646  0.00  0.00    +0.000 A 
ATOM     16  C   UNL     1       1.464   9.095  18.273  0.00  0.00    +0.000 A 
ATOM     17  C   UNL     1       1.991   7.897  17.779  0.00  0.00    +0.000 A 
ATOM     18  C   UNL     1       2.390   6.875  18.647  0.00  0.00    +0.000 A 
ATOM     19  C   UNL     1       2.227   7.065  20.027  0.00  0.00    +0.000 A 
ATOM     20  C   UNL     1       1.660   8.251  20.509  0.00  0.00    +0.000 A 
BRANCH  20  21
ATOM     21  O   UNL     1       1.459   8.426  21.850  0.00  0.00    +0.000 OA
ATOM     22  H   UNL     1       1.381   7.556  22.274  0.00  0.00    +0.000 HD
ENDBRANCH  20  21
ENDBRANCH   1  18
TORSDOF 2
ENDMDL
MODEL 3
REMARK VINA RESULT:      -8.0      3.097      6.106
REMARK  Name = 
REMARK  5 active torsions:
REMARK  status: ('A' for Active; 'I' for Inactive)
REMARK    1  A    between atoms: C_1  and  C_2
REMARK    2  A    between atoms: C_5  and  N_6
REMARK    3  A    between atoms: C_7  and  C_8
REMARK    4  A    between atoms: C_9  and  C_10
REMARK    5  A    between atoms: C_20  and  O_21
REMARK                            x       y       z     vdW  Elec       q    Type
REMARK                         _______ _______ _______ _____ _____    ______ ____
ROOT
ATOM      1  N   UNL     1       3.483   5.474  18.226  0.00  0.00    +0.000 N 
ATOM      2  C   UNL     1       2.950   6.691  18.676  0.00  0.00    +0.000 A 
ATOM      3  C   UNL     1       3.193   8.032  18.058  0.00  0.00    +0.000 C 
ATOM      4  C   UNL     1       2.094   6.449  19.745  0.00  0.00    +0.000 A 
ATOM      5  C   UNL     1       1.321   7.447  20.539  0.00  0.00    +0.000 C 
ATOM      6  C   UNL     1       2.083   5.054  19.953  0.00  0.00    +0.000 A 
ATOM      7  C   UNL     1       2.904   4.467  19.010  0.00  0.00    +0.000 A 
ATOM      8  C   UNL     1       3.237   2.997  19.011  0.00  0.00    +0.000 C 
ATOM      9  C   UNL     1       2.229   2.201  19.852  0.00  0.00    +0.000 C 
ATOM     10  C   UNL     1       1.921   2.879  21.179  0.00  0.00    +0.000 C 
ATOM     11  F   UNL     1       1.027   2.116  21.865  0.00  0.00    +0.000 F 
ATOM     12  F   UNL     1       3.047   2.911  21.939  0.00  0.00    +0.000 F 
ATOM     13  C   UNL     1       1.354   4.286  21.013  0.00  0.00    +0.000 C 
ENDROOT
BRANCH   1  18
ATOM     14  C   UNL     1       7.394   4.734  14.053  0.00  0.00    +0.000 C 
ATOM     15  C   UNL     1       6.382   4.926  15.145  0.00  0.00    +0.000 A 
ATOM     16  C   UNL     1       5.181   4.213  15.132  0.00  0.00    +0.000 A 
ATOM     17  C   UNL     1       4.222   4.409  16.132  0.00  0.00    +0.000 A 
ATOM     18  C   UNL     1       4.459   5.292  17.191  0.00  0.00    +0.000 A 
ATOM     19  C   UNL     1       5.669   5.999  17.216  0.00  0.00    +0.000 A 
ATOM     20  C   UNL     1       6.605   5.827  16.189  0.00  0.00    +0.000 A 
BRANCH  20  21
ATOM     21  O   UNL     1       7.768   6.545  16.185  0.00  0.00    +0.000 OA
ATOM     22  H   UNL     1       7.791   7.114  16.971  0.00  0.00    +0.000 HD
ENDBRANCH  20  21
ENDBRANCH   1  18
TORSDOF 2
ENDMDL
MODEL 4
REMARK VINA RESULT:      -7.9      2.589      3.907
REMARK  Name = 
REMARK  5 active torsions:
REMARK  status: ('A' for Active; 'I' for Inactive)
REMARK    1  A    between atoms: C_1  and  C_2
REMARK    2  A    between atoms: C_5  and  N_6
REMARK    3  A    between atoms: C_7  and  C_8
REMARK    4  A    between atoms: C_9  and  C_10
REMARK    5  A    between atoms: C_20  and  O_21
REMARK                            x       y       z     vdW  Elec       q    Type
REMARK                         _______ _______ _______ _____ _____    ______ ____
ROOT
ATOM      1  N   UNL     1       2.638   6.293  18.739  0.00  0.00    +0.000 N 
ATOM      2  C   UNL     1       3.645   6.129  17.776  0.00  0.00    +0.000 A 
ATOM      3  C   UNL     1       4.422   7.232  17.129  0.00  0.00    +0.000 C 
ATOM      4  C   UNL     1       3.864   4.771  17.570  0.00  0.00    +0.000 A 
ATOM      5  C   UNL     1       4.831   4.136  16.628  0.00  0.00    +0.000 C 
ATOM      6  C   UNL     1       2.988   4.079  18.432  0.00  0.00    +0.000 A 
ATOM      7  C   UNL     1       2.269   5.008  19.159  0.00  0.00    +0.000 A 
ATOM      8  C   UNL     1       1.144   4.632  20.087  0.00  0.00    +0.000 C 
ATOM      9  C   UNL     1       1.210   3.146  20.466  0.00  0.00    +0.000 C 
ATOM     10  C   UNL     1       1.491   2.256  19.264  0.00  0.00    +0.000 C 
ATOM     11  F   UNL     1       1.533   0.960  19.677  0.00  0.00    +0.000 F 
ATOM     12  F   UNL     1       0.452   2.338  18.391  0.00  0.00    +0.000 F 
ATOM     13  C   UNL     1       2.801   2.598  18.560  0.00  0.00    +0.000 C 
ENDROOT
BRANCH   1  18
ATOM     14  C   UNL     1       0.346  11.267  20.548  0.00  0.00    +0.000 C 
ATOM     15  C   UNL     1       0.938   9.972  20.071  0.00  0.00    +0.000 A 
ATOM     16  C   UNL     1       1.205   8.940  20.974  0.00  0.00    +0.000 A 
ATOM     17  C   UNL     1       1.782   7.741  20.538  0.00  0.00    +0.000 A 
ATOM     18  C   UNL     1       2.067   7.531  19.185  0.00  0.00    +0.000 A 
ATOM     19  C   UNL     1       1.787   8.559  18.273  0.00  0.00    +0.000 A 
ATOM     20  C   UNL     1       1.248   9.770  18.724  0.00  0.00    +0.000 A 
BRANCH  20  21
ATOM     21  O   UNL     1       1.011  10.791  17.847  0.00  0.00    +0.000 OA
ATOM     22  H   UNL     1       1.860  11.176  17.574  0.00  0.00    +0.000 HD
ENDBRANCH  20  21
ENDBRANCH   1  18
TORSDOF 2
ENDMDL
MODEL 5
REMARK VINA RESULT:      -7.9      2.715      4.127
REMARK  Name = 
REMARK  5 active torsions:
REMARK  status: ('A' for Active; 'I' for Inactive)
REMARK    1  A    between atoms: C_1  and  C_2
REMARK    2  A    between atoms: C_5  and  N_6
REMARK    3  A    between atoms: C_7  and  C_8
REMARK    4  A    between atoms: C_9  and  C_10
REMARK    5  A    between atoms: C_20  and  O_21
REMARK                            x       y       z     vdW  Elec       q    Type
REMARK                         _______ _______ _______ _____ _____    ______ ____
ROOT
ATOM      1  N   UNL     1       2.725   6.263  18.566  0.00  0.00    +0.000 N 
ATOM      2  C   UNL     1       3.775   6.036  17.664  0.00  0.00    +0.000 A 
ATOM      3  C   UNL     1       4.585   7.095  16.984  0.00  0.00    +0.000 C 
ATOM      4  C   UNL     1       3.999   4.668  17.557  0.00  0.00    +0.000 A 
ATOM      5  C   UNL     1       5.006   3.973  16.703  0.00  0.00    +0.000 C 
ATOM      6  C   UNL     1       3.082   4.033  18.420  0.00  0.00    +0.000 A 
ATOM      7  C   UNL     1       2.333   5.008  19.051  0.00  0.00    +0.000 A 
ATOM      8  C   UNL     1       1.165   4.693  19.948  0.00  0.00    +0.000 C 
ATOM      9  C   UNL     1       1.208   3.234  20.425  0.00  0.00    +0.000 C 
ATOM     10  C   UNL     1       1.541   2.269  19.297  0.00  0.00    +0.000 C 
ATOM     11  F   UNL     1       1.559   1.002  19.795  0.00  0.00    +0.000 F 
ATOM     12  F   UNL     1       0.544   2.294  18.373  0.00  0.00    +0.000 F 
ATOM     13  C   UNL     1       2.883   2.564  18.634  0.00  0.00    +0.000 C 
ENDROOT
BRANCH   1  18
ATOM     14  C   UNL     1       0.364  11.351  19.907  0.00  0.00    +0.000 C 
ATOM     15  C   UNL     1       0.983  10.027  19.563  0.00  0.00    +0.000 A 
ATOM     16  C   UNL     1       1.276   9.704  18.236  0.00  0.00    +0.000 A 
ATOM     17  C   UNL     1       1.827   8.460  17.909  0.00  0.00    +0.000 A 
ATOM     18  C   UNL     1       2.139   7.528  18.904  0.00  0.00    +0.000 A 
ATOM     19  C   UNL     1       1.861   7.854  20.239  0.00  0.00    +0.000 A 
ATOM     20  C   UNL     1       1.271   9.084  20.553  0.00  0.00    +0.000 A 
BRANCH  20  21
ATOM     21  O   UNL     1       0.959   9.391  21.848  0.00  0.00    +0.000 OA
ATOM     22  H   UNL     1       1.499   8.845  22.441  0.00  0.00    +0.000 HD
ENDBRANCH  20  21
ENDBRANCH   1  18
TORSDOF 2
ENDMDL
MODEL 6
REMARK VINA RESULT:      -7.4      2.082      3.405
REMARK  Name = 
REMARK  5 active torsions:
REMARK  status: ('A' for Active; 'I' for Inactive)
REMARK    1  A    between atoms: C_1  and  C_2
REMARK    2  A    between atoms: C_5  and  N_6
REMARK    3  A    between atoms: C_7  and  C_8
REMARK    4  A    between atoms: C_9  and  C_10
REMARK    5  A    between atoms: C_20  and  O_21
REMARK                            x       y       z     vdW  Elec       q    Type
REMARK                         _______ _______ _______ _____ _____    ______ ____
ROOT
ATOM      1  N   UNL     1       3.296   6.151  18.195  0.00  0.00    +0.000 N 
ATOM      2  C   UNL     1       4.299   6.247  17.219  0.00  0.00    +0.000 A 
ATOM      3  C   UNL     1       4.847   7.519  16.652  0.00  0.00    +0.000 C 
ATOM      4  C   UNL     1       4.763   4.972  16.912  0.00  0.00    +0.000 A 
ATOM      5  C   UNL     1       5.814   4.597  15.922  0.00  0.00    +0.000 C 
ATOM      6  C   UNL     1       4.045   4.068  17.724  0.00  0.00    +0.000 A 
ATOM      7  C   UNL     1       3.179   4.793  18.520  0.00  0.00    +0.000 A 
ATOM      8  C   UNL     1       2.159   4.148  19.422  0.00  0.00    +0.000 C 
ATOM      9  C   UNL     1       2.506   2.677  19.690  0.00  0.00    +0.000 C 
ATOM     10  C   UNL     1       2.926   1.944  18.425  0.00  0.00    +0.000 C 
ATOM     11  F   UNL     1       3.214   0.652  18.740  0.00  0.00    +0.000 F 
ATOM     12  F   UNL     1       1.875   1.894  17.564  0.00  0.00    +0.000 F 
ATOM     13  C   UNL     1       4.138   2.574  17.743  0.00  0.00    +0.000 C 
ENDROOT
BRANCH   1  18
ATOM     14  C   UNL     1       0.155  10.468  20.376  0.00  0.00    +0.000 C 
ATOM     15  C   UNL     1       0.968   9.343  19.802  0.00  0.00    +0.000 A 
ATOM     16  C   UNL     1       1.421   8.307  20.621  0.00  0.00    +0.000 A 
ATOM     17  C   UNL     1       2.203   7.272  20.096  0.00  0.00    +0.000 A 
ATOM     18  C   UNL     1       2.514   7.226  18.733  0.00  0.00    +0.000 A 
ATOM     19  C   UNL     1       2.048   8.256  17.905  0.00  0.00    +0.000 A 
ATOM     20  C   UNL     1       1.302   9.310  18.446  0.00  0.00    +0.000 A 
BRANCH  20  21
ATOM     21  O   UNL     1       0.880  10.339  17.652  0.00  0.00    +0.000 OA
ATOM     22  H   UNL     1       1.454  11.108  17.800  0.00  0.00    +0.000 HD
ENDBRANCH  20  21
ENDBRANCH   1  18
TORSDOF 2
ENDMDL
MODEL 7
REMARK VINA RESULT:      -7.3      2.930      4.670
REMARK  Name = 
REMARK  5 active torsions:
REMARK  status: ('A' for Active; 'I' for Inactive)
REMARK    1  A    between atoms: C_1  and  C_2
REMARK    2  A    between atoms: C_5  and  N_6
REMARK    3  A    between atoms: C_7  and  C_8
REMARK    4  A    between atoms: C_9  and  C_10
REMARK    5  A    between atoms: C_20  and  O_21
REMARK                            x       y       z     vdW  Elec       q    Type
REMARK                         _______ _______ _______ _____ _____    ______ ____
ROOT
ATOM      1  N   UNL     1       1.900   7.898  19.638  0.00  0.00    +0.000 N 
ATOM      2  C   UNL     1       2.575   8.237  18.456  0.00  0.00    +0.000 A 
ATOM      3  C   UNL     1       2.691   9.613  17.881  0.00  0.00    +0.000 C 
ATOM      4  C   UNL     1       3.189   7.101  17.939  0.00  0.00    +0.000 A 
ATOM      5  C   UNL     1       4.000   6.991  16.692  0.00  0.00    +0.000 C 
ATOM      6  C   UNL     1       2.902   6.041  18.824  0.00  0.00    +0.000 A 
ATOM      7  C   UNL     1       2.145   6.538  19.867  0.00  0.00    +0.000 A 
ATOM      8  C   UNL     1       1.545   5.662  20.936  0.00  0.00    +0.000 C 
ATOM      9  C   UNL     1       2.237   4.293  20.985  0.00  0.00    +0.000 C 
ATOM     10  C   UNL     1       2.452   3.705  19.598  0.00  0.00    +0.000 C 
ATOM     11  F   UNL     1       3.065   2.497  19.724  0.00  0.00    +0.000 F 
ATOM     12  F   UNL     1       1.246   3.456  19.023  0.00  0.00    +0.000 F 
ATOM     13  C   UNL     1       3.294   4.601  18.694  0.00  0.00    +0.000 C 
ENDROOT
BRANCH   1  18
ATOM     14  C   UNL     1      -1.388  11.380  22.852  0.00  0.00    +0.000 C 
ATOM     15  C   UNL     1      -0.526  10.476  22.019  0.00  0.00    +0.000 A 
ATOM     16  C   UNL     1      -0.642  10.470  20.628  0.00  0.00    +0.000 A 
ATOM     17  C   UNL     1       0.140   9.609  19.849  0.00  0.00    +0.000 A 
ATOM     18  C   UNL     1       1.084   8.764  20.441  0.00  0.00    +0.000 A 
ATOM     19  C   UNL     1       1.215   8.777  21.837  0.00  0.00    +0.000 A 
ATOM     20  C   UNL     1       0.399   9.612  22.610  0.00  0.00    +0.000 A 
BRANCH  20  21
ATOM     21  O   UNL     1       0.492   9.600  23.974  0.00  0.00    +0.000 OA
ATOM     22  H   UNL     1       1.285  10.092  24.241  0.00  0.00    +0.000 HD
ENDBRANCH  20  21
ENDBRANCH   1  18
TORSDOF 2
ENDMDL
MODEL 8
REMARK VINA RESULT:      -7.3      3.176      6.100
REMARK  Name = 
REMARK  5 active torsions:
REMARK  status: ('A' for Active; 'I' for Inactive)
REMARK    1  A    between atoms: C_1  and  C_2
REMARK    2  A    between atoms: C_5  and  N_6
REMARK    3  A    between atoms: C_7  and  C_8
REMARK    4  A    between atoms: C_9  and  C_10
REMARK    5  A    between atoms: C_20  and  O_21
REMARK                            x       y       z     vdW  Elec       q    Type
REMARK                         _______ _______ _______ _____ _____    ______ ____
ROOT
ATOM      1  N   UNL     1       3.686   5.465  18.107  0.00  0.00    +0.000 N 
ATOM      2  C   UNL     1       3.120   6.665  18.561  0.00  0.00    +0.000 A 
ATOM      3  C   UNL     1       3.351   8.019  17.966  0.00  0.00    +0.000 C 
ATOM      4  C   UNL     1       2.246   6.392  19.608  0.00  0.00    +0.000 A 
ATOM      5  C   UNL     1       1.438   7.366  20.399  0.00  0.00    +0.000 C 
ATOM      6  C   UNL     1       2.257   4.995  19.798  0.00  0.00    +0.000 A 
ATOM      7  C   UNL     1       3.110   4.436  18.864  0.00  0.00    +0.000 A 
ATOM      8  C   UNL     1       3.470   2.973  18.853  0.00  0.00    +0.000 C 
ATOM      9  C   UNL     1       2.460   2.147  19.662  0.00  0.00    +0.000 C 
ATOM     10  C   UNL     1       2.111   2.801  20.991  0.00  0.00    +0.000 C 
ATOM     11  F   UNL     1       1.218   2.012  21.647  0.00  0.00    +0.000 F 
ATOM     12  F   UNL     1       3.221   2.844  21.775  0.00  0.00    +0.000 F 
ATOM     13  C   UNL     1       1.522   4.199  20.832  0.00  0.00    +0.000 C 
ENDROOT
BRANCH   1  18
ATOM     14  C   UNL     1       7.721   4.869  14.030  0.00  0.00    +0.000 C 
ATOM     15  C   UNL     1       6.666   5.027  15.086  0.00  0.00    +0.000 A 
ATOM     16  C   UNL     1       6.963   5.655  16.297  0.00  0.00    +0.000 A 
ATOM     17  C   UNL     1       5.990   5.780  17.295  0.00  0.00    +0.000 A 
ATOM     18  C   UNL     1       4.686   5.315  17.090  0.00  0.00    +0.000 A 
ATOM     19  C   UNL     1       4.380   4.697  15.869  0.00  0.00    +0.000 A 
ATOM     20  C   UNL     1       5.371   4.540  14.893  0.00  0.00    +0.000 A 
BRANCH  20  21
ATOM     21  O   UNL     1       5.089   3.901  13.718  0.00  0.00    +0.000 OA
ATOM     22  H   UNL     1       5.709   4.206  13.036  0.00  0.00    +0.000 HD
ENDBRANCH  20  21
ENDBRANCH   1  18
TORSDOF 2
ENDMDL
MODEL 9
REMARK VINA RESULT:      -7.0      5.160      8.482
REMARK  Name = 
REMARK  5 active torsions:
REMARK  status: ('A' for Active; 'I' for Inactive)
REMARK    1  A    between atoms: C_1  and  C_2
REMARK    2  A    between atoms: C_5  and  N_6
REMARK    3  A    between atoms: C_7  and  C_8
REMARK    4  A    between atoms: C_9  and  C_10
REMARK    5  A    between atoms: C_20  and  O_21
REMARK                            x       y       z     vdW  Elec       q    Type
REMARK                         _______ _______ _______ _____ _____    ______ ____
ROOT
ATOM      1  N   UNL     1      -0.138  10.359  19.209  0.00  0.00    +0.000 N 
ATOM      2  C   UNL     1      -0.198  11.286  20.260  0.00  0.00    +0.000 A 
ATOM      3  C   UNL     1       0.861  11.500  21.296  0.00  0.00    +0.000 C 
ATOM      4  C   UNL     1      -1.366  12.032  20.147  0.00  0.00    +0.000 A 
ATOM      5  C   UNL     1      -1.846  13.117  21.052  0.00  0.00    +0.000 C 
ATOM      6  C   UNL     1      -2.037  11.572  18.996  0.00  0.00    +0.000 A 
ATOM      7  C   UNL     1      -1.272  10.578  18.415  0.00  0.00    +0.000 A 
ATOM      8  C   UNL     1      -1.741   9.764  17.237  0.00  0.00    +0.000 C 
ATOM      9  C   UNL     1      -2.900  10.459  16.508  0.00  0.00    +0.000 C 
ATOM     10  C   UNL     1      -3.940  11.010  17.472  0.00  0.00    +0.000 C 
ATOM     11  F   UNL     1      -4.931  11.606  16.755  0.00  0.00    +0.000 F 
ATOM     12  F   UNL     1      -4.526   9.980  18.138  0.00  0.00    +0.000 F 
ATOM     13  C   UNL     1      -3.363  12.019  18.461  0.00  0.00    +0.000 C 
ENDROOT
BRANCH   1  18
ATOM     14  C   UNL     1       3.907   6.338  18.359  0.00  0.00    +0.000 C 
ATOM     15  C   UNL     1       2.849   7.380  18.583  0.00  0.00    +0.000 A 
ATOM     16  C   UNL     1       2.601   8.357  17.617  0.00  0.00    +0.000 A 
ATOM     17  C   UNL     1       1.636   9.347  17.833  0.00  0.00    +0.000 A 
ATOM     18  C   UNL     1       0.866   9.357  19.001  0.00  0.00    +0.000 A 
ATOM     19  C   UNL     1       1.101   8.368  19.967  0.00  0.00    +0.000 A 
ATOM     20  C   UNL     1       2.098   7.407  19.760  0.00  0.00    +0.000 A 
BRANCH  20  21
ATOM     21  O   UNL     1       2.360   6.466  20.716  0.00  0.00    +0.000 OA
ATOM     22  H   UNL     1       2.530   5.614  20.282  0.00  0.00    +0.000 HD
ENDBRANCH  20  21
ENDBRANCH   1  18
TORSDOF 2
ENDMDL
