MODEL 1
REMARK VINA RESULT:      -5.6      0.000      0.000
REMARK  Name = 
REMARK  6 active torsions:
REMARK  status: ('A' for Active; 'I' for Inactive)
REMARK    1  A    between atoms: C_1  and  C_2
REMARK    2  A    between atoms: C_5  and  N_6
REMARK    3  A    between atoms: N_6  and  C_7
REMARK    4  A    between atoms: C_7  and  C_8
REMARK    5  A    between atoms: C_8  and  O_9
REMARK    6  A    between atoms: C_8  and  C_10
REMARK                            x       y       z     vdW  Elec       q    Type
REMARK                         _______ _______ _______ _____ _____    ______ ____
ROOT
ATOM      1  N   UNL     1       5.422   3.531  16.763  0.00  0.00    +0.000 N 
ATOM      2  H   UNL     1       6.239   3.253  17.303  0.00  0.00    +0.000 HD
ENDROOT
BRANCH   1   7
ATOM      3  C   UNL     1       0.900   3.969  20.288  0.00  0.00    +0.000 C 
ATOM      4  C   UNL     1       2.082   3.889  19.370  0.00  0.00    +0.000 A 
ATOM      5  C   UNL     1       3.374   4.100  19.853  0.00  0.00    +0.000 A 
ATOM      6  C   UNL     1       4.477   3.996  19.001  0.00  0.00    +0.000 A 
ATOM      7  C   UNL     1       4.329   3.644  17.656  0.00  0.00    +0.000 A 
ATOM      8  C   UNL     1       3.022   3.509  17.162  0.00  0.00    +0.000 A 
ATOM      9  C   UNL     1       1.913   3.613  18.012  0.00  0.00    +0.000 A 
ENDBRANCH   1   7
BRANCH   1  10
ATOM     10  C   UNL     1       5.690   4.743  15.961  0.00  0.00    +0.000 C 
BRANCH  10  11
ATOM     11  C   UNL     1       7.046   5.377  16.331  0.00  0.00    +0.000 C 
BRANCH  11  12
ATOM     12  O   UNL     1       7.923   4.355  16.832  0.00  0.00    +0.000 OA
ATOM     13  H   UNL     1       8.615   4.239  16.151  0.00  0.00    +0.000 HD
ENDBRANCH  11  12
BRANCH  11  14
ATOM     14  C   UNL     1       6.983   6.507  17.359  0.00  0.00    +0.000 C 
ATOM     15 CL   UNL     1       7.768   6.093  18.897  0.00  0.00    +0.000 Cl
ENDBRANCH  11  14
ENDBRANCH  10  11
ENDBRANCH   1  10
TORSDOF 5
ENDMDL
MODEL 2
REMARK VINA RESULT:      -5.6      0.905      1.602
REMARK  Name = 
REMARK  6 active torsions:
REMARK  status: ('A' for Active; 'I' for Inactive)
REMARK    1  A    between atoms: C_1  and  C_2
REMARK    2  A    between atoms: C_5  and  N_6
REMARK    3  A    between atoms: N_6  and  C_7
REMARK    4  A    between atoms: C_7  and  C_8
REMARK    5  A    between atoms: C_8  and  O_9
REMARK    6  A    between atoms: C_8  and  C_10
REMARK                            x       y       z     vdW  Elec       q    Type
REMARK                         _______ _______ _______ _____ _____    ______ ____
ROOT
ATOM      1  N   UNL     1       5.373   3.268  16.765  0.00  0.00    +0.000 N 
ATOM      2  H   UNL     1       6.168   3.022  17.352  0.00  0.00    +0.000 HD
ENDROOT
BRANCH   1   7
ATOM      3  C   UNL     1       0.919   4.107  20.304  0.00  0.00    +0.000 C 
ATOM      4  C   UNL     1       2.071   3.855  19.378  0.00  0.00    +0.000 A 
ATOM      5  C   UNL     1       1.859   3.676  18.011  0.00  0.00    +0.000 A 
ATOM      6  C   UNL     1       2.937   3.470  17.146  0.00  0.00    +0.000 A 
ATOM      7  C   UNL     1       4.256   3.474  17.610  0.00  0.00    +0.000 A 
ATOM      8  C   UNL     1       4.454   3.579  18.996  0.00  0.00    +0.000 A 
ATOM      9  C   UNL     1       3.377   3.784  19.868  0.00  0.00    +0.000 A 
ENDBRANCH   1   7
BRANCH   1  10
ATOM     10  C   UNL     1       5.690   4.404  15.875  0.00  0.00    +0.000 C 
BRANCH  10  11
ATOM     11  C   UNL     1       7.012   5.088  16.278  0.00  0.00    +0.000 C 
BRANCH  11  12
ATOM     12  O   UNL     1       7.847   4.133  16.954  0.00  0.00    +0.000 OA
ATOM     13  H   UNL     1       7.370   3.280  16.907  0.00  0.00    +0.000 HD
ENDBRANCH  11  12
BRANCH  11  14
ATOM     14  C   UNL     1       6.868   6.321  17.169  0.00  0.00    +0.000 C 
ATOM     15 CL   UNL     1       5.197   6.906  17.285  0.00  0.00    +0.000 Cl
ENDBRANCH  11  14
ENDBRANCH  10  11
ENDBRANCH   1  10
TORSDOF 5
ENDMDL
MODEL 3
REMARK VINA RESULT:      -5.5      2.315      2.581
REMARK  Name = 
REMARK  6 active torsions:
REMARK  status: ('A' for Active; 'I' for Inactive)
REMARK    1  A    between atoms: C_1  and  C_2
REMARK    2  A    between atoms: C_5  and  N_6
REMARK    3  A    between atoms: N_6  and  C_7
REMARK    4  A    between atoms: C_7  and  C_8
REMARK    5  A    between atoms: C_8  and  O_9
REMARK    6  A    between atoms: C_8  and  C_10
REMARK                            x       y       z     vdW  Elec       q    Type
REMARK                         _______ _______ _______ _____ _____    ______ ____
ROOT
ATOM      1  N   UNL     1       5.837   3.930  17.079  0.00  0.00    +0.000 N 
ATOM      2  H   UNL     1       6.568   4.233  17.720  0.00  0.00    +0.000 HD
ENDROOT
BRANCH   1   7
ATOM      3  C   UNL     1       0.868   3.517  19.944  0.00  0.00    +0.000 C 
ATOM      4  C   UNL     1       2.165   3.658  19.206  0.00  0.00    +0.000 A 
ATOM      5  C   UNL     1       3.369   3.780  19.900  0.00  0.00    +0.000 A 
ATOM      6  C   UNL     1       4.580   3.883  19.209  0.00  0.00    +0.000 A 
ATOM      7  C   UNL     1       4.630   3.829  17.813  0.00  0.00    +0.000 A 
ATOM      8  C   UNL     1       3.409   3.783  17.122  0.00  0.00    +0.000 A 
ATOM      9  C   UNL     1       2.192   3.682  17.810  0.00  0.00    +0.000 A 
ENDBRANCH   1   7
BRANCH   1  10
ATOM     10  C   UNL     1       5.763   4.806  15.891  0.00  0.00    +0.000 C 
BRANCH  10  11
ATOM     11  C   UNL     1       6.721   4.333  14.779  0.00  0.00    +0.000 C 
BRANCH  11  12
ATOM     12  O   UNL     1       7.607   5.411  14.432  0.00  0.00    +0.000 OA
ATOM     13  H   UNL     1       8.120   5.096  13.660  0.00  0.00    +0.000 HD
ENDBRANCH  11  12
BRANCH  11  14
ATOM     14  C   UNL     1       6.047   3.831  13.501  0.00  0.00    +0.000 C 
ATOM     15 CL   UNL     1       7.063   4.023  12.058  0.00  0.00    +0.000 Cl
ENDBRANCH  11  14
ENDBRANCH  10  11
ENDBRANCH   1  10
TORSDOF 5
ENDMDL
MODEL 4
REMARK VINA RESULT:      -5.5      3.138      5.405
REMARK  Name = 
REMARK  6 active torsions:
REMARK  status: ('A' for Active; 'I' for Inactive)
REMARK    1  A    between atoms: C_1  and  C_2
REMARK    2  A    between atoms: C_5  and  N_6
REMARK    3  A    between atoms: N_6  and  C_7
REMARK    4  A    between atoms: C_7  and  C_8
REMARK    5  A    between atoms: C_8  and  O_9
REMARK    6  A    between atoms: C_8  and  C_10
REMARK                            x       y       z     vdW  Elec       q    Type
REMARK                         _______ _______ _______ _____ _____    ______ ____
ROOT
ATOM      1  N   UNL     1       5.412   3.598  18.866  0.00  0.00    +0.000 N 
ATOM      2  H   UNL     1       6.108   2.855  18.830  0.00  0.00    +0.000 HD
ENDROOT
BRANCH   1   7
ATOM      3  C   UNL     1       7.960   8.577  17.531  0.00  0.00    +0.000 C 
ATOM      4  C   UNL     1       7.321   7.263  17.862  0.00  0.00    +0.000 A 
ATOM      5  C   UNL     1       7.898   6.406  18.799  0.00  0.00    +0.000 A 
ATOM      6  C   UNL     1       7.285   5.194  19.127  0.00  0.00    +0.000 A 
ATOM      7  C   UNL     1       6.063   4.818  18.560  0.00  0.00    +0.000 A 
ATOM      8  C   UNL     1       5.528   5.649  17.563  0.00  0.00    +0.000 A 
ATOM      9  C   UNL     1       6.140   6.865  17.229  0.00  0.00    +0.000 A 
ENDBRANCH   1   7
BRANCH   1  10
ATOM     10  C   UNL     1       4.247   3.290  18.011  0.00  0.00    +0.000 C 
BRANCH  10  11
ATOM     11  C   UNL     1       3.356   2.199  18.639  0.00  0.00    +0.000 C 
BRANCH  11  12
ATOM     12  O   UNL     1       2.381   1.774  17.673  0.00  0.00    +0.000 OA
ATOM     13  H   UNL     1       2.691   2.120  16.811  0.00  0.00    +0.000 HD
ENDBRANCH  11  12
BRANCH  11  14
ATOM     14  C   UNL     1       2.624   2.605  19.919  0.00  0.00    +0.000 C 
ATOM     15 CL   UNL     1       0.898   2.930  19.659  0.00  0.00    +0.000 Cl
ENDBRANCH  11  14
ENDBRANCH  10  11
ENDBRANCH   1  10
TORSDOF 5
ENDMDL
MODEL 5
REMARK VINA RESULT:      -5.4      2.066      2.416
REMARK  Name = 
REMARK  6 active torsions:
REMARK  status: ('A' for Active; 'I' for Inactive)
REMARK    1  A    between atoms: C_1  and  C_2
REMARK    2  A    between atoms: C_5  and  N_6
REMARK    3  A    between atoms: N_6  and  C_7
REMARK    4  A    between atoms: C_7  and  C_8
REMARK    5  A    between atoms: C_8  and  O_9
REMARK    6  A    between atoms: C_8  and  C_10
REMARK                            x       y       z     vdW  Elec       q    Type
REMARK                         _______ _______ _______ _____ _____    ______ ____
ROOT
ATOM      1  N   UNL     1       5.884   5.199  19.150  0.00  0.00    +0.000 N 
ATOM      2  H   UNL     1       5.809   5.925  19.861  0.00  0.00    +0.000 HD
ENDROOT
BRANCH   1   7
ATOM      3  C   UNL     1       0.812   2.517  18.759  0.00  0.00    +0.000 C 
ATOM      4  C   UNL     1       2.138   3.213  18.827  0.00  0.00    +0.000 A 
ATOM      5  C   UNL     1       2.285   4.514  18.346  0.00  0.00    +0.000 A 
ATOM      6  C   UNL     1       3.515   5.171  18.436  0.00  0.00    +0.000 A 
ATOM      7  C   UNL     1       4.622   4.566  19.040  0.00  0.00    +0.000 A 
ATOM      8  C   UNL     1       4.486   3.231  19.452  0.00  0.00    +0.000 A 
ATOM      9  C   UNL     1       3.255   2.567  19.362  0.00  0.00    +0.000 A 
ENDBRANCH   1   7
BRANCH   1  10
ATOM     10  C   UNL     1       6.414   5.739  17.880  0.00  0.00    +0.000 C 
BRANCH  10  11
ATOM     11  C   UNL     1       6.852   4.611  16.925  0.00  0.00    +0.000 C 
BRANCH  11  12
ATOM     12  O   UNL     1       8.135   4.114  17.341  0.00  0.00    +0.000 OA
ATOM     13  H   UNL     1       8.741   4.278  16.591  0.00  0.00    +0.000 HD
ENDBRANCH  11  12
BRANCH  11  14
ATOM     14  C   UNL     1       6.940   4.997  15.448  0.00  0.00    +0.000 C 
ATOM     15 CL   UNL     1       6.171   3.813  14.372  0.00  0.00    +0.000 Cl
ENDBRANCH  11  14
ENDBRANCH  10  11
ENDBRANCH   1  10
TORSDOF 5
ENDMDL
MODEL 6
REMARK VINA RESULT:      -5.4      2.039      2.218
REMARK  Name = 
REMARK  6 active torsions:
REMARK  status: ('A' for Active; 'I' for Inactive)
REMARK    1  A    between atoms: C_1  and  C_2
REMARK    2  A    between atoms: C_5  and  N_6
REMARK    3  A    between atoms: N_6  and  C_7
REMARK    4  A    between atoms: C_7  and  C_8
REMARK    5  A    between atoms: C_8  and  O_9
REMARK    6  A    between atoms: C_8  and  C_10
REMARK                            x       y       z     vdW  Elec       q    Type
REMARK                         _______ _______ _______ _____ _____    ______ ____
ROOT
ATOM      1  N   UNL     1       6.186   3.996  18.705  0.00  0.00    +0.000 N 
ATOM      2  H   UNL     1       6.792   3.620  19.433  0.00  0.00    +0.000 HD
ENDROOT
BRANCH   1   7
ATOM      3  C   UNL     1       0.726   3.546  20.451  0.00  0.00    +0.000 C 
ATOM      4  C   UNL     1       2.159   3.660  20.029  0.00  0.00    +0.000 A 
ATOM      5  C   UNL     1       2.994   2.543  20.036  0.00  0.00    +0.000 A 
ATOM      6  C   UNL     1       4.323   2.646  19.615  0.00  0.00    +0.000 A 
ATOM      7  C   UNL     1       4.846   3.853  19.139  0.00  0.00    +0.000 A 
ATOM      8  C   UNL     1       4.022   4.987  19.207  0.00  0.00    +0.000 A 
ATOM      9  C   UNL     1       2.689   4.890  19.630  0.00  0.00    +0.000 A 
ENDBRANCH   1   7
BRANCH   1  10
ATOM     10  C   UNL     1       6.571   5.375  18.339  0.00  0.00    +0.000 C 
BRANCH  10  11
ATOM     11  C   UNL     1       7.913   5.778  18.983  0.00  0.00    +0.000 C 
BRANCH  11  12
ATOM     12  O   UNL     1       7.861   5.498  20.392  0.00  0.00    +0.000 OA
ATOM     13  H   UNL     1       7.398   4.640  20.477  0.00  0.00    +0.000 HD
ENDBRANCH  11  12
BRANCH  11  14
ATOM     14  C   UNL     1       8.319   7.240  18.795  0.00  0.00    +0.000 C 
ATOM     15 CL   UNL     1       7.504   8.018  17.425  0.00  0.00    +0.000 Cl
ENDBRANCH  11  14
ENDBRANCH  10  11
ENDBRANCH   1  10
TORSDOF 5
ENDMDL
MODEL 7
REMARK VINA RESULT:      -5.4      2.951      5.508
REMARK  Name = 
REMARK  6 active torsions:
REMARK  status: ('A' for Active; 'I' for Inactive)
REMARK    1  A    between atoms: C_1  and  C_2
REMARK    2  A    between atoms: C_5  and  N_6
REMARK    3  A    between atoms: N_6  and  C_7
REMARK    4  A    between atoms: C_7  and  C_8
REMARK    5  A    between atoms: C_8  and  O_9
REMARK    6  A    between atoms: C_8  and  C_10
REMARK                            x       y       z     vdW  Elec       q    Type
REMARK                         _______ _______ _______ _____ _____    ______ ____
ROOT
ATOM      1  N   UNL     1       5.461   3.574  18.042  0.00  0.00    +0.000 N 
ATOM      2  H   UNL     1       5.859   2.976  17.320  0.00  0.00    +0.000 HD
ENDROOT
BRANCH   1   7
ATOM      3  C   UNL     1       8.059   8.695  17.720  0.00  0.00    +0.000 C 
ATOM      4  C   UNL     1       7.357   7.374  17.823  0.00  0.00    +0.000 A 
ATOM      5  C   UNL     1       6.184   7.134  17.107  0.00  0.00    +0.000 A 
ATOM      6  C   UNL     1       5.547   5.893  17.182  0.00  0.00    +0.000 A 
ATOM      7  C   UNL     1       6.078   4.845  17.940  0.00  0.00    +0.000 A 
ATOM      8  C   UNL     1       7.215   5.119  18.717  0.00  0.00    +0.000 A 
ATOM      9  C   UNL     1       7.857   6.363  18.646  0.00  0.00    +0.000 A 
ENDBRANCH   1   7
BRANCH   1  10
ATOM     10  C   UNL     1       3.985   3.599  17.971  0.00  0.00    +0.000 C 
BRANCH  10  11
ATOM     11  C   UNL     1       3.362   2.417  18.739  0.00  0.00    +0.000 C 
BRANCH  11  12
ATOM     12  O   UNL     1       3.981   1.194  18.303  0.00  0.00    +0.000 OA
ATOM     13  H   UNL     1       3.772   0.530  18.990  0.00  0.00    +0.000 HD
ENDBRANCH  11  12
BRANCH  11  14
ATOM     14  C   UNL     1       1.847   2.268  18.599  0.00  0.00    +0.000 C 
ATOM     15 CL   UNL     1       0.948   3.014  19.935  0.00  0.00    +0.000 Cl
ENDBRANCH  11  14
ENDBRANCH  10  11
ENDBRANCH   1  10
TORSDOF 5
ENDMDL
MODEL 8
REMARK VINA RESULT:      -5.4      1.426      1.964
REMARK  Name = 
REMARK  6 active torsions:
REMARK  status: ('A' for Active; 'I' for Inactive)
REMARK    1  A    between atoms: C_1  and  C_2
REMARK    2  A    between atoms: C_5  and  N_6
REMARK    3  A    between atoms: N_6  and  C_7
REMARK    4  A    between atoms: C_7  and  C_8
REMARK    5  A    between atoms: C_8  and  O_9
REMARK    6  A    between atoms: C_8  and  C_10
REMARK                            x       y       z     vdW  Elec       q    Type
REMARK                         _______ _______ _______ _____ _____    ______ ____
ROOT
ATOM      1  N   UNL     1       5.260   3.256  16.723  0.00  0.00    +0.000 N 
ATOM      2  H   UNL     1       5.705   2.369  16.952  0.00  0.00    +0.000 HD
ENDROOT
BRANCH   1   7
ATOM      3  C   UNL     1       0.867   3.949  20.368  0.00  0.00    +0.000 C 
ATOM      4  C   UNL     1       2.003   3.735  19.414  0.00  0.00    +0.000 A 
ATOM      5  C   UNL     1       1.766   3.580  18.048  0.00  0.00    +0.000 A 
ATOM      6  C   UNL     1       2.829   3.409  17.157  0.00  0.00    +0.000 A 
ATOM      7  C   UNL     1       4.157   3.426  17.594  0.00  0.00    +0.000 A 
ATOM      8  C   UNL     1       4.382   3.506  18.978  0.00  0.00    +0.000 A 
ATOM      9  C   UNL     1       3.320   3.676  19.876  0.00  0.00    +0.000 A 
ENDBRANCH   1   7
BRANCH   1  10
ATOM     10  C   UNL     1       6.232   4.368  16.735  0.00  0.00    +0.000 C 
BRANCH  10  11
ATOM     11  C   UNL     1       6.157   5.200  15.439  0.00  0.00    +0.000 C 
BRANCH  11  12
ATOM     12  O   UNL     1       7.486   5.584  15.049  0.00  0.00    +0.000 OA
ATOM     13  H   UNL     1       7.787   4.900  14.416  0.00  0.00    +0.000 HD
ENDBRANCH  11  12
BRANCH  11  14
ATOM     14  C   UNL     1       5.294   6.460  15.516  0.00  0.00    +0.000 C 
ATOM     15 CL   UNL     1       4.696   6.795  17.152  0.00  0.00    +0.000 Cl
ENDBRANCH  11  14
ENDBRANCH  10  11
ENDBRANCH   1  10
TORSDOF 5
ENDMDL
MODEL 9
REMARK VINA RESULT:      -5.4      1.201      1.599
REMARK  Name = 
REMARK  6 active torsions:
REMARK  status: ('A' for Active; 'I' for Inactive)
REMARK    1  A    between atoms: C_1  and  C_2
REMARK    2  A    between atoms: C_5  and  N_6
REMARK    3  A    between atoms: N_6  and  C_7
REMARK    4  A    between atoms: C_7  and  C_8
REMARK    5  A    between atoms: C_8  and  O_9
REMARK    6  A    between atoms: C_8  and  C_10
REMARK                            x       y       z     vdW  Elec       q    Type
REMARK                         _______ _______ _______ _____ _____    ______ ____
ROOT
ATOM      1  N   UNL     1       4.852   5.178  16.456  0.00  0.00    +0.000 N 
ATOM      2  H   UNL     1       4.453   5.386  15.543  0.00  0.00    +0.000 HD
ENDROOT
BRANCH   1   7
ATOM      3  C   UNL     1       0.695   3.052  19.813  0.00  0.00    +0.000 C 
ATOM      4  C   UNL     1       1.801   3.583  18.951  0.00  0.00    +0.000 A 
ATOM      5  C   UNL     1       2.275   2.845  17.867  0.00  0.00    +0.000 A 
ATOM      6  C   UNL     1       3.286   3.356  17.048  0.00  0.00    +0.000 A 
ATOM      7  C   UNL     1       3.827   4.628  17.263  0.00  0.00    +0.000 A 
ATOM      8  C   UNL     1       3.398   5.330  18.400  0.00  0.00    +0.000 A 
ATOM      9  C   UNL     1       2.385   4.822  19.225  0.00  0.00    +0.000 A 
ENDBRANCH   1   7
BRANCH   1  10
ATOM     10  C   UNL     1       6.061   4.336  16.339  0.00  0.00    +0.000 C 
BRANCH  10  11
ATOM     11  C   UNL     1       7.288   5.017  16.979  0.00  0.00    +0.000 C 
BRANCH  11  12
ATOM     12  O   UNL     1       8.089   4.020  17.636  0.00  0.00    +0.000 OA
ATOM     13  H   UNL     1       7.456   3.416  18.075  0.00  0.00    +0.000 HD
ENDBRANCH  11  12
BRANCH  11  14
ATOM     14  C   UNL     1       6.975   6.125  17.985  0.00  0.00    +0.000 C 
ATOM     15 CL   UNL     1       7.691   7.688  17.545  0.00  0.00    +0.000 Cl
ENDBRANCH  11  14
ENDBRANCH  10  11
ENDBRANCH   1  10
TORSDOF 5
ENDMDL
