MODEL 1
REMARK VINA RESULT:      -6.6      0.000      0.000
REMARK  Name = 
REMARK  10 active torsions:
REMARK  status: ('A' for Active; 'I' for Inactive)
REMARK    1  A    between atoms: C_1  and  O_2
REMARK    2  A    between atoms: O_2  and  C_3
REMARK    3  A    between atoms: C_6  and  N_7
REMARK    4  A    between atoms: N_7  and  C_8
REMARK    5  A    between atoms: C_17  and  O_18
REMARK    6  A    between atoms: O_18  and  C_19
REMARK    7  A    between atoms: C_19  and  C_20
REMARK    8  A    between atoms: C_20  and  C_21
REMARK    9  A    between atoms: C_21  and  SE_22
REMARK   10  A    between atoms: SE_22  and  C_23
REMARK                            x       y       z     vdW  Elec       q    Type
REMARK                         _______ _______ _______ _____ _____    ______ ____
ROOT
ATOM      1  C   UNL     1       2.915   5.010  19.685  0.00  0.00    +0.000 A 
ATOM      2  C   UNL     1       3.911   4.026  19.659  0.00  0.00    +0.000 A 
ATOM      3  C   UNL     1       5.053   4.197  18.891  0.00  0.00    +0.000 A 
ATOM      4  C   UNL     1       5.251   5.349  18.113  0.00  0.00    +0.000 A 
ATOM      5  C   UNL     1       4.242   6.340  18.120  0.00  0.00    +0.000 A 
ATOM      6  C   UNL     1       3.084   6.195  18.905  0.00  0.00    +0.000 A 
ENDROOT
BRANCH   4   7
ATOM      7  N   UNL     1       6.454   5.482  17.324  0.00  0.00    +0.000 N 
ATOM      8  C   UNL     1       7.652   6.094  17.882  0.00  0.00    +0.000 C 
ATOM      9  C   UNL     1       6.512   5.035  15.958  0.00  0.00    +0.000 A 
ATOM     10  C   UNL     1       5.690   3.994  15.484  0.00  0.00    +0.000 A 
ATOM     11  C   UNL     1       5.811   3.585  14.159  0.00  0.00    +0.000 A 
ATOM     12  N   UNL     1       6.708   4.190  13.342  0.00  0.00    +0.000 NA
ATOM     13  C   UNL     1       7.507   5.186  13.804  0.00  0.00    +0.000 A 
ATOM     14 CL   UNL     1       8.650   5.956  12.726  0.00  0.00    +0.000 Cl
ATOM     15  N   UNL     1       7.415   5.589  15.099  0.00  0.00    +0.000 NA
ENDBRANCH   4   7
BRANCH   1  17
ATOM     16  C   UNL     1       0.804   3.912  20.408  0.00  0.00    +0.000 C 
ATOM     17  O   UNL     1       1.806   4.856  20.453  0.00  0.00    +0.000 OA
ENDBRANCH   1  17
BRANCH   6  18
ATOM     18  O   UNL     1       2.163   7.209  18.888  0.00  0.00    +0.000 OA
BRANCH  18  19
ATOM     19  C   UNL     1       2.066   8.129  17.857  0.00  0.00    +0.000 C 
BRANCH  19  20
ATOM     20  C   UNL     1       1.647   9.516  18.271  0.00  0.00    +0.000 C 
BRANCH  20  21
ATOM     21  C   UNL     1       1.067   9.416  19.700  0.00  0.00    +0.000 C 
BRANCH  21  22
ATOM     22 SE   UNL     1       0.376  11.141  20.107  0.00  0.00    +0.000 Se
BRANCH  22  23
ATOM     23  C   UNL     1      -0.266  11.159  21.959  0.00  0.00    +0.000 C 
ATOM     24  N   UNL     1      -0.679  11.171  23.150  0.00  0.00    +0.000 NA
ENDBRANCH  22  23
ENDBRANCH  21  22
ENDBRANCH  20  21
ENDBRANCH  19  20
ENDBRANCH  18  19
ENDBRANCH   6  18
TORSDOF 8
ENDMDL
MODEL 2
REMARK VINA RESULT:      -6.6      1.637      1.710
REMARK  Name = 
REMARK  10 active torsions:
REMARK  status: ('A' for Active; 'I' for Inactive)
REMARK    1  A    between atoms: C_1  and  O_2
REMARK    2  A    between atoms: O_2  and  C_3
REMARK    3  A    between atoms: C_6  and  N_7
REMARK    4  A    between atoms: N_7  and  C_8
REMARK    5  A    between atoms: C_17  and  O_18
REMARK    6  A    between atoms: O_18  and  C_19
REMARK    7  A    between atoms: C_19  and  C_20
REMARK    8  A    between atoms: C_20  and  C_21
REMARK    9  A    between atoms: C_21  and  SE_22
REMARK   10  A    between atoms: SE_22  and  C_23
REMARK                            x       y       z     vdW  Elec       q    Type
REMARK                         _______ _______ _______ _____ _____    ______ ____
ROOT
ATOM      1  C   UNL     1       2.761   4.897  19.430  0.00  0.00    +0.000 A 
ATOM      2  C   UNL     1       3.661   3.828  19.359  0.00  0.00    +0.000 A 
ATOM      3  C   UNL     1       4.846   3.948  18.649  0.00  0.00    +0.000 A 
ATOM      4  C   UNL     1       5.184   5.133  17.976  0.00  0.00    +0.000 A 
ATOM      5  C   UNL     1       4.272   6.213  18.028  0.00  0.00    +0.000 A 
ATOM      6  C   UNL     1       3.072   6.119  18.758  0.00  0.00    +0.000 A 
ENDROOT
BRANCH   4   7
ATOM      7  N   UNL     1       6.427   5.212  17.245  0.00  0.00    +0.000 N 
ATOM      8  C   UNL     1       7.661   5.615  17.905  0.00  0.00    +0.000 C 
ATOM      9  C   UNL     1       6.493   4.916  15.838  0.00  0.00    +0.000 A 
ATOM     10  C   UNL     1       5.580   4.037  15.224  0.00  0.00    +0.000 A 
ATOM     11  C   UNL     1       5.712   3.766  13.865  0.00  0.00    +0.000 A 
ATOM     12  N   UNL     1       6.705   4.349  13.150  0.00  0.00    +0.000 NA
ATOM     13  C   UNL     1       7.590   5.187  13.747  0.00  0.00    +0.000 A 
ATOM     14 CL   UNL     1       8.858   5.934  12.800  0.00  0.00    +0.000 Cl
ATOM     15  N   UNL     1       7.489   5.453  15.077  0.00  0.00    +0.000 NA
ENDBRANCH   4   7
BRANCH   1  17
ATOM     16  C   UNL     1       1.003   3.694  20.712  0.00  0.00    +0.000 C 
ATOM     17  O   UNL     1       1.610   4.791  20.143  0.00  0.00    +0.000 OA
ENDBRANCH   1  17
BRANCH   6  18
ATOM     18  O   UNL     1       2.251   7.215  18.792  0.00  0.00    +0.000 OA
BRANCH  18  19
ATOM     19  C   UNL     1       2.411   8.309  17.957  0.00  0.00    +0.000 C 
BRANCH  19  20
ATOM     20  C   UNL     1       1.193   9.182  17.802  0.00  0.00    +0.000 C 
BRANCH  20  21
ATOM     21  C   UNL     1       1.442  10.472  18.619  0.00  0.00    +0.000 C 
BRANCH  21  22
ATOM     22 SE   UNL     1      -0.264  11.278  18.858  0.00  0.00    +0.000 Se
BRANCH  22  23
ATOM     23  C   UNL     1      -1.571  10.373  17.711  0.00  0.00    +0.000 C 
ATOM     24  N   UNL     1      -2.411   9.790  16.974  0.00  0.00    +0.000 NA
ENDBRANCH  22  23
ENDBRANCH  21  22
ENDBRANCH  20  21
ENDBRANCH  19  20
ENDBRANCH  18  19
ENDBRANCH   6  18
TORSDOF 8
ENDMDL
MODEL 3
REMARK VINA RESULT:      -6.4      4.661      8.532
REMARK  Name = 
REMARK  10 active torsions:
REMARK  status: ('A' for Active; 'I' for Inactive)
REMARK    1  A    between atoms: C_1  and  O_2
REMARK    2  A    between atoms: O_2  and  C_3
REMARK    3  A    between atoms: C_6  and  N_7
REMARK    4  A    between atoms: N_7  and  C_8
REMARK    5  A    between atoms: C_17  and  O_18
REMARK    6  A    between atoms: O_18  and  C_19
REMARK    7  A    between atoms: C_19  and  C_20
REMARK    8  A    between atoms: C_20  and  C_21
REMARK    9  A    between atoms: C_21  and  SE_22
REMARK   10  A    between atoms: SE_22  and  C_23
REMARK                            x       y       z     vdW  Elec       q    Type
REMARK                         _______ _______ _______ _____ _____    ______ ____
ROOT
ATOM      1  C   UNL     1       3.430   6.472  18.381  0.00  0.00    +0.000 A 
ATOM      2  C   UNL     1       3.318   7.623  17.593  0.00  0.00    +0.000 A 
ATOM      3  C   UNL     1       2.427   8.629  17.935  0.00  0.00    +0.000 A 
ATOM      4  C   UNL     1       1.606   8.531  19.069  0.00  0.00    +0.000 A 
ATOM      5  C   UNL     1       1.700   7.364  19.862  0.00  0.00    +0.000 A 
ATOM      6  C   UNL     1       2.610   6.339  19.544  0.00  0.00    +0.000 A 
ENDROOT
BRANCH   4   7
ATOM      7  N   UNL     1       0.689   9.602  19.384  0.00  0.00    +0.000 N 
ATOM      8  C   UNL     1       0.098  10.416  18.331  0.00  0.00    +0.000 C 
ATOM      9  C   UNL     1       0.337   9.918  20.743  0.00  0.00    +0.000 A 
ATOM     10  C   UNL     1       0.375   8.945  21.762  0.00  0.00    +0.000 A 
ATOM     11  C   UNL     1      -0.003   9.302  23.053  0.00  0.00    +0.000 A 
ATOM     12  N   UNL     1      -0.398  10.572  23.317  0.00  0.00    +0.000 NA
ATOM     13  C   UNL     1      -0.444  11.505  22.331  0.00  0.00    +0.000 A 
ATOM     14 CL   UNL     1      -0.947  13.139  22.701  0.00  0.00    +0.000 Cl
ATOM     15  N   UNL     1      -0.093  11.172  21.060  0.00  0.00    +0.000 NA
ENDBRANCH   4   7
BRANCH   1  17
ATOM     16  C   UNL     1       5.187   5.380  17.001  0.00  0.00    +0.000 C 
ATOM     17  O   UNL     1       4.317   5.494  18.063  0.00  0.00    +0.000 OA
ENDBRANCH   1  17
BRANCH   6  18
ATOM     18  O   UNL     1       2.670   5.250  20.374  0.00  0.00    +0.000 OA
BRANCH  18  19
ATOM     19  C   UNL     1       1.546   4.629  20.893  0.00  0.00    +0.000 C 
BRANCH  19  20
ATOM     20  C   UNL     1       1.443   3.152  20.616  0.00  0.00    +0.000 C 
BRANCH  20  21
ATOM     21  C   UNL     1       1.014   2.987  19.140  0.00  0.00    +0.000 C 
BRANCH  21  22
ATOM     22 SE   UNL     1       2.543   2.325  18.222  0.00  0.00    +0.000 Se
BRANCH  22  23
ATOM     23  C   UNL     1       4.028   2.144  19.489  0.00  0.00    +0.000 C 
ATOM     24  N   UNL     1       4.983   2.027  20.303  0.00  0.00    +0.000 NA
ENDBRANCH  22  23
ENDBRANCH  21  22
ENDBRANCH  20  21
ENDBRANCH  19  20
ENDBRANCH  18  19
ENDBRANCH   6  18
TORSDOF 8
ENDMDL
MODEL 4
REMARK VINA RESULT:      -6.3      1.503      1.568
REMARK  Name = 
REMARK  10 active torsions:
REMARK  status: ('A' for Active; 'I' for Inactive)
REMARK    1  A    between atoms: C_1  and  O_2
REMARK    2  A    between atoms: O_2  and  C_3
REMARK    3  A    between atoms: C_6  and  N_7
REMARK    4  A    between atoms: N_7  and  C_8
REMARK    5  A    between atoms: C_17  and  O_18
REMARK    6  A    between atoms: O_18  and  C_19
REMARK    7  A    between atoms: C_19  and  C_20
REMARK    8  A    between atoms: C_20  and  C_21
REMARK    9  A    between atoms: C_21  and  SE_22
REMARK   10  A    between atoms: SE_22  and  C_23
REMARK                            x       y       z     vdW  Elec       q    Type
REMARK                         _______ _______ _______ _____ _____    ______ ____
ROOT
ATOM      1  C   UNL     1       2.891   4.950  19.614  0.00  0.00    +0.000 A 
ATOM      2  C   UNL     1       3.858   3.939  19.632  0.00  0.00    +0.000 A 
ATOM      3  C   UNL     1       5.019   4.059  18.882  0.00  0.00    +0.000 A 
ATOM      4  C   UNL     1       5.263   5.185  18.079  0.00  0.00    +0.000 A 
ATOM      5  C   UNL     1       4.283   6.203  18.042  0.00  0.00    +0.000 A 
ATOM      6  C   UNL     1       3.107   6.110  18.808  0.00  0.00    +0.000 A 
ENDROOT
BRANCH   4   7
ATOM      7  N   UNL     1       6.484   5.265  17.311  0.00  0.00    +0.000 N 
ATOM      8  C   UNL     1       7.732   5.693  17.928  0.00  0.00    +0.000 C 
ATOM      9  C   UNL     1       6.514   4.945  15.908  0.00  0.00    +0.000 A 
ATOM     10  C   UNL     1       5.594   4.044  15.336  0.00  0.00    +0.000 A 
ATOM     11  C   UNL     1       5.689   3.751  13.978  0.00  0.00    +0.000 A 
ATOM     12  N   UNL     1       6.655   4.333  13.225  0.00  0.00    +0.000 NA
ATOM     13  C   UNL     1       7.547   5.191  13.782  0.00  0.00    +0.000 A 
ATOM     14 CL   UNL     1       8.778   5.936  12.786  0.00  0.00    +0.000 Cl
ATOM     15  N   UNL     1       7.481   5.479  15.109  0.00  0.00    +0.000 NA
ENDBRANCH   4   7
BRANCH   1  17
ATOM     16  C   UNL     1       0.785   3.878  20.389  0.00  0.00    +0.000 C 
ATOM     17  O   UNL     1       1.764   4.847  20.364  0.00  0.00    +0.000 OA
ENDBRANCH   1  17
BRANCH   6  18
ATOM     18  O   UNL     1       2.215   7.148  18.748  0.00  0.00    +0.000 OA
BRANCH  18  19
ATOM     19  C   UNL     1       2.198   8.075  17.719  0.00  0.00    +0.000 C 
BRANCH  19  20
ATOM     20  C   UNL     1       2.068   9.513  18.152  0.00  0.00    +0.000 C 
BRANCH  20  21
ATOM     21  C   UNL     1       0.871   9.595  19.128  0.00  0.00    +0.000 C 
BRANCH  21  22
ATOM     22 SE   UNL     1       1.018  11.282  19.995  0.00  0.00    +0.000 Se
BRANCH  22  23
ATOM     23  C   UNL     1       1.750  12.593  18.735  0.00  0.00    +0.000 C 
ATOM     24  N   UNL     1       2.220  13.436  17.924  0.00  0.00    +0.000 NA
ENDBRANCH  22  23
ENDBRANCH  21  22
ENDBRANCH  20  21
ENDBRANCH  19  20
ENDBRANCH  18  19
ENDBRANCH   6  18
TORSDOF 8
ENDMDL
MODEL 5
REMARK VINA RESULT:      -6.2      1.182      1.277
REMARK  Name = 
REMARK  10 active torsions:
REMARK  status: ('A' for Active; 'I' for Inactive)
REMARK    1  A    between atoms: C_1  and  O_2
REMARK    2  A    between atoms: O_2  and  C_3
REMARK    3  A    between atoms: C_6  and  N_7
REMARK    4  A    between atoms: N_7  and  C_8
REMARK    5  A    between atoms: C_17  and  O_18
REMARK    6  A    between atoms: O_18  and  C_19
REMARK    7  A    between atoms: C_19  and  C_20
REMARK    8  A    between atoms: C_20  and  C_21
REMARK    9  A    between atoms: C_21  and  SE_22
REMARK   10  A    between atoms: SE_22  and  C_23
REMARK                            x       y       z     vdW  Elec       q    Type
REMARK                         _______ _______ _______ _____ _____    ______ ____
ROOT
ATOM      1  C   UNL     1       2.859   4.638  19.673  0.00  0.00    +0.000 A 
ATOM      2  C   UNL     1       3.898   3.700  19.702  0.00  0.00    +0.000 A 
ATOM      3  C   UNL     1       5.048   3.897  18.952  0.00  0.00    +0.000 A 
ATOM      4  C   UNL     1       5.211   5.029  18.139  0.00  0.00    +0.000 A 
ATOM      5  C   UNL     1       4.159   5.973  18.090  0.00  0.00    +0.000 A 
ATOM      6  C   UNL     1       2.992   5.802  18.856  0.00  0.00    +0.000 A 
ENDROOT
BRANCH   4   7
ATOM      7  N   UNL     1       6.424   5.191  17.371  0.00  0.00    +0.000 N 
ATOM      8  C   UNL     1       7.634   5.720  17.983  0.00  0.00    +0.000 C 
ATOM      9  C   UNL     1       6.481   4.855  15.972  0.00  0.00    +0.000 A 
ATOM     10  C   UNL     1       5.633   3.880  15.411  0.00  0.00    +0.000 A 
ATOM     11  C   UNL     1       5.753   3.576  14.059  0.00  0.00    +0.000 A 
ATOM     12  N   UNL     1       6.674   4.218  13.299  0.00  0.00    +0.000 NA
ATOM     13  C   UNL     1       7.497   5.149  13.844  0.00  0.00    +0.000 A 
ATOM     14 CL   UNL     1       8.671   5.971  12.839  0.00  0.00    +0.000 Cl
ATOM     15  N   UNL     1       7.406   5.449  15.167  0.00  0.00    +0.000 NA
ENDBRANCH   4   7
BRANCH   1  17
ATOM     16  C   UNL     1       0.960   3.343  20.622  0.00  0.00    +0.000 C 
ATOM     17  O   UNL     1       1.741   4.460  20.424  0.00  0.00    +0.000 OA
ENDBRANCH   1  17
BRANCH   6  18
ATOM     18  O   UNL     1       2.026   6.772  18.785  0.00  0.00    +0.000 OA
BRANCH  18  19
ATOM     19  C   UNL     1       2.085   7.955  19.504  0.00  0.00    +0.000 C 
BRANCH  19  20
ATOM     20  C   UNL     1       1.408   7.923  20.850  0.00  0.00    +0.000 C 
BRANCH  20  21
ATOM     21  C   UNL     1       0.819   9.330  21.104  0.00  0.00    +0.000 C 
BRANCH  21  22
ATOM     22 SE   UNL     1       0.447  10.059  19.388  0.00  0.00    +0.000 Se
BRANCH  22  23
ATOM     23  C   UNL     1      -1.031  11.339  19.537  0.00  0.00    +0.000 C 
ATOM     24  N   UNL     1      -1.982  12.161  19.634  0.00  0.00    +0.000 NA
ENDBRANCH  22  23
ENDBRANCH  21  22
ENDBRANCH  20  21
ENDBRANCH  19  20
ENDBRANCH  18  19
ENDBRANCH   6  18
TORSDOF 8
ENDMDL
MODEL 6
REMARK VINA RESULT:      -6.2      1.752      1.807
REMARK  Name = 
REMARK  10 active torsions:
REMARK  status: ('A' for Active; 'I' for Inactive)
REMARK    1  A    between atoms: C_1  and  O_2
REMARK    2  A    between atoms: O_2  and  C_3
REMARK    3  A    between atoms: C_6  and  N_7
REMARK    4  A    between atoms: N_7  and  C_8
REMARK    5  A    between atoms: C_17  and  O_18
REMARK    6  A    between atoms: O_18  and  C_19
REMARK    7  A    between atoms: C_19  and  C_20
REMARK    8  A    between atoms: C_20  and  C_21
REMARK    9  A    between atoms: C_21  and  SE_22
REMARK   10  A    between atoms: SE_22  and  C_23
REMARK                            x       y       z     vdW  Elec       q    Type
REMARK                         _______ _______ _______ _____ _____    ______ ____
ROOT
ATOM      1  C   UNL     1       2.399   3.946  18.323  0.00  0.00    +0.000 A 
ATOM      2  C   UNL     1       3.250   2.884  17.999  0.00  0.00    +0.000 A 
ATOM      3  C   UNL     1       4.504   3.124  17.458  0.00  0.00    +0.000 A 
ATOM      4  C   UNL     1       4.962   4.428  17.212  0.00  0.00    +0.000 A 
ATOM      5  C   UNL     1       4.101   5.507  17.521  0.00  0.00    +0.000 A 
ATOM      6  C   UNL     1       2.832   5.287  18.087  0.00  0.00    +0.000 A 
ENDROOT
BRANCH   4   7
ATOM      7  N   UNL     1       6.274   4.631  16.642  0.00  0.00    +0.000 N 
ATOM      8  C   UNL     1       7.420   4.934  17.488  0.00  0.00    +0.000 C 
ATOM      9  C   UNL     1       6.498   4.561  15.222  0.00  0.00    +0.000 A 
ATOM     10  C   UNL     1       5.679   3.782  14.382  0.00  0.00    +0.000 A 
ATOM     11  C   UNL     1       5.961   3.730  13.020  0.00  0.00    +0.000 A 
ATOM     12  N   UNL     1       7.011   4.426  12.518  0.00  0.00    +0.000 NA
ATOM     13  C   UNL     1       7.805   5.167  13.332  0.00  0.00    +0.000 A 
ATOM     14 CL   UNL     1       9.148   6.063  12.658  0.00  0.00    +0.000 Cl
ATOM     15  N   UNL     1       7.556   5.218  14.668  0.00  0.00    +0.000 NA
ENDBRANCH   4   7
BRANCH   1  17
ATOM     16  C   UNL     1       0.814   3.465  20.179  0.00  0.00    +0.000 C 
ATOM     17  O   UNL     1       1.179   3.716  18.875  0.00  0.00    +0.000 OA
ENDBRANCH   1  17
BRANCH   6  18
ATOM     18  O   UNL     1       2.064   6.379  18.390  0.00  0.00    +0.000 OA
BRANCH  18  19
ATOM     19  C   UNL     1       2.512   7.683  18.257  0.00  0.00    +0.000 C 
BRANCH  19  20
ATOM     20  C   UNL     1       1.721   8.716  19.018  0.00  0.00    +0.000 C 
BRANCH  20  21
ATOM     21  C   UNL     1       1.258   9.784  18.001  0.00  0.00    +0.000 C 
BRANCH  21  22
ATOM     22 SE   UNL     1      -0.397  10.451  18.660  0.00  0.00    +0.000 Se
BRANCH  22  23
ATOM     23  C   UNL     1      -0.396  12.408  18.543  0.00  0.00    +0.000 C 
ATOM     24  N   UNL     1      -0.394  13.666  18.469  0.00  0.00    +0.000 NA
ENDBRANCH  22  23
ENDBRANCH  21  22
ENDBRANCH  20  21
ENDBRANCH  19  20
ENDBRANCH  18  19
ENDBRANCH   6  18
TORSDOF 8
ENDMDL
MODEL 7
REMARK VINA RESULT:      -6.0      5.105      7.273
REMARK  Name = 
REMARK  10 active torsions:
REMARK  status: ('A' for Active; 'I' for Inactive)
REMARK    1  A    between atoms: C_1  and  O_2
REMARK    2  A    between atoms: O_2  and  C_3
REMARK    3  A    between atoms: C_6  and  N_7
REMARK    4  A    between atoms: N_7  and  C_8
REMARK    5  A    between atoms: C_17  and  O_18
REMARK    6  A    between atoms: O_18  and  C_19
REMARK    7  A    between atoms: C_19  and  C_20
REMARK    8  A    between atoms: C_20  and  C_21
REMARK    9  A    between atoms: C_21  and  SE_22
REMARK   10  A    between atoms: SE_22  and  C_23
REMARK                            x       y       z     vdW  Elec       q    Type
REMARK                         _______ _______ _______ _____ _____    ______ ____
ROOT
ATOM      1  C   UNL     1       6.798   5.500  15.499  0.00  0.00    +0.000 A 
ATOM      2  C   UNL     1       5.715   4.636  15.299  0.00  0.00    +0.000 A 
ATOM      3  C   UNL     1       4.673   4.588  16.212  0.00  0.00    +0.000 A 
ATOM      4  C   UNL     1       4.665   5.391  17.363  0.00  0.00    +0.000 A 
ATOM      5  C   UNL     1       5.764   6.254  17.582  0.00  0.00    +0.000 A 
ATOM      6  C   UNL     1       6.824   6.332  16.659  0.00  0.00    +0.000 A 
ENDROOT
BRANCH   4   7
ATOM      7  N   UNL     1       3.561   5.305  18.290  0.00  0.00    +0.000 N 
ATOM      8  C   UNL     1       2.932   6.506  18.822  0.00  0.00    +0.000 C 
ATOM      9  C   UNL     1       3.051   4.036  18.738  0.00  0.00    +0.000 A 
ATOM     10  C   UNL     1       3.164   2.873  17.950  0.00  0.00    +0.000 A 
ATOM     11  C   UNL     1       2.626   1.680  18.424  0.00  0.00    +0.000 A 
ATOM     12  N   UNL     1       2.007   1.646  19.629  0.00  0.00    +0.000 NA
ATOM     13  C   UNL     1       1.890   2.770  20.381  0.00  0.00    +0.000 A 
ATOM     14 CL   UNL     1       1.094   2.697  21.938  0.00  0.00    +0.000 Cl
ATOM     15  N   UNL     1       2.394   3.949  19.930  0.00  0.00    +0.000 NA
ENDBRANCH   4   7
BRANCH   1  17
ATOM     16  C   UNL     1       7.848   5.229  13.260  0.00  0.00    +0.000 C 
ATOM     17  O   UNL     1       7.810   5.566  14.595  0.00  0.00    +0.000 OA
ENDBRANCH   1  17
BRANCH   6  18
ATOM     18  O   UNL     1       7.840   7.214  16.918  0.00  0.00    +0.000 OA
BRANCH  18  19
ATOM     19  C   UNL     1       7.639   8.451  17.507  0.00  0.00    +0.000 C 
BRANCH  19  20
ATOM     20  C   UNL     1       8.750   8.919  18.412  0.00  0.00    +0.000 C 
BRANCH  20  21
ATOM     21  C   UNL     1       8.582  10.445  18.598  0.00  0.00    +0.000 C 
BRANCH  21  22
ATOM     22 SE   UNL     1      10.300  11.202  18.292  0.00  0.00    +0.000 Se
BRANCH  22  23
ATOM     23  C   UNL     1      10.110  13.128  17.981  0.00  0.00    +0.000 C 
ATOM     24  N   UNL     1       9.989  14.366  17.781  0.00  0.00    +0.000 NA
ENDBRANCH  22  23
ENDBRANCH  21  22
ENDBRANCH  20  21
ENDBRANCH  19  20
ENDBRANCH  18  19
ENDBRANCH   6  18
TORSDOF 8
ENDMDL
MODEL 8
REMARK VINA RESULT:      -6.0      4.637      8.446
REMARK  Name = 
REMARK  10 active torsions:
REMARK  status: ('A' for Active; 'I' for Inactive)
REMARK    1  A    between atoms: C_1  and  O_2
REMARK    2  A    between atoms: O_2  and  C_3
REMARK    3  A    between atoms: C_6  and  N_7
REMARK    4  A    between atoms: N_7  and  C_8
REMARK    5  A    between atoms: C_17  and  O_18
REMARK    6  A    between atoms: O_18  and  C_19
REMARK    7  A    between atoms: C_19  and  C_20
REMARK    8  A    between atoms: C_20  and  C_21
REMARK    9  A    between atoms: C_21  and  SE_22
REMARK   10  A    between atoms: SE_22  and  C_23
REMARK                            x       y       z     vdW  Elec       q    Type
REMARK                         _______ _______ _______ _____ _____    ______ ____
ROOT
ATOM      1  C   UNL     1       3.047   7.046  18.394  0.00  0.00    +0.000 A 
ATOM      2  C   UNL     1       2.910   8.160  17.557  0.00  0.00    +0.000 A 
ATOM      3  C   UNL     1       2.120   9.235  17.936  0.00  0.00    +0.000 A 
ATOM      4  C   UNL     1       1.431   9.246  19.159  0.00  0.00    +0.000 A 
ATOM      5  C   UNL     1       1.550   8.118  20.003  0.00  0.00    +0.000 A 
ATOM      6  C   UNL     1       2.360   7.024  19.646  0.00  0.00    +0.000 A 
ENDROOT
BRANCH   4   7
ATOM      7  N   UNL     1       0.615  10.386  19.510  0.00  0.00    +0.000 N 
ATOM      8  C   UNL     1       1.051  11.334  20.527  0.00  0.00    +0.000 C 
ATOM      9  C   UNL     1      -0.661  10.620  18.889  0.00  0.00    +0.000 A 
ATOM     10  C   UNL     1      -0.948  10.153  17.591  0.00  0.00    +0.000 A 
ATOM     11  C   UNL     1      -2.190  10.434  17.030  0.00  0.00    +0.000 A 
ATOM     12  N   UNL     1      -3.106  11.145  17.732  0.00  0.00    +0.000 NA
ATOM     13  C   UNL     1      -2.823  11.603  18.978  0.00  0.00    +0.000 A 
ATOM     14 CL   UNL     1      -4.026  12.511  19.867  0.00  0.00    +0.000 Cl
ATOM     15  N   UNL     1      -1.610  11.353  19.538  0.00  0.00    +0.000 NA
ENDBRANCH   4   7
BRANCH   1  17
ATOM     16  C   UNL     1       4.648   5.821  16.938  0.00  0.00    +0.000 C 
ATOM     17  O   UNL     1       3.838   6.001  18.036  0.00  0.00    +0.000 OA
ENDBRANCH   1  17
BRANCH   6  18
ATOM     18  O   UNL     1       2.455   5.978  20.526  0.00  0.00    +0.000 OA
BRANCH  18  19
ATOM     19  C   UNL     1       1.438   5.059  20.724  0.00  0.00    +0.000 C 
BRANCH  19  20
ATOM     20  C   UNL     1       1.071   4.236  19.516  0.00  0.00    +0.000 C 
BRANCH  20  21
ATOM     21  C   UNL     1       1.180   2.748  19.921  0.00  0.00    +0.000 C 
BRANCH  21  22
ATOM     22 SE   UNL     1       2.516   1.995  18.795  0.00  0.00    +0.000 Se
BRANCH  22  23
ATOM     23  C   UNL     1       4.245   2.827  19.202  0.00  0.00    +0.000 C 
ATOM     24  N   UNL     1       5.356   3.360  19.463  0.00  0.00    +0.000 NA
ENDBRANCH  22  23
ENDBRANCH  21  22
ENDBRANCH  20  21
ENDBRANCH  19  20
ENDBRANCH  18  19
ENDBRANCH   6  18
TORSDOF 8
ENDMDL
MODEL 9
REMARK VINA RESULT:      -6.0      4.078      7.580
REMARK  Name = 
REMARK  10 active torsions:
REMARK  status: ('A' for Active; 'I' for Inactive)
REMARK    1  A    between atoms: C_1  and  O_2
REMARK    2  A    between atoms: O_2  and  C_3
REMARK    3  A    between atoms: C_6  and  N_7
REMARK    4  A    between atoms: N_7  and  C_8
REMARK    5  A    between atoms: C_17  and  O_18
REMARK    6  A    between atoms: O_18  and  C_19
REMARK    7  A    between atoms: C_19  and  C_20
REMARK    8  A    between atoms: C_20  and  C_21
REMARK    9  A    between atoms: C_21  and  SE_22
REMARK   10  A    between atoms: SE_22  and  C_23
REMARK                            x       y       z     vdW  Elec       q    Type
REMARK                         _______ _______ _______ _____ _____    ______ ____
ROOT
ATOM      1  C   UNL     1       3.457   4.310  19.614  0.00  0.00    +0.000 A 
ATOM      2  C   UNL     1       2.532   4.863  20.507  0.00  0.00    +0.000 A 
ATOM      3  C   UNL     1       2.029   6.139  20.302  0.00  0.00    +0.000 A 
ATOM      4  C   UNL     1       2.427   6.920  19.206  0.00  0.00    +0.000 A 
ATOM      5  C   UNL     1       3.374   6.375  18.307  0.00  0.00    +0.000 A 
ATOM      6  C   UNL     1       3.884   5.076  18.486  0.00  0.00    +0.000 A 
ENDROOT
BRANCH   4   7
ATOM      7  N   UNL     1       1.880   8.246  19.034  0.00  0.00    +0.000 N 
ATOM      8  C   UNL     1       1.906   8.905  17.736  0.00  0.00    +0.000 C 
ATOM      9  C   UNL     1       1.308   8.973  20.136  0.00  0.00    +0.000 A 
ATOM     10  C   UNL     1       0.738   8.312  21.242  0.00  0.00    +0.000 A 
ATOM     11  C   UNL     1       0.174   9.068  22.265  0.00  0.00    +0.000 A 
ATOM     12  N   UNL     1       0.180  10.422  22.191  0.00  0.00    +0.000 NA
ATOM     13  C   UNL     1       0.720  11.056  21.119  0.00  0.00    +0.000 A 
ATOM     14 CL   UNL     1       0.724  12.805  21.052  0.00  0.00    +0.000 Cl
ATOM     15  N   UNL     1       1.262  10.335  20.101  0.00  0.00    +0.000 NA
ENDBRANCH   4   7
BRANCH   1  17
ATOM     16  C   UNL     1       3.648   1.876  19.143  0.00  0.00    +0.000 C 
ATOM     17  O   UNL     1       3.935   3.052  19.799  0.00  0.00    +0.000 OA
ENDBRANCH   1  17
BRANCH   6  18
ATOM     18  O   UNL     1       4.774   4.600  17.560  0.00  0.00    +0.000 OA
BRANCH  18  19
ATOM     19  C   UNL     1       4.621   4.786  16.196  0.00  0.00    +0.000 C 
BRANCH  19  20
ATOM     20  C   UNL     1       5.594   5.748  15.565  0.00  0.00    +0.000 C 
BRANCH  20  21
ATOM     21  C   UNL     1       6.993   5.439  16.147  0.00  0.00    +0.000 C 
BRANCH  21  22
ATOM     22 SE   UNL     1       7.306   6.754  17.485  0.00  0.00    +0.000 Se
BRANCH  22  23
ATOM     23  C   UNL     1       7.737   5.862  19.178  0.00  0.00    +0.000 C 
ATOM     24  N   UNL     1       8.015   5.289  20.265  0.00  0.00    +0.000 NA
ENDBRANCH  22  23
ENDBRANCH  21  22
ENDBRANCH  20  21
ENDBRANCH  19  20
ENDBRANCH  18  19
ENDBRANCH   6  18
TORSDOF 8
ENDMDL
