MODEL 1
REMARK VINA RESULT:      -7.8      0.000      0.000
REMARK  Name = 
REMARK  5 active torsions:
REMARK  status: ('A' for Active; 'I' for Inactive)
REMARK    1  A    between atoms: C_1  and  O_2
REMARK    2  A    between atoms: O_2  and  C_3
REMARK    3  A    between atoms: C_6  and  N_7
REMARK    4  A    between atoms: C_19  and  C_20
REMARK    5  A    between atoms: C_19  and  O_21
REMARK                            x       y       z     vdW  Elec       q    Type
REMARK                         _______ _______ _______ _____ _____    ______ ____
ROOT
ATOM      1  N   UNL     1       3.430   5.184  19.126  0.00  0.00    +0.000 N 
ATOM      2  C   UNL     1       2.890   6.393  19.219  0.00  0.00    +0.000 C 
ATOM      3  C   UNL     1       3.263   7.575  18.409  0.00  0.00    +0.000 C 
ATOM      4  C   UNL     1       1.979   8.309  18.089  0.00  0.00    +0.000 C 
ATOM      5  C   UNL     1       1.372   8.697  19.410  0.00  0.00    +0.000 A 
ATOM      6  C   UNL     1       1.070  10.046  19.604  0.00  0.00    +0.000 A 
ATOM      7  C   UNL     1       0.792  10.495  20.876  0.00  0.00    +0.000 A 
ATOM      8  C   UNL     1       0.716   9.572  21.921  0.00  0.00    +0.000 A 
ATOM      9  C   UNL     1       0.909   8.183  21.707  0.00  0.00    +0.000 A 
ATOM     10  C   UNL     1       1.281   7.718  20.448  0.00  0.00    +0.000 A 
ATOM     11  N   UNL     1       1.823   6.459  20.148  0.00  0.00    +0.000 N 
ATOM     12  C   UNL     1       1.506   5.099  20.612  0.00  0.00    +0.000 C 
ATOM     13  C   UNL     1       2.506   4.193  19.713  0.00  0.00    +0.000 C 
ATOM     14  C   UNL     1       3.251   3.096  20.453  0.00  0.00    +0.000 C 
ENDROOT
BRANCH   1  18
ATOM     15  C   UNL     1       6.758   6.190  17.098  0.00  0.00    +0.000 A 
ATOM     16  C   UNL     1       6.846   5.826  18.437  0.00  0.00    +0.000 A 
ATOM     17  C   UNL     1       5.774   5.189  19.057  0.00  0.00    +0.000 A 
ATOM     18  C   UNL     1       4.550   5.036  18.376  0.00  0.00    +0.000 A 
ATOM     19  C   UNL     1       4.522   5.240  16.990  0.00  0.00    +0.000 A 
ATOM     20  C   UNL     1       5.632   5.824  16.354  0.00  0.00    +0.000 A 
BRANCH  15  22
ATOM     21  C   UNL     1       7.993   8.166  17.483  0.00  0.00    +0.000 C 
ATOM     22  O   UNL     1       7.757   7.021  16.682  0.00  0.00    +0.000 OA
ENDBRANCH  15  22
ENDBRANCH   1  18
BRANCH  13  23
ATOM     23  O   UNL     1       1.804   3.597  18.626  0.00  0.00    +0.000 OA
ATOM     24  H   UNL     1       1.733   4.283  17.939  0.00  0.00    +0.000 HD
ENDBRANCH  13  23
TORSDOF 3
ENDMDL
MODEL 2
REMARK VINA RESULT:      -7.7      1.044      1.272
REMARK  Name = 
REMARK  5 active torsions:
REMARK  status: ('A' for Active; 'I' for Inactive)
REMARK    1  A    between atoms: C_1  and  O_2
REMARK    2  A    between atoms: O_2  and  C_3
REMARK    3  A    between atoms: C_6  and  N_7
REMARK    4  A    between atoms: C_19  and  C_20
REMARK    5  A    between atoms: C_19  and  O_21
REMARK                            x       y       z     vdW  Elec       q    Type
REMARK                         _______ _______ _______ _____ _____    ______ ____
ROOT
ATOM      1  N   UNL     1       3.465   4.691  19.286  0.00  0.00    +0.000 N 
ATOM      2  C   UNL     1       3.015   5.933  19.156  0.00  0.00    +0.000 C 
ATOM      3  C   UNL     1       3.465   6.918  18.146  0.00  0.00    +0.000 C 
ATOM      4  C   UNL     1       2.235   7.673  17.694  0.00  0.00    +0.000 C 
ATOM      5  C   UNL     1       1.670   8.338  18.920  0.00  0.00    +0.000 A 
ATOM      6  C   UNL     1       1.469   9.719  18.864  0.00  0.00    +0.000 A 
ATOM      7  C   UNL     1       1.237  10.409  20.033  0.00  0.00    +0.000 A 
ATOM      8  C   UNL     1       1.104   9.699  21.228  0.00  0.00    +0.000 A 
ATOM      9  C   UNL     1       1.194   8.284  21.270  0.00  0.00    +0.000 A 
ATOM     10  C   UNL     1       1.519   7.573  20.118  0.00  0.00    +0.000 A 
ATOM     11  N   UNL     1       1.965   6.244  20.053  0.00  0.00    +0.000 N 
ATOM     12  C   UNL     1       1.554   5.018  20.755  0.00  0.00    +0.000 C 
ATOM     13  C   UNL     1       2.477   3.892  20.039  0.00  0.00    +0.000 C 
ATOM     14  C   UNL     1       3.148   2.897  20.968  0.00  0.00    +0.000 C 
ENDROOT
BRANCH   1  18
ATOM     15  C   UNL     1       6.476   4.936  16.626  0.00  0.00    +0.000 A 
ATOM     16  C   UNL     1       6.679   5.336  17.941  0.00  0.00    +0.000 A 
ATOM     17  C   UNL     1       5.765   4.976  18.928  0.00  0.00    +0.000 A 
ATOM     18  C   UNL     1       4.564   4.328  18.579  0.00  0.00    +0.000 A 
ATOM     19  C   UNL     1       4.447   3.775  17.297  0.00  0.00    +0.000 A 
ATOM     20  C   UNL     1       5.408   4.088  16.318  0.00  0.00    +0.000 A 
BRANCH  15  22
ATOM     21  C   UNL     1       7.212   5.091  14.387  0.00  0.00    +0.000 C 
ATOM     22  O   UNL     1       7.291   5.556  15.725  0.00  0.00    +0.000 OA
ENDBRANCH  15  22
ENDBRANCH   1  18
BRANCH  13  23
ATOM     23  O   UNL     1       1.723   3.163  19.076  0.00  0.00    +0.000 OA
ATOM     24  H   UNL     1       1.648   2.255  19.419  0.00  0.00    +0.000 HD
ENDBRANCH  13  23
TORSDOF 3
ENDMDL
MODEL 3
REMARK VINA RESULT:      -7.3      1.337      2.024
REMARK  Name = 
REMARK  5 active torsions:
REMARK  status: ('A' for Active; 'I' for Inactive)
REMARK    1  A    between atoms: C_1  and  O_2
REMARK    2  A    between atoms: O_2  and  C_3
REMARK    3  A    between atoms: C_6  and  N_7
REMARK    4  A    between atoms: C_19  and  C_20
REMARK    5  A    between atoms: C_19  and  O_21
REMARK                            x       y       z     vdW  Elec       q    Type
REMARK                         _______ _______ _______ _____ _____    ______ ____
ROOT
ATOM      1  N   UNL     1       3.859   6.311  18.334  0.00  0.00    +0.000 N 
ATOM      2  C   UNL     1       3.073   7.336  18.639  0.00  0.00    +0.000 C 
ATOM      3  C   UNL     1       3.022   8.633  17.927  0.00  0.00    +0.000 C 
ATOM      4  C   UNL     1       1.567   9.045  17.873  0.00  0.00    +0.000 C 
ATOM      5  C   UNL     1       1.107   9.165  19.301  0.00  0.00    +0.000 A 
ATOM      6  C   UNL     1       0.532  10.377  19.688  0.00  0.00    +0.000 A 
ATOM      7  C   UNL     1       0.366  10.641  21.030  0.00  0.00    +0.000 A 
ATOM      8  C   UNL     1       0.679   9.650  21.963  0.00  0.00    +0.000 A 
ATOM      9  C   UNL     1       1.156   8.374  21.565  0.00  0.00    +0.000 A 
ATOM     10  C   UNL     1       1.418   8.117  20.222  0.00  0.00    +0.000 A 
ATOM     11  N   UNL     1       2.185   7.060  19.707  0.00  0.00    +0.000 N 
ATOM     12  C   UNL     1       2.275   5.632  20.051  0.00  0.00    +0.000 C 
ATOM     13  C   UNL     1       3.302   5.077  18.924  0.00  0.00    +0.000 C 
ATOM     14  C   UNL     1       4.393   4.148  19.423  0.00  0.00    +0.000 C 
ENDROOT
BRANCH   1  18
ATOM     15  C   UNL     1       6.751   5.434  15.674  0.00  0.00    +0.000 A 
ATOM     16  C   UNL     1       5.446   5.634  15.238  0.00  0.00    +0.000 A 
ATOM     17  C   UNL     1       4.514   6.231  16.083  0.00  0.00    +0.000 A 
ATOM     18  C   UNL     1       4.846   6.506  17.425  0.00  0.00    +0.000 A 
ATOM     19  C   UNL     1       6.194   6.468  17.804  0.00  0.00    +0.000 A 
ATOM     20  C   UNL     1       7.146   5.924  16.922  0.00  0.00    +0.000 A 
BRANCH  15  22
ATOM     21  C   UNL     1       6.827   4.114  13.717  0.00  0.00    +0.000 C 
ATOM     22  O   UNL     1       7.489   4.623  14.862  0.00  0.00    +0.000 OA
ENDBRANCH  15  22
ENDBRANCH   1  18
BRANCH  13  23
ATOM     23  O   UNL     1       2.594   4.412  17.883  0.00  0.00    +0.000 OA
ATOM     24  H   UNL     1       1.875   3.917  18.315  0.00  0.00    +0.000 HD
ENDBRANCH  13  23
TORSDOF 3
ENDMDL
MODEL 4
REMARK VINA RESULT:      -7.1      3.347      5.201
REMARK  Name = 
REMARK  5 active torsions:
REMARK  status: ('A' for Active; 'I' for Inactive)
REMARK    1  A    between atoms: C_1  and  O_2
REMARK    2  A    between atoms: O_2  and  C_3
REMARK    3  A    between atoms: C_6  and  N_7
REMARK    4  A    between atoms: C_19  and  C_20
REMARK    5  A    between atoms: C_19  and  O_21
REMARK                            x       y       z     vdW  Elec       q    Type
REMARK                         _______ _______ _______ _____ _____    ______ ____
ROOT
ATOM      1  N   UNL     1       5.799   5.069  16.997  0.00  0.00    +0.000 N 
ATOM      2  C   UNL     1       4.729   4.451  17.482  0.00  0.00    +0.000 C 
ATOM      3  C   UNL     1       3.745   3.672  16.696  0.00  0.00    +0.000 C 
ATOM      4  C   UNL     1       3.371   2.469  17.534  0.00  0.00    +0.000 C 
ATOM      5  C   UNL     1       2.777   3.007  18.808  0.00  0.00    +0.000 A 
ATOM      6  C   UNL     1       1.504   2.556  19.162  0.00  0.00    +0.000 A 
ATOM      7  C   UNL     1       0.805   3.225  20.142  0.00  0.00    +0.000 A 
ATOM      8  C   UNL     1       1.427   4.270  20.829  0.00  0.00    +0.000 A 
ATOM      9  C   UNL     1       2.763   4.656  20.550  0.00  0.00    +0.000 A 
ATOM     10  C   UNL     1       3.457   4.055  19.503  0.00  0.00    +0.000 A 
ATOM     11  N   UNL     1       4.627   4.532  18.893  0.00  0.00    +0.000 N 
ATOM     12  C   UNL     1       5.858   5.137  19.428  0.00  0.00    +0.000 C 
ATOM     13  C   UNL     1       6.761   5.306  18.092  0.00  0.00    +0.000 C 
ATOM     14  C   UNL     1       7.473   6.638  17.938  0.00  0.00    +0.000 C 
ENDROOT
BRANCH   1  18
ATOM     15  C   UNL     1       6.480   3.983  13.182  0.00  0.00    +0.000 A 
ATOM     16  C   UNL     1       5.188   3.944  13.693  0.00  0.00    +0.000 A 
ATOM     17  C   UNL     1       4.892   4.597  14.887  0.00  0.00    +0.000 A 
ATOM     18  C   UNL     1       5.922   5.179  15.651  0.00  0.00    +0.000 A 
ATOM     19  C   UNL     1       7.176   5.369  15.055  0.00  0.00    +0.000 A 
ATOM     20  C   UNL     1       7.452   4.762  13.817  0.00  0.00    +0.000 A 
BRANCH  15  22
ATOM     21  C   UNL     1       5.553   2.456  11.636  0.00  0.00    +0.000 C 
ATOM     22  O   UNL     1       6.699   3.107  12.158  0.00  0.00    +0.000 OA
ENDBRANCH  15  22
ENDBRANCH   1  18
BRANCH  13  23
ATOM     23  O   UNL     1       7.735   4.270  18.009  0.00  0.00    +0.000 OA
ATOM     24  H   UNL     1       7.891   3.968  18.922  0.00  0.00    +0.000 HD
ENDBRANCH  13  23
TORSDOF 3
ENDMDL
MODEL 5
REMARK VINA RESULT:      -7.1      2.277      6.513
REMARK  Name = 
REMARK  5 active torsions:
REMARK  status: ('A' for Active; 'I' for Inactive)
REMARK    1  A    between atoms: C_1  and  O_2
REMARK    2  A    between atoms: O_2  and  C_3
REMARK    3  A    between atoms: C_6  and  N_7
REMARK    4  A    between atoms: C_19  and  C_20
REMARK    5  A    between atoms: C_19  and  O_21
REMARK                            x       y       z     vdW  Elec       q    Type
REMARK                         _______ _______ _______ _____ _____    ______ ____
ROOT
ATOM      1  N   UNL     1       3.403   5.749  17.882  0.00  0.00    +0.000 N 
ATOM      2  C   UNL     1       4.440   5.672  17.058  0.00  0.00    +0.000 C 
ATOM      3  C   UNL     1       5.480   6.710  16.871  0.00  0.00    +0.000 C 
ATOM      4  C   UNL     1       6.799   5.985  16.719  0.00  0.00    +0.000 C 
ATOM      5  C   UNL     1       6.660   5.100  15.510  0.00  0.00    +0.000 A 
ATOM      6  C   UNL     1       7.617   5.238  14.502  0.00  0.00    +0.000 A 
ATOM      7  C   UNL     1       7.376   4.674  13.268  0.00  0.00    +0.000 A 
ATOM      8  C   UNL     1       6.233   3.892  13.089  0.00  0.00    +0.000 A 
ATOM      9  C   UNL     1       5.317   3.655  14.146  0.00  0.00    +0.000 A 
ATOM     10  C   UNL     1       5.491   4.289  15.373  0.00  0.00    +0.000 A 
ATOM     11  N   UNL     1       4.530   4.428  16.386  0.00  0.00    +0.000 N 
ATOM     12  C   UNL     1       3.529   3.507  16.946  0.00  0.00    +0.000 C 
ATOM     13  C   UNL     1       2.893   4.389  18.150  0.00  0.00    +0.000 C 
ATOM     14  C   UNL     1       1.379   4.366  18.259  0.00  0.00    +0.000 C 
ENDROOT
BRANCH   1  18
ATOM     15  C   UNL     1       1.262   8.741  19.515  0.00  0.00    +0.000 A 
ATOM     16  C   UNL     1       1.793   7.746  20.327  0.00  0.00    +0.000 A 
ATOM     17  C   UNL     1       2.776   6.893  19.831  0.00  0.00    +0.000 A 
ATOM     18  C   UNL     1       3.136   6.942  18.469  0.00  0.00    +0.000 A 
ATOM     19  C   UNL     1       2.734   8.047  17.708  0.00  0.00    +0.000 A 
ATOM     20  C   UNL     1       1.789   8.945  18.236  0.00  0.00    +0.000 A 
BRANCH  15  22
ATOM     21  C   UNL     1      -0.129   9.086  21.392  0.00  0.00    +0.000 C 
ATOM     22  O   UNL     1       0.145   9.337  20.024  0.00  0.00    +0.000 OA
ENDBRANCH  15  22
ENDBRANCH   1  18
BRANCH  13  23
ATOM     23  O   UNL     1       3.435   3.991  19.405  0.00  0.00    +0.000 OA
ATOM     24  H   UNL     1       2.861   3.277  19.736  0.00  0.00    +0.000 HD
ENDBRANCH  13  23
TORSDOF 3
ENDMDL
MODEL 6
REMARK VINA RESULT:      -7.1      3.655      7.136
REMARK  Name = 
REMARK  5 active torsions:
REMARK  status: ('A' for Active; 'I' for Inactive)
REMARK    1  A    between atoms: C_1  and  O_2
REMARK    2  A    between atoms: O_2  and  C_3
REMARK    3  A    between atoms: C_6  and  N_7
REMARK    4  A    between atoms: C_19  and  C_20
REMARK    5  A    between atoms: C_19  and  O_21
REMARK                            x       y       z     vdW  Elec       q    Type
REMARK                         _______ _______ _______ _____ _____    ______ ____
ROOT
ATOM      1  N   UNL     1      -0.112  10.089  20.195  0.00  0.00    +0.000 N 
ATOM      2  C   UNL     1       0.669   9.234  19.546  0.00  0.00    +0.000 C 
ATOM      3  C   UNL     1       0.810   9.131  18.076  0.00  0.00    +0.000 C 
ATOM      4  C   UNL     1       2.273   8.868  17.794  0.00  0.00    +0.000 C 
ATOM      5  C   UNL     1       2.614   7.576  18.488  0.00  0.00    +0.000 A 
ATOM      6  C   UNL     1       3.182   6.564  17.712  0.00  0.00    +0.000 A 
ATOM      7  C   UNL     1       3.239   5.284  18.219  0.00  0.00    +0.000 A 
ATOM      8  C   UNL     1       2.826   5.053  19.532  0.00  0.00    +0.000 A 
ATOM      9  C   UNL     1       2.356   6.103  20.363  0.00  0.00    +0.000 A 
ATOM     10  C   UNL     1       2.202   7.386  19.843  0.00  0.00    +0.000 A 
ATOM     11  N   UNL     1       1.458   8.433  20.407  0.00  0.00    +0.000 N 
ATOM     12  C   UNL     1       1.306   8.919  21.788  0.00  0.00    +0.000 C 
ATOM     13  C   UNL     1       0.366  10.225  21.586  0.00  0.00    +0.000 C 
ATOM     14  C   UNL     1      -0.785  10.371  22.565  0.00  0.00    +0.000 C 
ENDROOT
BRANCH   1  18
ATOM     15  C   UNL     1      -2.196  11.406  17.013  0.00  0.00    +0.000 A 
ATOM     16  C   UNL     1      -2.693  10.360  17.782  0.00  0.00    +0.000 A 
ATOM     17  C   UNL     1      -2.152  10.102  19.039  0.00  0.00    +0.000 A 
ATOM     18  C   UNL     1      -1.014  10.806  19.479  0.00  0.00    +0.000 A 
ATOM     19  C   UNL     1      -0.631  11.963  18.789  0.00  0.00    +0.000 A 
ATOM     20  C   UNL     1      -1.225  12.258  17.548  0.00  0.00    +0.000 A 
BRANCH  15  22
ATOM     21  C   UNL     1      -3.168  10.174  15.248  0.00  0.00    +0.000 C 
ATOM     22  O   UNL     1      -2.627  11.397  15.719  0.00  0.00    +0.000 OA
ENDBRANCH  15  22
ENDBRANCH   1  18
BRANCH  13  23
ATOM     23  O   UNL     1       1.144  11.417  21.634  0.00  0.00    +0.000 OA
ATOM     24  H   UNL     1       1.690  11.419  20.828  0.00  0.00    +0.000 HD
ENDBRANCH  13  23
TORSDOF 3
ENDMDL
MODEL 7
REMARK VINA RESULT:      -6.8      3.035      6.700
REMARK  Name = 
REMARK  5 active torsions:
REMARK  status: ('A' for Active; 'I' for Inactive)
REMARK    1  A    between atoms: C_1  and  O_2
REMARK    2  A    between atoms: O_2  and  C_3
REMARK    3  A    between atoms: C_6  and  N_7
REMARK    4  A    between atoms: C_19  and  C_20
REMARK    5  A    between atoms: C_19  and  O_21
REMARK                            x       y       z     vdW  Elec       q    Type
REMARK                         _______ _______ _______ _____ _____    ______ ____
ROOT
ATOM      1  N   UNL     1       1.177   8.765  19.726  0.00  0.00    +0.000 N 
ATOM      2  C   UNL     1       1.940   7.943  19.017  0.00  0.00    +0.000 C 
ATOM      3  C   UNL     1       2.630   8.275  17.749  0.00  0.00    +0.000 C 
ATOM      4  C   UNL     1       3.986   7.605  17.800  0.00  0.00    +0.000 C 
ATOM      5  C   UNL     1       3.725   6.128  17.932  0.00  0.00    +0.000 A 
ATOM      6  C   UNL     1       4.315   5.287  16.987  0.00  0.00    +0.000 A 
ATOM      7  C   UNL     1       3.880   3.984  16.886  0.00  0.00    +0.000 A 
ATOM      8  C   UNL     1       2.937   3.509  17.800  0.00  0.00    +0.000 A 
ATOM      9  C   UNL     1       2.420   4.330  18.835  0.00  0.00    +0.000 A 
ATOM     10  C   UNL     1       2.775   5.675  18.900  0.00  0.00    +0.000 A 
ATOM     11  N   UNL     1       2.120   6.679  19.629  0.00  0.00    +0.000 N 
ATOM     12  C   UNL     1       1.542   6.714  20.982  0.00  0.00    +0.000 C 
ATOM     13  C   UNL     1       1.077   8.262  21.111  0.00  0.00    +0.000 C 
ATOM     14  C   UNL     1      -0.305   8.492  21.696  0.00  0.00    +0.000 C 
ENDROOT
BRANCH   1  18
ATOM     15  C   UNL     1      -0.702  12.297  19.286  0.00  0.00    +0.000 A 
ATOM     16  C   UNL     1       0.538  12.246  19.911  0.00  0.00    +0.000 A 
ATOM     17  C   UNL     1       1.328  11.104  19.798  0.00  0.00    +0.000 A 
ATOM     18  C   UNL     1       0.819   9.949  19.171  0.00  0.00    +0.000 A 
ATOM     19  C   UNL     1      -0.344  10.062  18.398  0.00  0.00    +0.000 A 
ATOM     20  C   UNL     1      -1.107  11.242  18.463  0.00  0.00    +0.000 A 
BRANCH  15  22
ATOM     21  C   UNL     1      -2.658  13.028  20.390  0.00  0.00    +0.000 C 
ATOM     22  O   UNL     1      -1.477  13.351  19.676  0.00  0.00    +0.000 OA
ENDBRANCH  15  22
ENDBRANCH   1  18
BRANCH  13  23
ATOM     23  O   UNL     1       2.015   9.006  21.882  0.00  0.00    +0.000 OA
ATOM     24  H   UNL     1       1.494   9.631  22.417  0.00  0.00    +0.000 HD
ENDBRANCH  13  23
TORSDOF 3
ENDMDL
MODEL 8
REMARK VINA RESULT:      -6.6      3.531      6.860
REMARK  Name = 
REMARK  5 active torsions:
REMARK  status: ('A' for Active; 'I' for Inactive)
REMARK    1  A    between atoms: C_1  and  O_2
REMARK    2  A    between atoms: O_2  and  C_3
REMARK    3  A    between atoms: C_6  and  N_7
REMARK    4  A    between atoms: C_19  and  C_20
REMARK    5  A    between atoms: C_19  and  O_21
REMARK                            x       y       z     vdW  Elec       q    Type
REMARK                         _______ _______ _______ _____ _____    ______ ____
ROOT
ATOM      1  N   UNL     1       0.875   9.815  19.706  0.00  0.00    +0.000 N 
ATOM      2  C   UNL     1       1.478   8.739  19.217  0.00  0.00    +0.000 C 
ATOM      3  C   UNL     1       2.033   8.601  17.851  0.00  0.00    +0.000 C 
ATOM      4  C   UNL     1       3.327   7.827  17.980  0.00  0.00    +0.000 C 
ATOM      5  C   UNL     1       2.966   6.495  18.582  0.00  0.00    +0.000 A 
ATOM      6  C   UNL     1       3.368   5.351  17.890  0.00  0.00    +0.000 A 
ATOM      7  C   UNL     1       2.820   4.134  18.233  0.00  0.00    +0.000 A 
ATOM      8  C   UNL     1       1.959   4.061  19.331  0.00  0.00    +0.000 A 
ATOM      9  C   UNL     1       1.639   5.204  20.107  0.00  0.00    +0.000 A 
ATOM     10  C   UNL     1       2.107   6.458  19.724  0.00  0.00    +0.000 A 
ATOM     11  N   UNL     1       1.629   7.701  20.168  0.00  0.00    +0.000 N 
ATOM     12  C   UNL     1       1.223   8.200  21.491  0.00  0.00    +0.000 C 
ATOM     13  C   UNL     1       0.903   9.759  21.182  0.00  0.00    +0.000 C 
ATOM     14  C   UNL     1      -0.375  10.306  21.791  0.00  0.00    +0.000 C 
ENDROOT
BRANCH   1  18
ATOM     15  C   UNL     1      -0.268  13.462  18.443  0.00  0.00    +0.000 A 
ATOM     16  C   UNL     1       1.083  13.169  18.582  0.00  0.00    +0.000 A 
ATOM     17  C   UNL     1       1.499  11.847  18.715  0.00  0.00    +0.000 A 
ATOM     18  C   UNL     1       0.549  10.815  18.850  0.00  0.00    +0.000 A 
ATOM     19  C   UNL     1      -0.788  11.088  18.536  0.00  0.00    +0.000 A 
ATOM     20  C   UNL     1      -1.195  12.420  18.337  0.00  0.00    +0.000 A 
BRANCH  15  22
ATOM     21  C   UNL     1      -0.599  15.291  19.900  0.00  0.00    +0.000 C 
ATOM     22  O   UNL     1      -0.566  14.787  18.576  0.00  0.00    +0.000 OA
ENDBRANCH  15  22
ENDBRANCH   1  18
BRANCH  13  23
ATOM     23  O   UNL     1       1.984  10.587  21.599  0.00  0.00    +0.000 OA
ATOM     24  H   UNL     1       2.521  10.049  22.208  0.00  0.00    +0.000 HD
ENDBRANCH  13  23
TORSDOF 3
ENDMDL
MODEL 9
REMARK VINA RESULT:      -6.6      3.825      7.576
REMARK  Name = 
REMARK  5 active torsions:
REMARK  status: ('A' for Active; 'I' for Inactive)
REMARK    1  A    between atoms: C_1  and  O_2
REMARK    2  A    between atoms: O_2  and  C_3
REMARK    3  A    between atoms: C_6  and  N_7
REMARK    4  A    between atoms: C_19  and  C_20
REMARK    5  A    between atoms: C_19  and  O_21
REMARK                            x       y       z     vdW  Elec       q    Type
REMARK                         _______ _______ _______ _____ _____    ______ ____
ROOT
ATOM      1  N   UNL     1       0.099   9.986  20.018  0.00  0.00    +0.000 N 
ATOM      2  C   UNL     1       0.877   9.101  19.407  0.00  0.00    +0.000 C 
ATOM      3  C   UNL     1       1.123   9.021  17.949  0.00  0.00    +0.000 C 
ATOM      4  C   UNL     1       2.587   8.680  17.770  0.00  0.00    +0.000 C 
ATOM      5  C   UNL     1       2.801   7.357  18.454  0.00  0.00    +0.000 A 
ATOM      6  C   UNL     1       3.368   6.330  17.697  0.00  0.00    +0.000 A 
ATOM      7  C   UNL     1       3.316   5.039  18.173  0.00  0.00    +0.000 A 
ATOM      8  C   UNL     1       2.792   4.804  19.446  0.00  0.00    +0.000 A 
ATOM      9  C   UNL     1       2.319   5.861  20.266  0.00  0.00    +0.000 A 
ATOM     10  C   UNL     1       2.277   7.161  19.770  0.00  0.00    +0.000 A 
ATOM     11  N   UNL     1       1.552   8.237  20.304  0.00  0.00    +0.000 N 
ATOM     12  C   UNL     1       1.323   8.701  21.681  0.00  0.00    +0.000 C 
ATOM     13  C   UNL     1       0.476  10.064  21.443  0.00  0.00    +0.000 C 
ATOM     14  C   UNL     1      -0.736  10.255  22.337  0.00  0.00    +0.000 C 
ENDROOT
BRANCH   1  18
ATOM     15  C   UNL     1      -3.258  11.778  18.705  0.00  0.00    +0.000 A 
ATOM     16  C   UNL     1      -2.444  12.424  19.627  0.00  0.00    +0.000 A 
ATOM     17  C   UNL     1      -1.148  11.965  19.853  0.00  0.00    +0.000 A 
ATOM     18  C   UNL     1      -0.705  10.769  19.255  0.00  0.00    +0.000 A 
ATOM     19  C   UNL     1      -1.454  10.226  18.204  0.00  0.00    +0.000 A 
ATOM     20  C   UNL     1      -2.738  10.733  17.934  0.00  0.00    +0.000 A 
BRANCH  15  22
ATOM     21  C   UNL     1      -5.313  12.005  17.562  0.00  0.00    +0.000 C 
ATOM     22  O   UNL     1      -4.568  12.157  18.758  0.00  0.00    +0.000 OA
ENDBRANCH  15  22
ENDBRANCH   1  18
BRANCH  13  23
ATOM     23  O   UNL     1       1.314  11.207  21.580  0.00  0.00    +0.000 OA
ATOM     24  H   UNL     1       1.749  11.332  20.717  0.00  0.00    +0.000 HD
ENDBRANCH  13  23
TORSDOF 3
ENDMDL
