MODEL 1
REMARK VINA RESULT:      -8.5      0.000      0.000
REMARK  Name = 
REMARK  1 active torsions:
REMARK  status: ('A' for Active; 'I' for Inactive)
REMARK    1  A    between atoms: C_2  and  C_3
REMARK                            x       y       z     vdW  Elec       q    Type
REMARK                         _______ _______ _______ _____ _____    ______ ____
ROOT
ATOM      1  O   UNL     1       2.584   7.022  18.237  0.00  0.00    +0.000 OA
ATOM      2  C   UNL     1       3.152   5.929  18.285  0.00  0.00    +0.000 C 
ATOM      3  N   UNL     1       4.402   5.710  17.705  0.00  0.00    +0.000 N 
ATOM      4  C   UNL     1       5.191   4.474  17.720  0.00  0.00    +0.000 C 
ATOM      5  C   UNL     1       5.197   3.878  16.309  0.00  0.00    +0.000 C 
ATOM      6  C   UNL     1       5.794   4.886  15.346  0.00  0.00    +0.000 C 
ATOM      7  C   UNL     1       5.126   6.255  15.406  0.00  0.00    +0.000 C 
ATOM      8  C   UNL     1       4.985   6.751  16.855  0.00  0.00    +0.000 C 
ATOM      9  C   UNL     1       7.276   4.787  15.060  0.00  0.00    +0.000 C 
ATOM     10  C   UNL     1       6.283   4.395  14.002  0.00  0.00    +0.000 C 
ENDROOT
BRANCH   2  11
ATOM     11  C   UNL     1       2.439   4.854  19.031  0.00  0.00    +0.000 A 
ATOM     12  C   UNL     1       1.517   3.995  18.429  0.00  0.00    +0.000 A 
ATOM     13  C   UNL     1       0.943   2.961  19.160  0.00  0.00    +0.000 A 
ATOM     14  F   UNL     1       0.140   2.091  18.534  0.00  0.00    +0.000 F 
ATOM     15  C   UNL     1       1.192   2.816  20.512  0.00  0.00    +0.000 A 
ATOM     16  C   UNL     1       2.028   3.732  21.134  0.00  0.00    +0.000 A 
ATOM     17  F   UNL     1       2.237   3.638  22.453  0.00  0.00    +0.000 F 
ATOM     18  C   UNL     1       2.658   4.743  20.412  0.00  0.00    +0.000 A 
ENDBRANCH   2  11
TORSDOF 1
ENDMDL
MODEL 2
REMARK VINA RESULT:      -8.4      0.093      1.934
REMARK  Name = 
REMARK  1 active torsions:
REMARK  status: ('A' for Active; 'I' for Inactive)
REMARK    1  A    between atoms: C_2  and  C_3
REMARK                            x       y       z     vdW  Elec       q    Type
REMARK                         _______ _______ _______ _____ _____    ______ ____
ROOT
ATOM      1  O   UNL     1       2.640   7.023  18.198  0.00  0.00    +0.000 OA
ATOM      2  C   UNL     1       3.218   5.936  18.263  0.00  0.00    +0.000 C 
ATOM      3  N   UNL     1       4.454   5.709  17.657  0.00  0.00    +0.000 N 
ATOM      4  C   UNL     1       5.253   4.480  17.686  0.00  0.00    +0.000 C 
ATOM      5  C   UNL     1       5.227   3.844  16.292  0.00  0.00    +0.000 C 
ATOM      6  C   UNL     1       5.790   4.828  15.286  0.00  0.00    +0.000 C 
ATOM      7  C   UNL     1       5.113   6.193  15.325  0.00  0.00    +0.000 C 
ATOM      8  C   UNL     1       5.006   6.730  16.762  0.00  0.00    +0.000 C 
ATOM      9  C   UNL     1       7.265   4.732  14.964  0.00  0.00    +0.000 C 
ATOM     10  C   UNL     1       6.248   4.303  13.944  0.00  0.00    +0.000 C 
ENDROOT
BRANCH   2  11
ATOM     11  C   UNL     1       2.534   4.878  19.057  0.00  0.00    +0.000 A 
ATOM     12  C   UNL     1       2.768   4.680  20.420  0.00  0.00    +0.000 A 
ATOM     13  C   UNL     1       2.040   3.727  21.124  0.00  0.00    +0.000 A 
ATOM     14  F   UNL     1       2.211   3.626  22.448  0.00  0.00    +0.000 F 
ATOM     15  C   UNL     1       1.145   2.891  20.481  0.00  0.00    +0.000 A 
ATOM     16  C   UNL     1       0.988   3.018  19.108  0.00  0.00    +0.000 A 
ATOM     17  F   UNL     1       0.166   2.181  18.463  0.00  0.00    +0.000 F 
ATOM     18  C   UNL     1       1.665   4.002  18.390  0.00  0.00    +0.000 A 
ENDBRANCH   2  11
TORSDOF 1
ENDMDL
MODEL 3
REMARK VINA RESULT:      -7.6      2.919      5.910
REMARK  Name = 
REMARK  1 active torsions:
REMARK  status: ('A' for Active; 'I' for Inactive)
REMARK    1  A    between atoms: C_2  and  C_3
REMARK                            x       y       z     vdW  Elec       q    Type
REMARK                         _______ _______ _______ _____ _____    ______ ____
ROOT
ATOM      1  O   UNL     1       3.769   7.219  17.755  0.00  0.00    +0.000 OA
ATOM      2  C   UNL     1       3.900   5.993  17.723  0.00  0.00    +0.000 C 
ATOM      3  N   UNL     1       2.971   5.127  18.299  0.00  0.00    +0.000 N 
ATOM      4  C   UNL     1       2.997   3.660  18.302  0.00  0.00    +0.000 C 
ATOM      5  C   UNL     1       3.300   3.177  19.724  0.00  0.00    +0.000 C 
ATOM      6  C   UNL     1       2.232   3.698  20.664  0.00  0.00    +0.000 C 
ATOM      7  C   UNL     1       2.032   5.207  20.583  0.00  0.00    +0.000 C 
ATOM      8  C   UNL     1       1.897   5.681  19.127  0.00  0.00    +0.000 C 
ATOM      9  C   UNL     1       1.046   2.800  20.943  0.00  0.00    +0.000 C 
ATOM     10  C   UNL     1       2.075   3.034  22.014  0.00  0.00    +0.000 C 
ENDROOT
BRANCH   2  11
ATOM     11  C   UNL     1       5.100   5.483  17.001  0.00  0.00    +0.000 A 
ATOM     12  C   UNL     1       5.154   5.360  15.611  0.00  0.00    +0.000 A 
ATOM     13  C   UNL     1       6.330   4.952  14.991  0.00  0.00    +0.000 A 
ATOM     14  F   UNL     1       6.388   4.938  13.652  0.00  0.00    +0.000 F 
ATOM     15  C   UNL     1       7.433   4.566  15.729  0.00  0.00    +0.000 A 
ATOM     16  C   UNL     1       7.344   4.589  17.115  0.00  0.00    +0.000 A 
ATOM     17  F   UNL     1       8.384   4.168  17.844  0.00  0.00    +0.000 F 
ATOM     18  C   UNL     1       6.197   5.047  17.758  0.00  0.00    +0.000 A 
ENDBRANCH   2  11
TORSDOF 1
ENDMDL
MODEL 4
REMARK VINA RESULT:      -7.5      2.930      6.192
REMARK  Name = 
REMARK  1 active torsions:
REMARK  status: ('A' for Active; 'I' for Inactive)
REMARK    1  A    between atoms: C_2  and  C_3
REMARK                            x       y       z     vdW  Elec       q    Type
REMARK                         _______ _______ _______ _____ _____    ______ ____
ROOT
ATOM      1  O   UNL     1       3.730   7.209  17.662  0.00  0.00    +0.000 OA
ATOM      2  C   UNL     1       3.903   5.988  17.677  0.00  0.00    +0.000 C 
ATOM      3  N   UNL     1       2.979   5.109  18.242  0.00  0.00    +0.000 N 
ATOM      4  C   UNL     1       3.053   3.645  18.295  0.00  0.00    +0.000 C 
ATOM      5  C   UNL     1       3.310   3.219  19.744  0.00  0.00    +0.000 C 
ATOM      6  C   UNL     1       2.185   3.733  20.620  0.00  0.00    +0.000 C 
ATOM      7  C   UNL     1       1.939   5.231  20.480  0.00  0.00    +0.000 C 
ATOM      8  C   UNL     1       1.853   5.653  19.004  0.00  0.00    +0.000 C 
ATOM      9  C   UNL     1       1.019   2.804  20.879  0.00  0.00    +0.000 C 
ATOM     10  C   UNL     1       1.991   3.108  21.983  0.00  0.00    +0.000 C 
ENDROOT
BRANCH   2  11
ATOM     11  C   UNL     1       5.150   5.497  17.024  0.00  0.00    +0.000 A 
ATOM     12  C   UNL     1       6.288   5.125  17.744  0.00  0.00    +0.000 A 
ATOM     13  C   UNL     1       7.392   4.599  17.083  0.00  0.00    +0.000 A 
ATOM     14  F   UNL     1       8.431   4.156  17.803  0.00  0.00    +0.000 F 
ATOM     15  C   UNL     1       7.431   4.523  15.703  0.00  0.00    +0.000 A 
ATOM     16  C   UNL     1       6.341   4.989  14.982  0.00  0.00    +0.000 A 
ATOM     17  F   UNL     1       6.386   4.972  13.644  0.00  0.00    +0.000 F 
ATOM     18  C   UNL     1       5.201   5.469  15.623  0.00  0.00    +0.000 A 
ENDBRANCH   2  11
TORSDOF 1
ENDMDL
MODEL 5
REMARK VINA RESULT:      -7.3      3.817      6.917
REMARK  Name = 
REMARK  1 active torsions:
REMARK  status: ('A' for Active; 'I' for Inactive)
REMARK    1  A    between atoms: C_2  and  C_3
REMARK                            x       y       z     vdW  Elec       q    Type
REMARK                         _______ _______ _______ _____ _____    ______ ____
ROOT
ATOM      1  O   UNL     1       8.040   4.226  17.053  0.00  0.00    +0.000 OA
ATOM      2  C   UNL     1       6.984   4.559  16.511  0.00  0.00    +0.000 C 
ATOM      3  N   UNL     1       5.861   4.951  17.240  0.00  0.00    +0.000 N 
ATOM      4  C   UNL     1       4.565   5.396  16.718  0.00  0.00    +0.000 C 
ATOM      5  C   UNL     1       3.521   4.312  17.004  0.00  0.00    +0.000 C 
ATOM      6  C   UNL     1       3.446   4.077  18.500  0.00  0.00    +0.000 C 
ATOM      7  C   UNL     1       4.798   3.779  19.138  0.00  0.00    +0.000 C 
ATOM      8  C   UNL     1       5.867   4.792  18.697  0.00  0.00    +0.000 C 
ATOM      9  C   UNL     1       2.405   4.851  19.278  0.00  0.00    +0.000 C 
ATOM     10  C   UNL     1       2.229   3.375  19.058  0.00  0.00    +0.000 C 
ENDROOT
BRANCH   2  11
ATOM     11  C   UNL     1       6.982   4.550  15.021  0.00  0.00    +0.000 A 
ATOM     12  C   UNL     1       7.705   5.468  14.255  0.00  0.00    +0.000 A 
ATOM     13  C   UNL     1       7.726   5.359  12.869  0.00  0.00    +0.000 A 
ATOM     14  F   UNL     1       8.506   6.189  12.164  0.00  0.00    +0.000 F 
ATOM     15  C   UNL     1       6.962   4.412  12.213  0.00  0.00    +0.000 A 
ATOM     16  C   UNL     1       6.161   3.566  12.969  0.00  0.00    +0.000 A 
ATOM     17  F   UNL     1       5.375   2.680  12.347  0.00  0.00    +0.000 F 
ATOM     18  C   UNL     1       6.166   3.619  14.362  0.00  0.00    +0.000 A 
ENDBRANCH   2  11
TORSDOF 1
ENDMDL
MODEL 6
REMARK VINA RESULT:      -7.3      3.388      6.105
REMARK  Name = 
REMARK  1 active torsions:
REMARK  status: ('A' for Active; 'I' for Inactive)
REMARK    1  A    between atoms: C_2  and  C_3
REMARK                            x       y       z     vdW  Elec       q    Type
REMARK                         _______ _______ _______ _____ _____    ______ ____
ROOT
ATOM      1  O   UNL     1       4.757   4.688  15.817  0.00  0.00    +0.000 OA
ATOM      2  C   UNL     1       4.975   4.637  17.029  0.00  0.00    +0.000 C 
ATOM      3  N   UNL     1       4.237   3.823  17.888  0.00  0.00    +0.000 N 
ATOM      4  C   UNL     1       4.417   3.651  19.334  0.00  0.00    +0.000 C 
ATOM      5  C   UNL     1       3.237   4.308  20.057  0.00  0.00    +0.000 C 
ATOM      6  C   UNL     1       1.947   3.659  19.595  0.00  0.00    +0.000 C 
ATOM      7  C   UNL     1       1.780   3.649  18.079  0.00  0.00    +0.000 C 
ATOM      8  C   UNL     1       3.048   3.139  17.375  0.00  0.00    +0.000 C 
ATOM      9  C   UNL     1       1.410   2.507  20.415  0.00  0.00    +0.000 C 
ATOM     10  C   UNL     1       0.708   3.836  20.443  0.00  0.00    +0.000 C 
ENDROOT
BRANCH   2  11
ATOM     11  C   UNL     1       6.101   5.478  17.527  0.00  0.00    +0.000 A 
ATOM     12  C   UNL     1       6.373   6.754  17.030  0.00  0.00    +0.000 A 
ATOM     13  C   UNL     1       7.388   7.521  17.590  0.00  0.00    +0.000 A 
ATOM     14  F   UNL     1       7.564   8.779  17.163  0.00  0.00    +0.000 F 
ATOM     15  C   UNL     1       8.211   7.010  18.576  0.00  0.00    +0.000 A 
ATOM     16  C   UNL     1       8.007   5.703  18.998  0.00  0.00    +0.000 A 
ATOM     17  F   UNL     1       8.829   5.176  19.913  0.00  0.00    +0.000 F 
ATOM     18  C   UNL     1       6.961   4.935  18.492  0.00  0.00    +0.000 A 
ENDBRANCH   2  11
TORSDOF 1
ENDMDL
MODEL 7
REMARK VINA RESULT:      -7.3      3.402      6.219
REMARK  Name = 
REMARK  1 active torsions:
REMARK  status: ('A' for Active; 'I' for Inactive)
REMARK    1  A    between atoms: C_2  and  C_3
REMARK                            x       y       z     vdW  Elec       q    Type
REMARK                         _______ _______ _______ _____ _____    ______ ____
ROOT
ATOM      1  O   UNL     1       4.870   4.731  15.872  0.00  0.00    +0.000 OA
ATOM      2  C   UNL     1       5.022   4.674  17.094  0.00  0.00    +0.000 C 
ATOM      3  N   UNL     1       4.222   3.873  17.909  0.00  0.00    +0.000 N 
ATOM      4  C   UNL     1       4.320   3.695  19.362  0.00  0.00    +0.000 C 
ATOM      5  C   UNL     1       3.117   4.375  20.023  0.00  0.00    +0.000 C 
ATOM      6  C   UNL     1       1.841   3.754  19.489  0.00  0.00    +0.000 C 
ATOM      7  C   UNL     1       1.755   3.749  17.968  0.00  0.00    +0.000 C 
ATOM      8  C   UNL     1       3.048   3.215  17.331  0.00  0.00    +0.000 C 
ATOM      9  C   UNL     1       1.236   2.612  20.277  0.00  0.00    +0.000 C 
ATOM     10  C   UNL     1       0.562   3.955  20.270  0.00  0.00    +0.000 C 
ENDROOT
BRANCH   2  11
ATOM     11  C   UNL     1       6.136   5.490  17.654  0.00  0.00    +0.000 A 
ATOM     12  C   UNL     1       6.947   5.051  18.703  0.00  0.00    +0.000 A 
ATOM     13  C   UNL     1       8.020   5.825  19.128  0.00  0.00    +0.000 A 
ATOM     14  F   UNL     1       8.842   5.337  20.067  0.00  0.00    +0.000 F 
ATOM     15  C   UNL     1       8.252   7.081  18.599  0.00  0.00    +0.000 A 
ATOM     16  C   UNL     1       7.383   7.562  17.629  0.00  0.00    +0.000 A 
ATOM     17  F   UNL     1       7.562   8.797  17.145  0.00  0.00    +0.000 F 
ATOM     18  C   UNL     1       6.334   6.782  17.146  0.00  0.00    +0.000 A 
ENDBRANCH   2  11
TORSDOF 1
ENDMDL
MODEL 8
REMARK VINA RESULT:      -7.2      3.815      6.771
REMARK  Name = 
REMARK  1 active torsions:
REMARK  status: ('A' for Active; 'I' for Inactive)
REMARK    1  A    between atoms: C_2  and  C_3
REMARK                            x       y       z     vdW  Elec       q    Type
REMARK                         _______ _______ _______ _____ _____    ______ ____
ROOT
ATOM      1  O   UNL     1       7.996   4.365  17.074  0.00  0.00    +0.000 OA
ATOM      2  C   UNL     1       6.914   4.579  16.524  0.00  0.00    +0.000 C 
ATOM      3  N   UNL     1       5.762   4.905  17.240  0.00  0.00    +0.000 N 
ATOM      4  C   UNL     1       4.431   5.211  16.705  0.00  0.00    +0.000 C 
ATOM      5  C   UNL     1       3.487   4.054  17.047  0.00  0.00    +0.000 C 
ATOM      6  C   UNL     1       3.435   3.883  18.552  0.00  0.00    +0.000 C 
ATOM      7  C   UNL     1       4.808   3.734  19.196  0.00  0.00    +0.000 C 
ATOM      8  C   UNL     1       5.784   4.815  18.702  0.00  0.00    +0.000 C 
ATOM      9  C   UNL     1       2.331   4.598  19.300  0.00  0.00    +0.000 C 
ATOM     10  C   UNL     1       2.285   3.104  19.149  0.00  0.00    +0.000 C 
ENDROOT
BRANCH   2  11
ATOM     11  C   UNL     1       6.910   4.502  15.035  0.00  0.00    +0.000 A 
ATOM     12  C   UNL     1       6.153   3.567  14.325  0.00  0.00    +0.000 A 
ATOM     13  C   UNL     1       6.131   3.596  12.936  0.00  0.00    +0.000 A 
ATOM     14  F   UNL     1       5.319   2.755  12.281  0.00  0.00    +0.000 F 
ATOM     15  C   UNL     1       6.925   4.476  12.225  0.00  0.00    +0.000 A 
ATOM     16  C   UNL     1       7.757   5.336  12.929  0.00  0.00    +0.000 A 
ATOM     17  F   UNL     1       8.571   6.157  12.255  0.00  0.00    +0.000 F 
ATOM     18  C   UNL     1       7.755   5.364  14.322  0.00  0.00    +0.000 A 
ENDBRANCH   2  11
TORSDOF 1
ENDMDL
MODEL 9
REMARK VINA RESULT:      -6.6      1.941      2.391
REMARK  Name = 
REMARK  1 active torsions:
REMARK  status: ('A' for Active; 'I' for Inactive)
REMARK    1  A    between atoms: C_2  and  C_3
REMARK                            x       y       z     vdW  Elec       q    Type
REMARK                         _______ _______ _______ _____ _____    ______ ____
ROOT
ATOM      1  O   UNL     1       6.329   5.280  19.822  0.00  0.00    +0.000 OA
ATOM      2  C   UNL     1       5.485   4.746  19.100  0.00  0.00    +0.000 C 
ATOM      3  N   UNL     1       5.803   4.203  17.856  0.00  0.00    +0.000 N 
ATOM      4  C   UNL     1       4.902   3.518  16.922  0.00  0.00    +0.000 C 
ATOM      5  C   UNL     1       4.681   4.419  15.703  0.00  0.00    +0.000 C 
ATOM      6  C   UNL     1       6.018   4.707  15.048  0.00  0.00    +0.000 C 
ATOM      7  C   UNL     1       7.061   5.262  16.011  0.00  0.00    +0.000 C 
ATOM      8  C   UNL     1       7.140   4.427  17.300  0.00  0.00    +0.000 C 
ATOM      9  C   UNL     1       6.451   3.803  13.914  0.00  0.00    +0.000 C 
ATOM     10  C   UNL     1       6.027   5.215  13.624  0.00  0.00    +0.000 C 
ENDROOT
BRANCH   2  11
ATOM     11  C   UNL     1       4.100   4.685  19.647  0.00  0.00    +0.000 A 
ATOM     12  C   UNL     1       3.476   3.487  20.001  0.00  0.00    +0.000 A 
ATOM     13  C   UNL     1       2.212   3.501  20.580  0.00  0.00    +0.000 A 
ATOM     14  F   UNL     1       1.677   2.348  21.002  0.00  0.00    +0.000 F 
ATOM     15  C   UNL     1       1.506   4.681  20.729  0.00  0.00    +0.000 A 
ATOM     16  C   UNL     1       2.084   5.861  20.282  0.00  0.00    +0.000 A 
ATOM     17  F   UNL     1       1.392   7.003  20.371  0.00  0.00    +0.000 F 
ATOM     18  C   UNL     1       3.371   5.879  19.750  0.00  0.00    +0.000 A 
ENDBRANCH   2  11
TORSDOF 1
ENDMDL
