MODEL 1
REMARK VINA RESULT:      -7.6      0.000      0.000
REMARK  Name = 
REMARK  15 active torsions:
REMARK  status: ('A' for Active; 'I' for Inactive)
REMARK    1  A    between atoms: C_1  and  C_2
REMARK    2  A    between atoms: C_5  and  C_6
REMARK    3  A    between atoms: C_6  and  C_7
REMARK    4  A    between atoms: C_6  and  O_8
REMARK    5  A    between atoms: C_6  and  C_9
REMARK    6  A    between atoms: C_9  and  C_10
REMARK    7  A    between atoms: C_10  and  C_11
REMARK    8  A    between atoms: C_11  and  C_12
REMARK    9  A    between atoms: C_12  and  C_13
REMARK   10  A    between atoms: C_12  and  C_14
REMARK   11  A    between atoms: C_12  and  N_15
REMARK   12  A    between atoms: N_15  and  C_16
REMARK   13  A    between atoms: C_16  and  N_18
REMARK   14  A    between atoms: N_18  and  N_19
REMARK   15  A    between atoms: C_20  and  C_21
REMARK                            x       y       z     vdW  Elec       q    Type
REMARK                         _______ _______ _______ _____ _____    ______ ____
ROOT
ATOM      1  C   UNL     1       2.942   5.870  18.562  0.00  0.00    +0.000 C 
ATOM      2  C   UNL     1       2.089   4.870  17.761  0.00  0.00    +0.000 C 
ATOM      3  C   UNL     1       3.812   6.707  17.601  0.00  0.00    +0.000 C 
ENDROOT
BRANCH   1   4
ATOM      4  N   UNL     1       3.804   5.187  19.568  0.00  0.00    +0.000 N 
ATOM      5  H   UNL     1       4.116   5.767  20.332  0.00  0.00    +0.000 HD
BRANCH   4   6
ATOM      6  C   UNL     1       4.154   3.851  19.690  0.00  0.00    +0.000 C 
ATOM      7  S   UNL     1       3.275   2.640  20.443  0.00  0.00    +0.000 S 
BRANCH   6   8
ATOM      8  N   UNL     1       5.381   3.600  19.069  0.00  0.00    +0.000 N 
ATOM      9  H   UNL     1       5.734   2.650  19.046  0.00  0.00    +0.000 HD
BRANCH   8  10
ATOM     10  N   UNL     1       6.349   4.564  19.108  0.00  0.00    +0.000 NA
ATOM     11  C   UNL     1       6.955   4.899  18.009  0.00  0.00    +0.000 C 
BRANCH  11  12
ATOM     12  C   UNL     1       6.618   4.547  16.617  0.00  0.00    +0.000 A 
ATOM     13  C   UNL     1       5.471   3.809  16.302  0.00  0.00    +0.000 A 
ATOM     14  C   UNL     1       5.177   3.515  14.971  0.00  0.00    +0.000 A 
ATOM     15  C   UNL     1       6.011   3.984  13.959  0.00  0.00    +0.000 A 
ATOM     16 CL   UNL     1       5.652   3.610  12.319  0.00  0.00    +0.000 Cl
ATOM     17  C   UNL     1       7.128   4.762  14.264  0.00  0.00    +0.000 A 
ATOM     18  C   UNL     1       7.432   5.049  15.598  0.00  0.00    +0.000 A 
ENDBRANCH  11  12
ENDBRANCH   8  10
ENDBRANCH   6   8
ENDBRANCH   4   6
ENDBRANCH   1   4
BRANCH   1  19
ATOM     19  C   UNL     1       2.008   6.896  19.301  0.00  0.00    +0.000 C 
BRANCH  19  20
ATOM     20  C   UNL     1       2.282   8.360  18.947  0.00  0.00    +0.000 C 
BRANCH  20  21
ATOM     21  C   UNL     1       1.159   9.055  18.159  0.00  0.00    +0.000 C 
BRANCH  21  22
ATOM     22  C   UNL     1       0.551  10.250  18.954  0.00  0.00    +0.000 C 
ATOM     23  C   UNL     1       1.297  11.559  18.629  0.00  0.00    +0.000 C 
BRANCH  22  28
ATOM     24  C   UNL     1      -4.974  11.481  17.199  0.00  0.00    +0.000 C 
ATOM     25  C   UNL     1      -3.581  11.134  17.628  0.00  0.00    +0.000 C 
ATOM     26  C   UNL     1      -2.865  10.190  16.994  0.00  0.00    +0.000 C 
ATOM     27  C   UNL     1      -1.462   9.799  17.385  0.00  0.00    +0.000 C 
ATOM     28  C   UNL     1      -0.993  10.365  18.742  0.00  0.00    +0.000 C 
ATOM     29  C   UNL     1      -1.515  11.808  18.927  0.00  0.00    +0.000 C 
ATOM     30  C   UNL     1      -3.037  11.897  18.800  0.00  0.00    +0.000 C 
ENDBRANCH  22  28
BRANCH  22  31
ATOM     31  O   UNL     1       0.784   9.950  20.341  0.00  0.00    +0.000 OA
ATOM     32  H   UNL     1       0.291  10.588  20.883  0.00  0.00    +0.000 HD
ENDBRANCH  22  31
ENDBRANCH  21  22
ENDBRANCH  20  21
ENDBRANCH  19  20
ENDBRANCH   1  19
TORSDOF 11
ENDMDL
MODEL 2
REMARK VINA RESULT:      -7.3      0.923      1.158
REMARK  Name = 
REMARK  15 active torsions:
REMARK  status: ('A' for Active; 'I' for Inactive)
REMARK    1  A    between atoms: C_1  and  C_2
REMARK    2  A    between atoms: C_5  and  C_6
REMARK    3  A    between atoms: C_6  and  C_7
REMARK    4  A    between atoms: C_6  and  O_8
REMARK    5  A    between atoms: C_6  and  C_9
REMARK    6  A    between atoms: C_9  and  C_10
REMARK    7  A    between atoms: C_10  and  C_11
REMARK    8  A    between atoms: C_11  and  C_12
REMARK    9  A    between atoms: C_12  and  C_13
REMARK   10  A    between atoms: C_12  and  C_14
REMARK   11  A    between atoms: C_12  and  N_15
REMARK   12  A    between atoms: N_15  and  C_16
REMARK   13  A    between atoms: C_16  and  N_18
REMARK   14  A    between atoms: N_18  and  N_19
REMARK   15  A    between atoms: C_20  and  C_21
REMARK                            x       y       z     vdW  Elec       q    Type
REMARK                         _______ _______ _______ _____ _____    ______ ____
ROOT
ATOM      1  C   UNL     1       2.251   5.232  19.134  0.00  0.00    +0.000 C 
ATOM      2  C   UNL     1       1.371   4.913  20.356  0.00  0.00    +0.000 C 
ATOM      3  C   UNL     1       1.895   4.288  17.967  0.00  0.00    +0.000 C 
ENDROOT
BRANCH   1   4
ATOM      4  N   UNL     1       3.704   5.128  19.451  0.00  0.00    +0.000 N 
ATOM      5  H   UNL     1       4.152   5.994  19.708  0.00  0.00    +0.000 HD
BRANCH   4   6
ATOM      6  C   UNL     1       4.520   4.012  19.562  0.00  0.00    +0.000 C 
ATOM      7  S   UNL     1       4.067   2.473  20.047  0.00  0.00    +0.000 S 
BRANCH   6   8
ATOM      8  N   UNL     1       5.831   4.317  19.189  0.00  0.00    +0.000 N 
ATOM      9  H   UNL     1       6.584   3.717  19.509  0.00  0.00    +0.000 HD
BRANCH   8  10
ATOM     10  N   UNL     1       6.183   5.627  19.022  0.00  0.00    +0.000 NA
ATOM     11  C   UNL     1       6.471   6.060  17.832  0.00  0.00    +0.000 C 
BRANCH  11  12
ATOM     12  C   UNL     1       6.275   5.397  16.529  0.00  0.00    +0.000 A 
ATOM     13  C   UNL     1       4.998   5.085  16.047  0.00  0.00    +0.000 A 
ATOM     14  C   UNL     1       4.855   4.477  14.801  0.00  0.00    +0.000 A 
ATOM     15  C   UNL     1       5.982   4.213  14.027  0.00  0.00    +0.000 A 
ATOM     16 CL   UNL     1       5.803   3.453  12.495  0.00  0.00    +0.000 Cl
ATOM     17  C   UNL     1       7.253   4.567  14.481  0.00  0.00    +0.000 A 
ATOM     18  C   UNL     1       7.402   5.165  15.735  0.00  0.00    +0.000 A 
ENDBRANCH  11  12
ENDBRANCH   8  10
ENDBRANCH   6   8
ENDBRANCH   4   6
ENDBRANCH   1   4
BRANCH   1  19
ATOM     19  C   UNL     1       1.943   6.686  18.621  0.00  0.00    +0.000 C 
BRANCH  19  20
ATOM     20  C   UNL     1       2.260   7.789  19.634  0.00  0.00    +0.000 C 
BRANCH  20  21
ATOM     21  C   UNL     1       1.036   8.566  20.146  0.00  0.00    +0.000 C 
BRANCH  21  22
ATOM     22  C   UNL     1       0.836   9.904  19.371  0.00  0.00    +0.000 C 
ATOM     23  C   UNL     1       1.815  10.000  18.185  0.00  0.00    +0.000 C 
BRANCH  22  28
ATOM     24  C   UNL     1      -4.307  11.529  16.915  0.00  0.00    +0.000 C 
ATOM     25  C   UNL     1      -3.010  11.083  17.518  0.00  0.00    +0.000 C 
ATOM     26  C   UNL     1      -2.250  10.142  16.934  0.00  0.00    +0.000 C 
ATOM     27  C   UNL     1      -0.939   9.655  17.498  0.00  0.00    +0.000 C 
ATOM     28  C   UNL     1      -0.653  10.113  18.944  0.00  0.00    +0.000 C 
ATOM     29  C   UNL     1      -1.133  11.568  19.147  0.00  0.00    +0.000 C 
ATOM     30  C   UNL     1      -2.614  11.745  18.805  0.00  0.00    +0.000 C 
ENDBRANCH  22  28
BRANCH  22  31
ATOM     31  O   UNL     1       1.177  10.945  20.302  0.00  0.00    +0.000 OA
ATOM     32  H   UNL     1       2.024  11.337  20.032  0.00  0.00    +0.000 HD
ENDBRANCH  22  31
ENDBRANCH  21  22
ENDBRANCH  20  21
ENDBRANCH  19  20
ENDBRANCH   1  19
TORSDOF 11
ENDMDL
MODEL 3
REMARK VINA RESULT:      -7.3      2.061      2.704
REMARK  Name = 
REMARK  15 active torsions:
REMARK  status: ('A' for Active; 'I' for Inactive)
REMARK    1  A    between atoms: C_1  and  C_2
REMARK    2  A    between atoms: C_5  and  C_6
REMARK    3  A    between atoms: C_6  and  C_7
REMARK    4  A    between atoms: C_6  and  O_8
REMARK    5  A    between atoms: C_6  and  C_9
REMARK    6  A    between atoms: C_9  and  C_10
REMARK    7  A    between atoms: C_10  and  C_11
REMARK    8  A    between atoms: C_11  and  C_12
REMARK    9  A    between atoms: C_12  and  C_13
REMARK   10  A    between atoms: C_12  and  C_14
REMARK   11  A    between atoms: C_12  and  N_15
REMARK   12  A    between atoms: N_15  and  C_16
REMARK   13  A    between atoms: C_16  and  N_18
REMARK   14  A    between atoms: N_18  and  N_19
REMARK   15  A    between atoms: C_20  and  C_21
REMARK                            x       y       z     vdW  Elec       q    Type
REMARK                         _______ _______ _______ _____ _____    ______ ____
ROOT
ATOM      1  C   UNL     1       2.459   6.080  19.069  0.00  0.00    +0.000 C 
ATOM      2  C   UNL     1       3.928   6.177  19.516  0.00  0.00    +0.000 C 
ATOM      3  C   UNL     1       1.527   6.157  20.297  0.00  0.00    +0.000 C 
ENDROOT
BRANCH   1   4
ATOM      4  N   UNL     1       2.190   4.832  18.301  0.00  0.00    +0.000 N 
ATOM      5  H   UNL     1       1.905   4.968  17.343  0.00  0.00    +0.000 HD
BRANCH   4   6
ATOM      6  C   UNL     1       2.378   3.503  18.654  0.00  0.00    +0.000 C 
ATOM      7  S   UNL     1       1.222   2.438  19.232  0.00  0.00    +0.000 S 
BRANCH   6   8
ATOM      8  N   UNL     1       3.706   3.119  18.450  0.00  0.00    +0.000 N 
ATOM      9  H   UNL     1       4.440   3.603  18.955  0.00  0.00    +0.000 HD
BRANCH   8  10
ATOM     10  N   UNL     1       4.076   2.652  17.220  0.00  0.00    +0.000 NA
ATOM     11  C   UNL     1       4.847   3.381  16.470  0.00  0.00    +0.000 C 
BRANCH  11  12
ATOM     12  C   UNL     1       5.600   4.599  16.819  0.00  0.00    +0.000 A 
ATOM     13  C   UNL     1       6.778   4.546  17.573  0.00  0.00    +0.000 A 
ATOM     14  C   UNL     1       7.471   5.720  17.864  0.00  0.00    +0.000 A 
ATOM     15  C   UNL     1       7.005   6.938  17.375  0.00  0.00    +0.000 A 
ATOM     16 CL   UNL     1       7.856   8.386  17.745  0.00  0.00    +0.000 Cl
ATOM     17  C   UNL     1       5.858   6.991  16.581  0.00  0.00    +0.000 A 
ATOM     18  C   UNL     1       5.154   5.818  16.298  0.00  0.00    +0.000 A 
ENDBRANCH  11  12
ENDBRANCH   8  10
ENDBRANCH   6   8
ENDBRANCH   4   6
ENDBRANCH   1   4
BRANCH   1  19
ATOM     19  C   UNL     1       2.091   7.319  18.173  0.00  0.00    +0.000 C 
BRANCH  19  20
ATOM     20  C   UNL     1       2.142   8.661  18.908  0.00  0.00    +0.000 C 
BRANCH  20  21
ATOM     21  C   UNL     1       1.395   9.809  18.209  0.00  0.00    +0.000 C 
BRANCH  21  22
ATOM     22  C   UNL     1       0.410  10.531  19.178  0.00  0.00    +0.000 C 
ATOM     23  C   UNL     1       1.137  11.628  19.980  0.00  0.00    +0.000 C 
BRANCH  22  28
ATOM     24  C   UNL     1      -4.986  11.619  16.980  0.00  0.00    +0.000 C 
ATOM     25  C   UNL     1      -3.624  11.377  17.557  0.00  0.00    +0.000 C 
ATOM     26  C   UNL     1      -3.271  11.868  18.756  0.00  0.00    +0.000 C 
ATOM     27  C   UNL     1      -1.916  11.657  19.383  0.00  0.00    +0.000 C 
ATOM     28  C   UNL     1      -0.854  11.066  18.431  0.00  0.00    +0.000 C 
ATOM     29  C   UNL     1      -1.498  10.004  17.510  0.00  0.00    +0.000 C 
ATOM     30  C   UNL     1      -2.684  10.559  16.720  0.00  0.00    +0.000 C 
ENDBRANCH  22  28
BRANCH  22  31
ATOM     31  O   UNL     1      -0.022   9.525  20.110  0.00  0.00    +0.000 OA
ATOM     32  H   UNL     1       0.731   8.949  20.317  0.00  0.00    +0.000 HD
ENDBRANCH  22  31
ENDBRANCH  21  22
ENDBRANCH  20  21
ENDBRANCH  19  20
ENDBRANCH   1  19
TORSDOF 11
ENDMDL
MODEL 4
REMARK VINA RESULT:      -7.2      2.125      2.758
REMARK  Name = 
REMARK  15 active torsions:
REMARK  status: ('A' for Active; 'I' for Inactive)
REMARK    1  A    between atoms: C_1  and  C_2
REMARK    2  A    between atoms: C_5  and  C_6
REMARK    3  A    between atoms: C_6  and  C_7
REMARK    4  A    between atoms: C_6  and  O_8
REMARK    5  A    between atoms: C_6  and  C_9
REMARK    6  A    between atoms: C_9  and  C_10
REMARK    7  A    between atoms: C_10  and  C_11
REMARK    8  A    between atoms: C_11  and  C_12
REMARK    9  A    between atoms: C_12  and  C_13
REMARK   10  A    between atoms: C_12  and  C_14
REMARK   11  A    between atoms: C_12  and  N_15
REMARK   12  A    between atoms: N_15  and  C_16
REMARK   13  A    between atoms: C_16  and  N_18
REMARK   14  A    between atoms: N_18  and  N_19
REMARK   15  A    between atoms: C_20  and  C_21
REMARK                            x       y       z     vdW  Elec       q    Type
REMARK                         _______ _______ _______ _____ _____    ______ ____
ROOT
ATOM      1  C   UNL     1       2.502   5.862  19.272  0.00  0.00    +0.000 C 
ATOM      2  C   UNL     1       4.012   6.061  19.496  0.00  0.00    +0.000 C 
ATOM      3  C   UNL     1       1.723   6.257  20.544  0.00  0.00    +0.000 C 
ENDROOT
BRANCH   1   4
ATOM      4  N   UNL     1       2.176   4.459  18.888  0.00  0.00    +0.000 N 
ATOM      5  H   UNL     1       1.234   4.164  19.096  0.00  0.00    +0.000 HD
BRANCH   4   6
ATOM      6  C   UNL     1       2.921   3.525  18.184  0.00  0.00    +0.000 C 
ATOM      7  S   UNL     1       2.841   1.858  18.320  0.00  0.00    +0.000 S 
BRANCH   6   8
ATOM      8  N   UNL     1       3.785   4.155  17.284  0.00  0.00    +0.000 N 
ATOM      9  H   UNL     1       3.469   4.991  16.804  0.00  0.00    +0.000 HD
BRANCH   8  10
ATOM     10  N   UNL     1       4.667   3.392  16.571  0.00  0.00    +0.000 NA
ATOM     11  C   UNL     1       5.853   3.859  16.322  0.00  0.00    +0.000 C 
BRANCH  11  12
ATOM     12  C   UNL     1       6.519   5.049  16.882  0.00  0.00    +0.000 A 
ATOM     13  C   UNL     1       6.275   6.333  16.381  0.00  0.00    +0.000 A 
ATOM     14  C   UNL     1       6.910   7.435  16.952  0.00  0.00    +0.000 A 
ATOM     15  C   UNL     1       7.761   7.256  18.040  0.00  0.00    +0.000 A 
ATOM     16 CL   UNL     1       8.552   8.615  18.735  0.00  0.00    +0.000 Cl
ATOM     17  C   UNL     1       7.969   5.984  18.575  0.00  0.00    +0.000 A 
ATOM     18  C   UNL     1       7.344   4.876  17.998  0.00  0.00    +0.000 A 
ENDBRANCH  11  12
ENDBRANCH   8  10
ENDBRANCH   6   8
ENDBRANCH   4   6
ENDBRANCH   1   4
BRANCH   1  19
ATOM     19  C   UNL     1       1.998   6.831  18.141  0.00  0.00    +0.000 C 
BRANCH  19  20
ATOM     20  C   UNL     1       2.357   8.302  18.370  0.00  0.00    +0.000 C 
BRANCH  20  21
ATOM     21  C   UNL     1       1.372   9.310  17.756  0.00  0.00    +0.000 C 
BRANCH  21  22
ATOM     22  C   UNL     1       0.747  10.238  18.841  0.00  0.00    +0.000 C 
ATOM     23  C   UNL     1       1.427  11.621  18.836  0.00  0.00    +0.000 C 
BRANCH  22  28
ATOM     24  C   UNL     1      -4.877  11.436  17.404  0.00  0.00    +0.000 C 
ATOM     25  C   UNL     1      -3.459  11.098  17.750  0.00  0.00    +0.000 C 
ATOM     26  C   UNL     1      -2.754  10.207  17.034  0.00  0.00    +0.000 C 
ATOM     27  C   UNL     1      -1.327   9.828  17.339  0.00  0.00    +0.000 C 
ATOM     28  C   UNL     1      -0.808  10.329  18.704  0.00  0.00    +0.000 C 
ATOM     29  C   UNL     1      -1.351  11.747  18.993  0.00  0.00    +0.000 C 
ATOM     30  C   UNL     1      -2.878  11.808  18.938  0.00  0.00    +0.000 C 
ENDBRANCH  22  28
BRANCH  22  31
ATOM     31  O   UNL     1       1.041   9.613  20.102  0.00  0.00    +0.000 OA
ATOM     32  H   UNL     1       0.266   9.101  20.383  0.00  0.00    +0.000 HD
ENDBRANCH  22  31
ENDBRANCH  21  22
ENDBRANCH  20  21
ENDBRANCH  19  20
ENDBRANCH   1  19
TORSDOF 11
ENDMDL
MODEL 5
REMARK VINA RESULT:      -7.2      5.132     10.711
REMARK  Name = 
REMARK  15 active torsions:
REMARK  status: ('A' for Active; 'I' for Inactive)
REMARK    1  A    between atoms: C_1  and  C_2
REMARK    2  A    between atoms: C_5  and  C_6
REMARK    3  A    between atoms: C_6  and  C_7
REMARK    4  A    between atoms: C_6  and  O_8
REMARK    5  A    between atoms: C_6  and  C_9
REMARK    6  A    between atoms: C_9  and  C_10
REMARK    7  A    between atoms: C_10  and  C_11
REMARK    8  A    between atoms: C_11  and  C_12
REMARK    9  A    between atoms: C_12  and  C_13
REMARK   10  A    between atoms: C_12  and  C_14
REMARK   11  A    between atoms: C_12  and  N_15
REMARK   12  A    between atoms: N_15  and  C_16
REMARK   13  A    between atoms: C_16  and  N_18
REMARK   14  A    between atoms: N_18  and  N_19
REMARK   15  A    between atoms: C_20  and  C_21
REMARK                            x       y       z     vdW  Elec       q    Type
REMARK                         _______ _______ _______ _____ _____    ______ ____
ROOT
ATOM      1  C   UNL     1       1.041   9.804  18.472  0.00  0.00    +0.000 C 
ATOM      2  C   UNL     1       0.820   9.695  19.991  0.00  0.00    +0.000 C 
ATOM      3  C   UNL     1       2.117  10.868  18.170  0.00  0.00    +0.000 C 
ENDROOT
BRANCH   1   4
ATOM      4  N   UNL     1      -0.220  10.132  17.747  0.00  0.00    +0.000 N 
ATOM      5  H   UNL     1      -0.376   9.612  16.897  0.00  0.00    +0.000 HD
BRANCH   4   6
ATOM      6  C   UNL     1      -1.274  10.957  18.109  0.00  0.00    +0.000 C 
ATOM      7  S   UNL     1      -1.175  12.482  18.795  0.00  0.00    +0.000 S 
BRANCH   6   8
ATOM      8  N   UNL     1      -2.500  10.357  17.809  0.00  0.00    +0.000 N 
ATOM      9  H   UNL     1      -2.618   9.367  17.992  0.00  0.00    +0.000 HD
BRANCH   8  10
ATOM     10  N   UNL     1      -3.225  10.830  16.752  0.00  0.00    +0.000 NA
ATOM     11  C   UNL     1      -4.466  11.166  16.934  0.00  0.00    +0.000 C 
BRANCH  11  12
ATOM     12  C   UNL     1      -5.210  11.329  18.196  0.00  0.00    +0.000 A 
ATOM     13  C   UNL     1      -4.965  12.402  19.061  0.00  0.00    +0.000 A 
ATOM     14  C   UNL     1      -5.705  12.531  20.236  0.00  0.00    +0.000 A 
ATOM     15  C   UNL     1      -6.706  11.608  20.527  0.00  0.00    +0.000 A 
ATOM     16 CL   UNL     1      -7.609  11.764  21.983  0.00  0.00    +0.000 Cl
ATOM     17  C   UNL     1      -6.988  10.565  19.644  0.00  0.00    +0.000 A 
ATOM     18  C   UNL     1      -6.240  10.425  18.472  0.00  0.00    +0.000 A 
ENDBRANCH  11  12
ENDBRANCH   8  10
ENDBRANCH   6   8
ENDBRANCH   4   6
ENDBRANCH   1   4
BRANCH   1  19
ATOM     19  C   UNL     1       1.610   8.448  17.917  0.00  0.00    +0.000 C 
BRANCH  19  20
ATOM     20  C   UNL     1       1.838   7.379  18.988  0.00  0.00    +0.000 C 
BRANCH  20  21
ATOM     21  C   UNL     1       3.253   6.776  19.008  0.00  0.00    +0.000 C 
BRANCH  21  22
ATOM     22  C   UNL     1       3.253   5.289  18.539  0.00  0.00    +0.000 C 
ATOM     23  C   UNL     1       1.828   4.703  18.579  0.00  0.00    +0.000 C 
BRANCH  22  28
ATOM     24  C   UNL     1       6.935   4.789  13.922  0.00  0.00    +0.000 C 
ATOM     25  C   UNL     1       5.996   4.877  15.086  0.00  0.00    +0.000 C 
ATOM     26  C   UNL     1       5.739   3.813  15.864  0.00  0.00    +0.000 C 
ATOM     27  C   UNL     1       4.803   3.844  17.045  0.00  0.00    +0.000 C 
ATOM     28  C   UNL     1       3.938   5.119  17.145  0.00  0.00    +0.000 C 
ATOM     29  C   UNL     1       4.765   6.358  16.731  0.00  0.00    +0.000 C 
ATOM     30  C   UNL     1       5.364   6.216  15.330  0.00  0.00    +0.000 C 
ENDBRANCH  22  28
BRANCH  22  31
ATOM     31  O   UNL     1       4.043   4.578  19.507  0.00  0.00    +0.000 OA
ATOM     32  H   UNL     1       4.980   4.664  19.266  0.00  0.00    +0.000 HD
ENDBRANCH  22  31
ENDBRANCH  21  22
ENDBRANCH  20  21
ENDBRANCH  19  20
ENDBRANCH   1  19
TORSDOF 11
ENDMDL
MODEL 6
REMARK VINA RESULT:      -7.2      1.582      2.279
REMARK  Name = 
REMARK  15 active torsions:
REMARK  status: ('A' for Active; 'I' for Inactive)
REMARK    1  A    between atoms: C_1  and  C_2
REMARK    2  A    between atoms: C_5  and  C_6
REMARK    3  A    between atoms: C_6  and  C_7
REMARK    4  A    between atoms: C_6  and  O_8
REMARK    5  A    between atoms: C_6  and  C_9
REMARK    6  A    between atoms: C_9  and  C_10
REMARK    7  A    between atoms: C_10  and  C_11
REMARK    8  A    between atoms: C_11  and  C_12
REMARK    9  A    between atoms: C_12  and  C_13
REMARK   10  A    between atoms: C_12  and  C_14
REMARK   11  A    between atoms: C_12  and  N_15
REMARK   12  A    between atoms: N_15  and  C_16
REMARK   13  A    between atoms: C_16  and  N_18
REMARK   14  A    between atoms: N_18  and  N_19
REMARK   15  A    between atoms: C_20  and  C_21
REMARK                            x       y       z     vdW  Elec       q    Type
REMARK                         _______ _______ _______ _____ _____    ______ ____
ROOT
ATOM      1  C   UNL     1       3.050   5.857  18.530  0.00  0.00    +0.000 C 
ATOM      2  C   UNL     1       2.144   4.850  17.800  0.00  0.00    +0.000 C 
ATOM      3  C   UNL     1       3.856   6.682  17.505  0.00  0.00    +0.000 C 
ENDROOT
BRANCH   1   4
ATOM      4  N   UNL     1       3.975   5.185  19.486  0.00  0.00    +0.000 N 
ATOM      5  H   UNL     1       4.298   5.759  20.249  0.00  0.00    +0.000 HD
BRANCH   4   6
ATOM      6  C   UNL     1       4.378   3.860  19.563  0.00  0.00    +0.000 C 
ATOM      7  S   UNL     1       3.609   2.616  20.380  0.00  0.00    +0.000 S 
BRANCH   6   8
ATOM      8  N   UNL     1       5.550   3.653  18.831  0.00  0.00    +0.000 N 
ATOM      9  H   UNL     1       5.903   2.708  18.728  0.00  0.00    +0.000 HD
BRANCH   8  10
ATOM     10  N   UNL     1       6.514   4.622  18.842  0.00  0.00    +0.000 NA
ATOM     11  C   UNL     1       7.107   4.940  17.731  0.00  0.00    +0.000 C 
BRANCH  11  12
ATOM     12  C   UNL     1       6.757   4.562  16.350  0.00  0.00    +0.000 A 
ATOM     13  C   UNL     1       5.655   3.747  16.067  0.00  0.00    +0.000 A 
ATOM     14  C   UNL     1       5.346   3.430  14.744  0.00  0.00    +0.000 A 
ATOM     15  C   UNL     1       6.118   3.953  13.710  0.00  0.00    +0.000 A 
ATOM     16 CL   UNL     1       5.741   3.551  12.081  0.00  0.00    +0.000 Cl
ATOM     17  C   UNL     1       7.187   4.806  13.984  0.00  0.00    +0.000 A 
ATOM     18  C   UNL     1       7.507   5.116  15.308  0.00  0.00    +0.000 A 
ENDBRANCH  11  12
ENDBRANCH   8  10
ENDBRANCH   6   8
ENDBRANCH   4   6
ENDBRANCH   1   4
BRANCH   1  19
ATOM     19  C   UNL     1       2.168   6.894  19.317  0.00  0.00    +0.000 C 
BRANCH  19  20
ATOM     20  C   UNL     1       1.993   8.237  18.604  0.00  0.00    +0.000 C 
BRANCH  20  21
ATOM     21  C   UNL     1       1.830   9.448  19.538  0.00  0.00    +0.000 C 
BRANCH  21  22
ATOM     22  C   UNL     1       0.794  10.470  18.982  0.00  0.00    +0.000 C 
ATOM     23  C   UNL     1      -0.181   9.784  18.005  0.00  0.00    +0.000 C 
BRANCH  22  28
ATOM     24  C   UNL     1      -2.763  12.359  23.331  0.00  0.00    +0.000 C 
ATOM     25  C   UNL     1      -1.835  11.875  22.258  0.00  0.00    +0.000 C 
ATOM     26  C   UNL     1      -0.828  11.028  22.528  0.00  0.00    +0.000 C 
ATOM     27  C   UNL     1       0.135  10.513  21.489  0.00  0.00    +0.000 C 
ATOM     28  C   UNL     1       0.060  11.238  20.129  0.00  0.00    +0.000 C 
ATOM     29  C   UNL     1      -1.410  11.568  19.781  0.00  0.00    +0.000 C 
ATOM     30  C   UNL     1      -2.096  12.391  20.873  0.00  0.00    +0.000 C 
ENDBRANCH  22  28
BRANCH  22  31
ATOM     31  O   UNL     1       1.559  11.428  18.231  0.00  0.00    +0.000 OA
ATOM     32  H   UNL     1       2.276  11.763  18.794  0.00  0.00    +0.000 HD
ENDBRANCH  22  31
ENDBRANCH  21  22
ENDBRANCH  20  21
ENDBRANCH  19  20
ENDBRANCH   1  19
TORSDOF 11
ENDMDL
MODEL 7
REMARK VINA RESULT:      -7.2      4.202      9.107
REMARK  Name = 
REMARK  15 active torsions:
REMARK  status: ('A' for Active; 'I' for Inactive)
REMARK    1  A    between atoms: C_1  and  C_2
REMARK    2  A    between atoms: C_5  and  C_6
REMARK    3  A    between atoms: C_6  and  C_7
REMARK    4  A    between atoms: C_6  and  O_8
REMARK    5  A    between atoms: C_6  and  C_9
REMARK    6  A    between atoms: C_9  and  C_10
REMARK    7  A    between atoms: C_10  and  C_11
REMARK    8  A    between atoms: C_11  and  C_12
REMARK    9  A    between atoms: C_12  and  C_13
REMARK   10  A    between atoms: C_12  and  C_14
REMARK   11  A    between atoms: C_12  and  N_15
REMARK   12  A    between atoms: N_15  and  C_16
REMARK   13  A    between atoms: C_16  and  N_18
REMARK   14  A    between atoms: N_18  and  N_19
REMARK   15  A    between atoms: C_20  and  C_21
REMARK                            x       y       z     vdW  Elec       q    Type
REMARK                         _______ _______ _______ _____ _____    ______ ____
ROOT
ATOM      1  C   UNL     1       2.334   4.636  19.663  0.00  0.00    +0.000 C 
ATOM      2  C   UNL     1       0.966   4.330  20.297  0.00  0.00    +0.000 C 
ATOM      3  C   UNL     1       3.369   3.581  20.107  0.00  0.00    +0.000 C 
ENDROOT
BRANCH   1   4
ATOM      4  N   UNL     1       2.817   6.003  20.010  0.00  0.00    +0.000 N 
ATOM      5  H   UNL     1       3.710   6.039  20.478  0.00  0.00    +0.000 HD
BRANCH   4   6
ATOM      6  C   UNL     1       2.293   7.247  19.692  0.00  0.00    +0.000 C 
ATOM      7  S   UNL     1       2.246   7.967  18.180  0.00  0.00    +0.000 S 
BRANCH   6   8
ATOM      8  N   UNL     1       1.761   7.867  20.826  0.00  0.00    +0.000 N 
ATOM      9  H   UNL     1       2.391   8.169  21.560  0.00  0.00    +0.000 HD
BRANCH   8  10
ATOM     10  N   UNL     1       0.520   7.493  21.261  0.00  0.00    +0.000 NA
ATOM     11  C   UNL     1      -0.317   8.407  21.649  0.00  0.00    +0.000 C 
BRANCH  11  12
ATOM     12  C   UNL     1      -0.231   9.871  21.499  0.00  0.00    +0.000 A 
ATOM     13  C   UNL     1      -0.641  10.740  22.516  0.00  0.00    +0.000 A 
ATOM     14  C   UNL     1      -0.524  12.119  22.343  0.00  0.00    +0.000 A 
ATOM     15  C   UNL     1       0.032  12.623  21.170  0.00  0.00    +0.000 A 
ATOM     16 CL   UNL     1       0.166  14.324  20.954  0.00  0.00    +0.000 Cl
ATOM     17  C   UNL     1       0.489  11.760  20.173  0.00  0.00    +0.000 A 
ATOM     18  C   UNL     1       0.362  10.378  20.339  0.00  0.00    +0.000 A 
ENDBRANCH  11  12
ENDBRANCH   8  10
ENDBRANCH   6   8
ENDBRANCH   4   6
ENDBRANCH   1   4
BRANCH   1  19
ATOM     19  C   UNL     1       2.238   4.511  18.099  0.00  0.00    +0.000 C 
BRANCH  19  20
ATOM     20  C   UNL     1       3.526   4.029  17.427  0.00  0.00    +0.000 C 
BRANCH  20  21
ATOM     21  C   UNL     1       4.478   5.150  16.978  0.00  0.00    +0.000 C 
BRANCH  21  22
ATOM     22  C   UNL     1       5.960   4.668  16.943  0.00  0.00    +0.000 C 
ATOM     23  C   UNL     1       6.256   3.906  15.637  0.00  0.00    +0.000 C 
BRANCH  22  28
ATOM     24  C   UNL     1       8.952   9.407  18.872  0.00  0.00    +0.000 C 
ATOM     25  C   UNL     1       8.224   8.186  18.398  0.00  0.00    +0.000 C 
ATOM     26  C   UNL     1       8.394   6.992  18.991  0.00  0.00    +0.000 C 
ATOM     27  C   UNL     1       7.690   5.732  18.554  0.00  0.00    +0.000 C 
ATOM     28  C   UNL     1       6.961   5.842  17.198  0.00  0.00    +0.000 C 
ATOM     29  C   UNL     1       6.298   7.232  17.061  0.00  0.00    +0.000 C 
ATOM     30  C   UNL     1       7.301   8.374  17.230  0.00  0.00    +0.000 C 
ENDBRANCH  22  28
BRANCH  22  31
ATOM     31  O   UNL     1       6.090   3.735  18.029  0.00  0.00    +0.000 OA
ATOM     32  H   UNL     1       5.653   4.108  18.812  0.00  0.00    +0.000 HD
ENDBRANCH  22  31
ENDBRANCH  21  22
ENDBRANCH  20  21
ENDBRANCH  19  20
ENDBRANCH   1  19
TORSDOF 11
ENDMDL
MODEL 8
REMARK VINA RESULT:      -7.2      3.840      8.854
REMARK  Name = 
REMARK  15 active torsions:
REMARK  status: ('A' for Active; 'I' for Inactive)
REMARK    1  A    between atoms: C_1  and  C_2
REMARK    2  A    between atoms: C_5  and  C_6
REMARK    3  A    between atoms: C_6  and  C_7
REMARK    4  A    between atoms: C_6  and  O_8
REMARK    5  A    between atoms: C_6  and  C_9
REMARK    6  A    between atoms: C_9  and  C_10
REMARK    7  A    between atoms: C_10  and  C_11
REMARK    8  A    between atoms: C_11  and  C_12
REMARK    9  A    between atoms: C_12  and  C_13
REMARK   10  A    between atoms: C_12  and  C_14
REMARK   11  A    between atoms: C_12  and  N_15
REMARK   12  A    between atoms: N_15  and  C_16
REMARK   13  A    between atoms: C_16  and  N_18
REMARK   14  A    between atoms: N_18  and  N_19
REMARK   15  A    between atoms: C_20  and  C_21
REMARK                            x       y       z     vdW  Elec       q    Type
REMARK                         _______ _______ _______ _____ _____    ______ ____
ROOT
ATOM      1  C   UNL     1       2.724   4.646  19.697  0.00  0.00    +0.000 C 
ATOM      2  C   UNL     1       1.501   4.534  18.770  0.00  0.00    +0.000 C 
ATOM      3  C   UNL     1       2.410   4.005  21.065  0.00  0.00    +0.000 C 
ENDROOT
BRANCH   1   4
ATOM      4  N   UNL     1       3.155   6.061  19.883  0.00  0.00    +0.000 N 
ATOM      5  H   UNL     1       4.121   6.187  20.143  0.00  0.00    +0.000 HD
BRANCH   4   6
ATOM      6  C   UNL     1       2.473   7.245  19.644  0.00  0.00    +0.000 C 
ATOM      7  S   UNL     1       2.183   7.963  18.159  0.00  0.00    +0.000 S 
BRANCH   6   8
ATOM      8  N   UNL     1       2.011   7.802  20.840  0.00  0.00    +0.000 N 
ATOM      9  H   UNL     1       2.671   7.965  21.592  0.00  0.00    +0.000 HD
BRANCH   8  10
ATOM     10  N   UNL     1       0.739   7.515  21.253  0.00  0.00    +0.000 NA
ATOM     11  C   UNL     1      -0.156   8.456  21.249  0.00  0.00    +0.000 C 
BRANCH  11  12
ATOM     12  C   UNL     1      -0.088   9.801  20.649  0.00  0.00    +0.000 A 
ATOM     13  C   UNL     1      -0.616  10.069  19.381  0.00  0.00    +0.000 A 
ATOM     14  C   UNL     1      -0.549  11.360  18.858  0.00  0.00    +0.000 A 
ATOM     15  C   UNL     1       0.014  12.384  19.615  0.00  0.00    +0.000 A 
ATOM     16 CL   UNL     1       0.105  13.973  18.962  0.00  0.00    +0.000 Cl
ATOM     17  C   UNL     1       0.497  12.133  20.900  0.00  0.00    +0.000 A 
ATOM     18  C   UNL     1       0.443  10.838  21.422  0.00  0.00    +0.000 A 
ENDBRANCH  11  12
ENDBRANCH   8  10
ENDBRANCH   6   8
ENDBRANCH   4   6
ENDBRANCH   1   4
BRANCH   1  19
ATOM     19  C   UNL     1       3.923   3.822  19.101  0.00  0.00    +0.000 C 
BRANCH  19  20
ATOM     20  C   UNL     1       3.763   3.463  17.622  0.00  0.00    +0.000 C 
BRANCH  20  21
ATOM     21  C   UNL     1       4.100   4.600  16.642  0.00  0.00    +0.000 C 
BRANCH  21  22
ATOM     22  C   UNL     1       5.498   4.398  15.984  0.00  0.00    +0.000 C 
ATOM     23  C   UNL     1       5.380   4.359  14.448  0.00  0.00    +0.000 C 
BRANCH  22  28
ATOM     24  C   UNL     1       8.652   8.484  18.897  0.00  0.00    +0.000 C 
ATOM     25  C   UNL     1       7.883   7.424  18.169  0.00  0.00    +0.000 C 
ATOM     26  C   UNL     1       8.029   6.122  18.462  0.00  0.00    +0.000 C 
ATOM     27  C   UNL     1       7.283   5.016  17.760  0.00  0.00    +0.000 C 
ATOM     28  C   UNL     1       6.535   5.456  16.483  0.00  0.00    +0.000 C 
ATOM     29  C   UNL     1       5.910   6.855  16.688  0.00  0.00    +0.000 C 
ATOM     30  C   UNL     1       6.947   7.902  17.097  0.00  0.00    +0.000 C 
ENDBRANCH  22  28
BRANCH  22  31
ATOM     31  O   UNL     1       5.947   3.103  16.418  0.00  0.00    +0.000 OA
ATOM     32  H   UNL     1       6.440   3.208  17.248  0.00  0.00    +0.000 HD
ENDBRANCH  22  31
ENDBRANCH  21  22
ENDBRANCH  20  21
ENDBRANCH  19  20
ENDBRANCH   1  19
TORSDOF 11
ENDMDL
MODEL 9
REMARK VINA RESULT:      -7.2      2.176      2.788
REMARK  Name = 
REMARK  15 active torsions:
REMARK  status: ('A' for Active; 'I' for Inactive)
REMARK    1  A    between atoms: C_1  and  C_2
REMARK    2  A    between atoms: C_5  and  C_6
REMARK    3  A    between atoms: C_6  and  C_7
REMARK    4  A    between atoms: C_6  and  O_8
REMARK    5  A    between atoms: C_6  and  C_9
REMARK    6  A    between atoms: C_9  and  C_10
REMARK    7  A    between atoms: C_10  and  C_11
REMARK    8  A    between atoms: C_11  and  C_12
REMARK    9  A    between atoms: C_12  and  C_13
REMARK   10  A    between atoms: C_12  and  C_14
REMARK   11  A    between atoms: C_12  and  N_15
REMARK   12  A    between atoms: N_15  and  C_16
REMARK   13  A    between atoms: C_16  and  N_18
REMARK   14  A    between atoms: N_18  and  N_19
REMARK   15  A    between atoms: C_20  and  C_21
REMARK                            x       y       z     vdW  Elec       q    Type
REMARK                         _______ _______ _______ _____ _____    ______ ____
ROOT
ATOM      1  C   UNL     1       2.649   5.971  19.080  0.00  0.00    +0.000 C 
ATOM      2  C   UNL     1       4.106   5.845  19.558  0.00  0.00    +0.000 C 
ATOM      3  C   UNL     1       1.704   6.091  20.294  0.00  0.00    +0.000 C 
ENDROOT
BRANCH   1   4
ATOM      4  N   UNL     1       2.240   4.820  18.226  0.00  0.00    +0.000 N 
ATOM      5  H   UNL     1       1.287   4.845  17.898  0.00  0.00    +0.000 HD
BRANCH   4   6
ATOM      6  C   UNL     1       2.991   3.774  17.711  0.00  0.00    +0.000 C 
ATOM      7  S   UNL     1       2.838   2.146  18.073  0.00  0.00    +0.000 S 
BRANCH   6   8
ATOM      8  N   UNL     1       3.933   4.244  16.792  0.00  0.00    +0.000 N 
ATOM      9  H   UNL     1       3.647   4.935  16.106  0.00  0.00    +0.000 HD
BRANCH   8  10
ATOM     10  N   UNL     1       4.920   3.399  16.367  0.00  0.00    +0.000 NA
ATOM     11  C   UNL     1       6.152   3.809  16.376  0.00  0.00    +0.000 C 
BRANCH  11  12
ATOM     12  C   UNL     1       6.725   5.021  16.990  0.00  0.00    +0.000 A 
ATOM     13  C   UNL     1       7.378   4.980  18.227  0.00  0.00    +0.000 A 
ATOM     14  C   UNL     1       7.924   6.145  18.765  0.00  0.00    +0.000 A 
ATOM     15  C   UNL     1       7.845   7.338  18.051  0.00  0.00    +0.000 A 
ATOM     16 CL   UNL     1       8.509   8.776  18.721  0.00  0.00    +0.000 Cl
ATOM     17  C   UNL     1       7.238   7.374  16.795  0.00  0.00    +0.000 A 
ATOM     18  C   UNL     1       6.679   6.212  16.259  0.00  0.00    +0.000 A 
ENDBRANCH  11  12
ENDBRANCH   8  10
ENDBRANCH   6   8
ENDBRANCH   4   6
ENDBRANCH   1   4
BRANCH   1  19
ATOM     19  C   UNL     1       2.469   7.303  18.263  0.00  0.00    +0.000 C 
BRANCH  19  20
ATOM     20  C   UNL     1       1.691   8.393  19.004  0.00  0.00    +0.000 C 
BRANCH  20  21
ATOM     21  C   UNL     1       1.611   9.742  18.270  0.00  0.00    +0.000 C 
BRANCH  21  22
ATOM     22  C   UNL     1       0.857  10.814  19.114  0.00  0.00    +0.000 C 
ATOM     23  C   UNL     1       1.392  12.226  18.808  0.00  0.00    +0.000 C 
BRANCH  22  28
ATOM     24  C   UNL     1      -4.839  11.269  17.541  0.00  0.00    +0.000 C 
ATOM     25  C   UNL     1      -3.398  11.118  17.922  0.00  0.00    +0.000 C 
ATOM     26  C   UNL     1      -2.569  10.315  17.234  0.00  0.00    +0.000 C 
ATOM     27  C   UNL     1      -1.113  10.125  17.575  0.00  0.00    +0.000 C 
ATOM     28  C   UNL     1      -0.693  10.704  18.943  0.00  0.00    +0.000 C 
ATOM     29  C   UNL     1      -1.418  12.046  19.198  0.00  0.00    +0.000 C 
ATOM     30  C   UNL     1      -2.939  11.911  19.111  0.00  0.00    +0.000 C 
ENDBRANCH  22  28
BRANCH  22  31
ATOM     31  O   UNL     1       1.170  10.517  20.485  0.00  0.00    +0.000 OA
ATOM     32  H   UNL     1       0.759  11.192  21.050  0.00  0.00    +0.000 HD
ENDBRANCH  22  31
ENDBRANCH  21  22
ENDBRANCH  20  21
ENDBRANCH  19  20
ENDBRANCH   1  19
TORSDOF 11
ENDMDL
