MODEL 1
REMARK VINA RESULT:      -7.6      0.000      0.000
REMARK  Name = 
REMARK  8 active torsions:
REMARK  status: ('A' for Active; 'I' for Inactive)
REMARK    1  A    between atoms: N_2  and  C_4
REMARK    2  A    between atoms: C_10  and  O_11
REMARK    3  A    between atoms: N_13  and  C_14
REMARK    4  A    between atoms: C_14  and  C_15
REMARK    5  A    between atoms: C_15  and  C_16
REMARK    6  A    between atoms: C_16  and  C_17
REMARK    7  A    between atoms: C_17  and  O_18
REMARK    8  A    between atoms: O_18  and  C_19
REMARK                            x       y       z     vdW  Elec       q    Type
REMARK                         _______ _______ _______ _____ _____    ______ ____
ROOT
ATOM      1  C   UNL     1       7.116   4.888  13.987  0.00  0.00    +0.000 A 
ATOM      2  C   UNL     1       6.043   4.068  13.627  0.00  0.00    +0.000 A 
ATOM      3  C   UNL     1       5.186   3.599  14.617  0.00  0.00    +0.000 A 
ATOM      4  C   UNL     1       5.380   3.961  15.961  0.00  0.00    +0.000 A 
ATOM      5  C   UNL     1       6.447   4.802  16.327  0.00  0.00    +0.000 A 
ATOM      6  C   UNL     1       7.328   5.250  15.327  0.00  0.00    +0.000 A 
ATOM      7  C   UNL     1       6.614   5.285  17.755  0.00  0.00    +0.000 C 
ATOM      8  C   UNL     1       5.415   6.141  18.254  0.00  0.00    +0.000 C 
ATOM      9  N   UNL     1       4.180   5.406  18.652  0.00  0.00    +0.000 NA
ATOM     10  C   UNL     1       3.568   4.669  17.524  0.00  0.00    +0.000 C 
ATOM     11  C   UNL     1       4.381   3.493  16.985  0.00  0.00    +0.000 C 
ENDROOT
BRANCH   1  13
ATOM     12  O   UNL     1       8.998   6.060  13.301  0.00  0.00    +0.000 OA
ATOM     13  N   UNL     1       8.005   5.407  12.942  0.00  0.00    +0.000 N 
ATOM     14  O   UNL     1       7.721   5.154  11.763  0.00  0.00    +0.000 OA
ENDBRANCH   1  13
BRANCH   7  15
ATOM     15  O   UNL     1       6.865   4.184  18.628  0.00  0.00    +0.000 OA
ATOM     16  H   UNL     1       6.631   4.496  19.523  0.00  0.00    +0.000 HD
ENDBRANCH   7  15
BRANCH   9  17
ATOM     17  C   UNL     1       3.199   6.389  19.176  0.00  0.00    +0.000 C 
BRANCH  17  18
ATOM     18  C   UNL     1       2.242   6.975  18.117  0.00  0.00    +0.000 C 
BRANCH  18  19
ATOM     19  C   UNL     1       2.429   8.475  17.862  0.00  0.00    +0.000 C 
BRANCH  19  20
ATOM     20  C   UNL     1       1.478   9.280  18.734  0.00  0.00    +0.000 C 
BRANCH  20  21
ATOM     21  O   UNL     1       1.308   8.666  20.008  0.00  0.00    +0.000 OA
BRANCH  21  22
ATOM     22  C   UNL     1       0.574   9.412  20.900  0.00  0.00    +0.000 A 
ATOM     23  C   UNL     1      -0.087  10.610  20.605  0.00  0.00    +0.000 A 
ATOM     24  C   UNL     1      -0.805  11.287  21.593  0.00  0.00    +0.000 A 
ATOM     25  C   UNL     1      -0.868  10.770  22.882  0.00  0.00    +0.000 A 
ATOM     26  C   UNL     1      -0.213   9.578  23.185  0.00  0.00    +0.000 A 
ATOM     27  C   UNL     1       0.506   8.900  22.195  0.00  0.00    +0.000 A 
ENDBRANCH  21  22
ENDBRANCH  20  21
ENDBRANCH  19  20
ENDBRANCH  18  19
ENDBRANCH  17  18
ENDBRANCH   9  17
TORSDOF 8
ENDMDL
MODEL 2
REMARK VINA RESULT:      -7.5      5.571      7.981
REMARK  Name = 
REMARK  8 active torsions:
REMARK  status: ('A' for Active; 'I' for Inactive)
REMARK    1  A    between atoms: N_2  and  C_4
REMARK    2  A    between atoms: C_10  and  O_11
REMARK    3  A    between atoms: N_13  and  C_14
REMARK    4  A    between atoms: C_14  and  C_15
REMARK    5  A    between atoms: C_15  and  C_16
REMARK    6  A    between atoms: C_16  and  C_17
REMARK    7  A    between atoms: C_17  and  O_18
REMARK    8  A    between atoms: O_18  and  C_19
REMARK                            x       y       z     vdW  Elec       q    Type
REMARK                         _______ _______ _______ _____ _____    ______ ____
ROOT
ATOM      1  C   UNL     1       3.021   3.426  18.304  0.00  0.00    +0.000 A 
ATOM      2  C   UNL     1       3.797   3.192  19.442  0.00  0.00    +0.000 A 
ATOM      3  C   UNL     1       5.125   3.605  19.454  0.00  0.00    +0.000 A 
ATOM      4  C   UNL     1       5.677   4.270  18.346  0.00  0.00    +0.000 A 
ATOM      5  C   UNL     1       4.895   4.526  17.204  0.00  0.00    +0.000 A 
ATOM      6  C   UNL     1       3.561   4.081  17.185  0.00  0.00    +0.000 A 
ATOM      7  C   UNL     1       5.441   5.330  16.040  0.00  0.00    +0.000 C 
ATOM      8  C   UNL     1       5.829   6.785  16.432  0.00  0.00    +0.000 C 
ATOM      9  N   UNL     1       7.119   6.968  17.157  0.00  0.00    +0.000 NA
ATOM     10  C   UNL     1       7.131   6.294  18.475  0.00  0.00    +0.000 C 
ATOM     11  C   UNL     1       7.095   4.767  18.436  0.00  0.00    +0.000 C 
ENDROOT
BRANCH   1  13
ATOM     12  O   UNL     1       1.293   2.039  18.993  0.00  0.00    +0.000 OA
ATOM     13  N   UNL     1       1.612   3.017  18.299  0.00  0.00    +0.000 N 
ATOM     14  O   UNL     1       0.819   3.680  17.614  0.00  0.00    +0.000 OA
ENDBRANCH   1  13
BRANCH   7  15
ATOM     15  O   UNL     1       6.537   4.647  15.432  0.00  0.00    +0.000 OA
ATOM     16  H   UNL     1       7.318   4.859  15.979  0.00  0.00    +0.000 HD
ENDBRANCH   7  15
BRANCH   9  17
ATOM     17  C   UNL     1       7.341   8.422  17.355  0.00  0.00    +0.000 C 
BRANCH  17  18
ATOM     18  C   UNL     1       8.512   8.775  18.297  0.00  0.00    +0.000 C 
BRANCH  18  19
ATOM     19  C   UNL     1       8.912  10.254  18.276  0.00  0.00    +0.000 C 
BRANCH  19  20
ATOM     20  C   UNL     1       9.540  10.648  19.604  0.00  0.00    +0.000 C 
BRANCH  20  21
ATOM     21  O   UNL     1      10.868  11.130  19.420  0.00  0.00    +0.000 OA
BRANCH  21  22
ATOM     22  C   UNL     1      10.948  12.303  18.709  0.00  0.00    +0.000 A 
ATOM     23  C   UNL     1      11.525  12.446  17.441  0.00  0.00    +0.000 A 
ATOM     24  C   UNL     1      11.553  13.690  16.810  0.00  0.00    +0.000 A 
ATOM     25  C   UNL     1      11.002  14.801  17.440  0.00  0.00    +0.000 A 
ATOM     26  C   UNL     1      10.426  14.668  18.702  0.00  0.00    +0.000 A 
ATOM     27  C   UNL     1      10.399  13.422  19.334  0.00  0.00    +0.000 A 
ENDBRANCH  21  22
ENDBRANCH  20  21
ENDBRANCH  19  20
ENDBRANCH  18  19
ENDBRANCH  17  18
ENDBRANCH   9  17
TORSDOF 8
ENDMDL
MODEL 3
REMARK VINA RESULT:      -7.4      4.954      7.842
REMARK  Name = 
REMARK  8 active torsions:
REMARK  status: ('A' for Active; 'I' for Inactive)
REMARK    1  A    between atoms: N_2  and  C_4
REMARK    2  A    between atoms: C_10  and  O_11
REMARK    3  A    between atoms: N_13  and  C_14
REMARK    4  A    between atoms: C_14  and  C_15
REMARK    5  A    between atoms: C_15  and  C_16
REMARK    6  A    between atoms: C_16  and  C_17
REMARK    7  A    between atoms: C_17  and  O_18
REMARK    8  A    between atoms: O_18  and  C_19
REMARK                            x       y       z     vdW  Elec       q    Type
REMARK                         _______ _______ _______ _____ _____    ______ ____
ROOT
ATOM      1  C   UNL     1       2.037   3.041  18.615  0.00  0.00    +0.000 A 
ATOM      2  C   UNL     1       2.740   2.062  17.906  0.00  0.00    +0.000 A 
ATOM      3  C   UNL     1       3.873   2.429  17.188  0.00  0.00    +0.000 A 
ATOM      4  C   UNL     1       4.322   3.760  17.190  0.00  0.00    +0.000 A 
ATOM      5  C   UNL     1       3.629   4.747  17.917  0.00  0.00    +0.000 A 
ATOM      6  C   UNL     1       2.467   4.377  18.619  0.00  0.00    +0.000 A 
ATOM      7  C   UNL     1       4.152   6.166  18.015  0.00  0.00    +0.000 C 
ATOM      8  C   UNL     1       5.546   6.257  18.700  0.00  0.00    +0.000 C 
ATOM      9  N   UNL     1       6.730   5.882  17.874  0.00  0.00    +0.000 NA
ATOM     10  C   UNL     1       6.701   4.465  17.449  0.00  0.00    +0.000 C 
ATOM     11  C   UNL     1       5.596   4.093  16.462  0.00  0.00    +0.000 C 
ENDROOT
BRANCH   1  13
ATOM     12  O   UNL     1      -0.040   2.026  18.814  0.00  0.00    +0.000 OA
ATOM     13  N   UNL     1       0.858   2.652  19.397  0.00  0.00    +0.000 N 
ATOM     14  O   UNL     1       0.832   2.961  20.597  0.00  0.00    +0.000 OA
ENDBRANCH   1  13
BRANCH   7  15
ATOM     15  O   UNL     1       4.166   6.782  16.727  0.00  0.00    +0.000 OA
ATOM     16  H   UNL     1       3.388   7.372  16.707  0.00  0.00    +0.000 HD
ENDBRANCH   7  15
BRANCH   9  17
ATOM     17  C   UNL     1       7.955   6.122  18.678  0.00  0.00    +0.000 C 
BRANCH  17  18
ATOM     18  C   UNL     1       8.373   7.603  18.792  0.00  0.00    +0.000 C 
BRANCH  18  19
ATOM     19  C   UNL     1       7.954   8.469  17.599  0.00  0.00    +0.000 C 
BRANCH  19  20
ATOM     20  C   UNL     1       8.279   9.930  17.871  0.00  0.00    +0.000 C 
BRANCH  20  21
ATOM     21  O   UNL     1       9.048  10.072  19.061  0.00  0.00    +0.000 OA
BRANCH  21  22
ATOM     22  C   UNL     1      10.002  11.060  19.002  0.00  0.00    +0.000 A 
ATOM     23  C   UNL     1      10.840  11.444  20.057  0.00  0.00    +0.000 A 
ATOM     24  C   UNL     1      11.775  12.465  19.885  0.00  0.00    +0.000 A 
ATOM     25  C   UNL     1      11.882  13.109  18.657  0.00  0.00    +0.000 A 
ATOM     26  C   UNL     1      11.052  12.733  17.602  0.00  0.00    +0.000 A 
ATOM     27  C   UNL     1      10.115  11.710  17.775  0.00  0.00    +0.000 A 
ENDBRANCH  21  22
ENDBRANCH  20  21
ENDBRANCH  19  20
ENDBRANCH  18  19
ENDBRANCH  17  18
ENDBRANCH   9  17
TORSDOF 8
ENDMDL
MODEL 4
REMARK VINA RESULT:      -7.3      1.789      2.336
REMARK  Name = 
REMARK  8 active torsions:
REMARK  status: ('A' for Active; 'I' for Inactive)
REMARK    1  A    between atoms: N_2  and  C_4
REMARK    2  A    between atoms: C_10  and  O_11
REMARK    3  A    between atoms: N_13  and  C_14
REMARK    4  A    between atoms: C_14  and  C_15
REMARK    5  A    between atoms: C_15  and  C_16
REMARK    6  A    between atoms: C_16  and  C_17
REMARK    7  A    between atoms: C_17  and  O_18
REMARK    8  A    between atoms: O_18  and  C_19
REMARK                            x       y       z     vdW  Elec       q    Type
REMARK                         _______ _______ _______ _____ _____    ______ ____
ROOT
ATOM      1  C   UNL     1       6.961   4.724  14.025  0.00  0.00    +0.000 A 
ATOM      2  C   UNL     1       5.804   4.025  13.670  0.00  0.00    +0.000 A 
ATOM      3  C   UNL     1       4.912   3.641  14.665  0.00  0.00    +0.000 A 
ATOM      4  C   UNL     1       5.156   3.968  16.010  0.00  0.00    +0.000 A 
ATOM      5  C   UNL     1       6.310   4.688  16.371  0.00  0.00    +0.000 A 
ATOM      6  C   UNL     1       7.224   5.050  15.365  0.00  0.00    +0.000 A 
ATOM      7  C   UNL     1       6.542   5.138  17.800  0.00  0.00    +0.000 C 
ATOM      8  C   UNL     1       5.445   6.111  18.319  0.00  0.00    +0.000 C 
ATOM      9  N   UNL     1       4.143   5.507  18.725  0.00  0.00    +0.000 NA
ATOM     10  C   UNL     1       3.446   4.849  17.598  0.00  0.00    +0.000 C 
ATOM     11  C   UNL     1       4.124   3.599  17.041  0.00  0.00    +0.000 C 
ENDROOT
BRANCH   1  13
ATOM     12  O   UNL     1       8.838   5.884  13.306  0.00  0.00    +0.000 OA
ATOM     13  N   UNL     1       7.889   5.156  12.974  0.00  0.00    +0.000 N 
ATOM     14  O   UNL     1       7.681   4.759  11.819  0.00  0.00    +0.000 OA
ENDBRANCH   1  13
BRANCH   7  15
ATOM     15  O   UNL     1       6.684   4.009  18.662  0.00  0.00    +0.000 OA
ATOM     16  H   UNL     1       7.403   4.236  19.281  0.00  0.00    +0.000 HD
ENDBRANCH   7  15
BRANCH   9  17
ATOM     17  C   UNL     1       3.278   6.584  19.268  0.00  0.00    +0.000 C 
BRANCH  17  18
ATOM     18  C   UNL     1       2.175   7.074  18.306  0.00  0.00    +0.000 C 
BRANCH  18  19
ATOM     19  C   UNL     1       2.323   8.536  17.872  0.00  0.00    +0.000 C 
BRANCH  19  20
ATOM     20  C   UNL     1       1.146   9.357  18.379  0.00  0.00    +0.000 C 
BRANCH  20  21
ATOM     21  O   UNL     1       0.065   9.329  17.452  0.00  0.00    +0.000 OA
BRANCH  21  22
ATOM     22  C   UNL     1      -1.015  10.095  17.822  0.00  0.00    +0.000 A 
ATOM     23  C   UNL     1      -1.074  10.925  18.948  0.00  0.00    +0.000 A 
ATOM     24  C   UNL     1      -2.227  11.659  19.229  0.00  0.00    +0.000 A 
ATOM     25  C   UNL     1      -3.329  11.571  18.385  0.00  0.00    +0.000 A 
ATOM     26  C   UNL     1      -3.279  10.747  17.263  0.00  0.00    +0.000 A 
ATOM     27  C   UNL     1      -2.124  10.011  16.981  0.00  0.00    +0.000 A 
ENDBRANCH  21  22
ENDBRANCH  20  21
ENDBRANCH  19  20
ENDBRANCH  18  19
ENDBRANCH  17  18
ENDBRANCH   9  17
TORSDOF 8
ENDMDL
MODEL 5
REMARK VINA RESULT:      -7.2      0.956      1.450
REMARK  Name = 
REMARK  8 active torsions:
REMARK  status: ('A' for Active; 'I' for Inactive)
REMARK    1  A    between atoms: N_2  and  C_4
REMARK    2  A    between atoms: C_10  and  O_11
REMARK    3  A    between atoms: N_13  and  C_14
REMARK    4  A    between atoms: C_14  and  C_15
REMARK    5  A    between atoms: C_15  and  C_16
REMARK    6  A    between atoms: C_16  and  C_17
REMARK    7  A    between atoms: C_17  and  O_18
REMARK    8  A    between atoms: O_18  and  C_19
REMARK                            x       y       z     vdW  Elec       q    Type
REMARK                         _______ _______ _______ _____ _____    ______ ____
ROOT
ATOM      1  C   UNL     1       7.036   4.896  14.177  0.00  0.00    +0.000 A 
ATOM      2  C   UNL     1       6.252   3.740  14.152  0.00  0.00    +0.000 A 
ATOM      3  C   UNL     1       5.439   3.448  15.242  0.00  0.00    +0.000 A 
ATOM      4  C   UNL     1       5.386   4.314  16.347  0.00  0.00    +0.000 A 
ATOM      5  C   UNL     1       6.159   5.491  16.370  0.00  0.00    +0.000 A 
ATOM      6  C   UNL     1       7.002   5.767  15.278  0.00  0.00    +0.000 A 
ATOM      7  C   UNL     1       6.041   6.488  17.505  0.00  0.00    +0.000 C 
ATOM      8  C   UNL     1       4.617   7.100  17.635  0.00  0.00    +0.000 C 
ATOM      9  N   UNL     1       3.573   6.251  18.278  0.00  0.00    +0.000 NA
ATOM     10  C   UNL     1       3.295   5.015  17.514  0.00  0.00    +0.000 C 
ATOM     11  C   UNL     1       4.433   3.997  17.468  0.00  0.00    +0.000 C 
ENDROOT
BRANCH   1  13
ATOM     12  O   UNL     1       8.832   5.988  13.194  0.00  0.00    +0.000 OA
ATOM     13  N   UNL     1       7.873   5.222  13.016  0.00  0.00    +0.000 N 
ATOM     14  O   UNL     1       7.582   4.703  11.929  0.00  0.00    +0.000 OA
ENDBRANCH   1  13
BRANCH   7  15
ATOM     15  O   UNL     1       6.466   5.897  18.734  0.00  0.00    +0.000 OA
ATOM     16  H   UNL     1       6.215   4.956  18.676  0.00  0.00    +0.000 HD
ENDBRANCH   7  15
BRANCH   9  17
ATOM     17  C   UNL     1       2.324   7.046  18.383  0.00  0.00    +0.000 C 
BRANCH  17  18
ATOM     18  C   UNL     1       2.445   8.508  17.903  0.00  0.00    +0.000 C 
BRANCH  18  19
ATOM     19  C   UNL     1       1.150   9.318  18.019  0.00  0.00    +0.000 C 
BRANCH  19  20
ATOM     20  C   UNL     1       1.354  10.508  18.944  0.00  0.00    +0.000 C 
BRANCH  20  21
ATOM     21  O   UNL     1       0.106  11.083  19.321  0.00  0.00    +0.000 OA
BRANCH  21  22
ATOM     22  C   UNL     1      -0.248  10.855  20.629  0.00  0.00    +0.000 A 
ATOM     23  C   UNL     1       0.225   9.806  21.427  0.00  0.00    +0.000 A 
ATOM     24  C   UNL     1      -0.205   9.668  22.748  0.00  0.00    +0.000 A 
ATOM     25  C   UNL     1      -1.109  10.580  23.282  0.00  0.00    +0.000 A 
ATOM     26  C   UNL     1      -1.585  11.628  22.495  0.00  0.00    +0.000 A 
ATOM     27  C   UNL     1      -1.154  11.765  21.172  0.00  0.00    +0.000 A 
ENDBRANCH  21  22
ENDBRANCH  20  21
ENDBRANCH  19  20
ENDBRANCH  18  19
ENDBRANCH  17  18
ENDBRANCH   9  17
TORSDOF 8
ENDMDL
MODEL 6
REMARK VINA RESULT:      -7.2      0.538      1.077
REMARK  Name = 
REMARK  8 active torsions:
REMARK  status: ('A' for Active; 'I' for Inactive)
REMARK    1  A    between atoms: N_2  and  C_4
REMARK    2  A    between atoms: C_10  and  O_11
REMARK    3  A    between atoms: N_13  and  C_14
REMARK    4  A    between atoms: C_14  and  C_15
REMARK    5  A    between atoms: C_15  and  C_16
REMARK    6  A    between atoms: C_16  and  C_17
REMARK    7  A    between atoms: C_17  and  O_18
REMARK    8  A    between atoms: O_18  and  C_19
REMARK                            x       y       z     vdW  Elec       q    Type
REMARK                         _______ _______ _______ _____ _____    ______ ____
ROOT
ATOM      1  C   UNL     1       7.042   4.832  14.077  0.00  0.00    +0.000 A 
ATOM      2  C   UNL     1       6.131   3.858  13.657  0.00  0.00    +0.000 A 
ATOM      3  C   UNL     1       5.247   3.314  14.583  0.00  0.00    +0.000 A 
ATOM      4  C   UNL     1       5.250   3.751  15.918  0.00  0.00    +0.000 A 
ATOM      5  C   UNL     1       6.152   4.745  16.342  0.00  0.00    +0.000 A 
ATOM      6  C   UNL     1       7.064   5.272  15.410  0.00  0.00    +0.000 A 
ATOM      7  C   UNL     1       6.104   5.302  17.752  0.00  0.00    +0.000 C 
ATOM      8  C   UNL     1       4.756   6.002  18.086  0.00  0.00    +0.000 C 
ATOM      9  N   UNL     1       3.596   5.119  18.400  0.00  0.00    +0.000 NA
ATOM     10  C   UNL     1       3.208   4.261  17.258  0.00  0.00    +0.000 C 
ATOM     11  C   UNL     1       4.222   3.189  16.863  0.00  0.00    +0.000 C 
ENDROOT
BRANCH   1  13
ATOM     12  O   UNL     1       8.920   6.080  13.530  0.00  0.00    +0.000 OA
ATOM     13  N   UNL     1       7.957   5.429  13.097  0.00  0.00    +0.000 N 
ATOM     14  O   UNL     1       7.723   5.237  11.896  0.00  0.00    +0.000 OA
ENDBRANCH   1  13
BRANCH   7  15
ATOM     15  O   UNL     1       6.408   4.280  18.702  0.00  0.00    +0.000 OA
ATOM     16  H   UNL     1       7.289   3.940  18.454  0.00  0.00    +0.000 HD
ENDBRANCH   7  15
BRANCH   9  17
ATOM     17  C   UNL     1       2.444   5.977  18.775  0.00  0.00    +0.000 C 
BRANCH  17  18
ATOM     18  C   UNL     1       2.791   7.463  18.999  0.00  0.00    +0.000 C 
BRANCH  18  19
ATOM     19  C   UNL     1       1.992   8.435  18.124  0.00  0.00    +0.000 C 
BRANCH  19  20
ATOM     20  C   UNL     1       1.110   9.321  18.991  0.00  0.00    +0.000 C 
BRANCH  20  21
ATOM     21  O   UNL     1       1.309   9.045  20.374  0.00  0.00    +0.000 OA
BRANCH  21  22
ATOM     22  C   UNL     1       0.472   9.741  21.214  0.00  0.00    +0.000 A 
ATOM     23  C   UNL     1       0.073   9.325  22.490  0.00  0.00    +0.000 A 
ATOM     24  C   UNL     1      -0.785  10.114  23.258  0.00  0.00    +0.000 A 
ATOM     25  C   UNL     1      -1.249  11.326  22.757  0.00  0.00    +0.000 A 
ATOM     26  C   UNL     1      -0.857  11.747  21.487  0.00  0.00    +0.000 A 
ATOM     27  C   UNL     1       0.002  10.956  20.718  0.00  0.00    +0.000 A 
ENDBRANCH  21  22
ENDBRANCH  20  21
ENDBRANCH  19  20
ENDBRANCH  18  19
ENDBRANCH  17  18
ENDBRANCH   9  17
TORSDOF 8
ENDMDL
MODEL 7
REMARK VINA RESULT:      -7.2      5.623      7.584
REMARK  Name = 
REMARK  8 active torsions:
REMARK  status: ('A' for Active; 'I' for Inactive)
REMARK    1  A    between atoms: N_2  and  C_4
REMARK    2  A    between atoms: C_10  and  O_11
REMARK    3  A    between atoms: N_13  and  C_14
REMARK    4  A    between atoms: C_14  and  C_15
REMARK    5  A    between atoms: C_15  and  C_16
REMARK    6  A    between atoms: C_16  and  C_17
REMARK    7  A    between atoms: C_17  and  O_18
REMARK    8  A    between atoms: O_18  and  C_19
REMARK                            x       y       z     vdW  Elec       q    Type
REMARK                         _______ _______ _______ _____ _____    ______ ____
ROOT
ATOM      1  C   UNL     1       2.936   4.139  18.447  0.00  0.00    +0.000 A 
ATOM      2  C   UNL     1       3.853   3.196  18.921  0.00  0.00    +0.000 A 
ATOM      3  C   UNL     1       5.197   3.335  18.595  0.00  0.00    +0.000 A 
ATOM      4  C   UNL     1       5.637   4.419  17.817  0.00  0.00    +0.000 A 
ATOM      5  C   UNL     1       4.721   5.382  17.352  0.00  0.00    +0.000 A 
ATOM      6  C   UNL     1       3.358   5.223  17.661  0.00  0.00    +0.000 A 
ATOM      7  C   UNL     1       5.187   6.612  16.598  0.00  0.00    +0.000 C 
ATOM      8  C   UNL     1       6.131   7.521  17.437  0.00  0.00    +0.000 C 
ATOM      9  N   UNL     1       7.547   7.077  17.578  0.00  0.00    +0.000 NA
ATOM     10  C   UNL     1       7.670   5.786  18.291  0.00  0.00    +0.000 C 
ATOM     11  C   UNL     1       7.111   4.569  17.555  0.00  0.00    +0.000 C 
ENDROOT
BRANCH   1  13
ATOM     12  O   UNL     1       0.775   3.401  18.032  0.00  0.00    +0.000 OA
ATOM     13  N   UNL     1       1.521   4.012  18.814  0.00  0.00    +0.000 N 
ATOM     14  O   UNL     1       1.155   4.509  19.888  0.00  0.00    +0.000 OA
ENDBRANCH   1  13
BRANCH   7  15
ATOM     15  O   UNL     1       5.792   6.239  15.360  0.00  0.00    +0.000 OA
ATOM     16  H   UNL     1       5.168   6.519  14.664  0.00  0.00    +0.000 HD
ENDBRANCH   7  15
BRANCH   9  17
ATOM     17  C   UNL     1       8.291   8.118  18.330  0.00  0.00    +0.000 C 
BRANCH  17  18
ATOM     18  C   UNL     1       8.106   9.555  17.799  0.00  0.00    +0.000 C 
BRANCH  18  19
ATOM     19  C   UNL     1       9.188  10.539  18.258  0.00  0.00    +0.000 C 
BRANCH  19  20
ATOM     20  C   UNL     1       9.314  10.513  19.774  0.00  0.00    +0.000 C 
BRANCH  20  21
ATOM     21  O   UNL     1      10.517  11.146  20.199  0.00  0.00    +0.000 OA
BRANCH  21  22
ATOM     22  C   UNL     1      10.339  12.409  20.711  0.00  0.00    +0.000 A 
ATOM     23  C   UNL     1       9.509  12.739  21.789  0.00  0.00    +0.000 A 
ATOM     24  C   UNL     1       9.403  14.060  22.226  0.00  0.00    +0.000 A 
ATOM     25  C   UNL     1      10.128  15.062  21.589  0.00  0.00    +0.000 A 
ATOM     26  C   UNL     1      10.956  14.743  20.515  0.00  0.00    +0.000 A 
ATOM     27  C   UNL     1      11.062  13.420  20.078  0.00  0.00    +0.000 A 
ENDBRANCH  21  22
ENDBRANCH  20  21
ENDBRANCH  19  20
ENDBRANCH  18  19
ENDBRANCH  17  18
ENDBRANCH   9  17
TORSDOF 8
ENDMDL
MODEL 8
REMARK VINA RESULT:      -7.2      5.778      7.533
REMARK  Name = 
REMARK  8 active torsions:
REMARK  status: ('A' for Active; 'I' for Inactive)
REMARK    1  A    between atoms: N_2  and  C_4
REMARK    2  A    between atoms: C_10  and  O_11
REMARK    3  A    between atoms: N_13  and  C_14
REMARK    4  A    between atoms: C_14  and  C_15
REMARK    5  A    between atoms: C_15  and  C_16
REMARK    6  A    between atoms: C_16  and  C_17
REMARK    7  A    between atoms: C_17  and  O_18
REMARK    8  A    between atoms: O_18  and  C_19
REMARK                            x       y       z     vdW  Elec       q    Type
REMARK                         _______ _______ _______ _____ _____    ______ ____
ROOT
ATOM      1  C   UNL     1       3.129   3.840  18.258  0.00  0.00    +0.000 A 
ATOM      2  C   UNL     1       3.901   3.528  19.381  0.00  0.00    +0.000 A 
ATOM      3  C   UNL     1       5.249   3.870  19.393  0.00  0.00    +0.000 A 
ATOM      4  C   UNL     1       5.826   4.540  18.302  0.00  0.00    +0.000 A 
ATOM      5  C   UNL     1       5.050   4.874  17.176  0.00  0.00    +0.000 A 
ATOM      6  C   UNL     1       3.694   4.501  17.156  0.00  0.00    +0.000 A 
ATOM      7  C   UNL     1       5.628   5.685  16.033  0.00  0.00    +0.000 C 
ATOM      8  C   UNL     1       6.096   7.104  16.467  0.00  0.00    +0.000 C 
ATOM      9  N   UNL     1       7.400   7.195  17.185  0.00  0.00    +0.000 NA
ATOM     10  C   UNL     1       7.387   6.479  18.480  0.00  0.00    +0.000 C 
ATOM     11  C   UNL     1       7.269   4.959  18.393  0.00  0.00    +0.000 C 
ENDROOT
BRANCH   1  13
ATOM     12  O   UNL     1       1.000   3.982  17.347  0.00  0.00    +0.000 OA
ATOM     13  N   UNL     1       1.700   3.507  18.254  0.00  0.00    +0.000 N 
ATOM     14  O   UNL     1       1.278   2.761  19.149  0.00  0.00    +0.000 OA
ENDBRANCH   1  13
BRANCH   7  15
ATOM     15  O   UNL     1       6.682   4.965  15.393  0.00  0.00    +0.000 OA
ATOM     16  H   UNL     1       7.459   5.057  15.977  0.00  0.00    +0.000 HD
ENDBRANCH   7  15
BRANCH   9  17
ATOM     17  C   UNL     1       7.701   8.628  17.427  0.00  0.00    +0.000 C 
BRANCH  17  18
ATOM     18  C   UNL     1       8.714   8.894  18.560  0.00  0.00    +0.000 C 
BRANCH  18  19
ATOM     19  C   UNL     1       9.086  10.370  18.739  0.00  0.00    +0.000 C 
BRANCH  19  20
ATOM     20  C   UNL     1       9.461  10.647  20.187  0.00  0.00    +0.000 C 
BRANCH  20  21
ATOM     21  O   UNL     1      10.657  11.416  20.268  0.00  0.00    +0.000 OA
BRANCH  21  22
ATOM     22  C   UNL     1      10.471  12.702  20.716  0.00  0.00    +0.000 A 
ATOM     23  C   UNL     1      11.161  13.830  20.257  0.00  0.00    +0.000 A 
ATOM     24  C   UNL     1      10.891  15.093  20.786  0.00  0.00    +0.000 A 
ATOM     25  C   UNL     1       9.927  15.238  21.778  0.00  0.00    +0.000 A 
ATOM     26  C   UNL     1       9.235  14.120  22.242  0.00  0.00    +0.000 A 
ATOM     27  C   UNL     1       9.506  12.856  21.712  0.00  0.00    +0.000 A 
ENDBRANCH  21  22
ENDBRANCH  20  21
ENDBRANCH  19  20
ENDBRANCH  18  19
ENDBRANCH  17  18
ENDBRANCH   9  17
TORSDOF 8
ENDMDL
MODEL 9
REMARK VINA RESULT:      -7.1      2.329      3.344
REMARK  Name = 
REMARK  8 active torsions:
REMARK  status: ('A' for Active; 'I' for Inactive)
REMARK    1  A    between atoms: N_2  and  C_4
REMARK    2  A    between atoms: C_10  and  O_11
REMARK    3  A    between atoms: N_13  and  C_14
REMARK    4  A    between atoms: C_14  and  C_15
REMARK    5  A    between atoms: C_15  and  C_16
REMARK    6  A    between atoms: C_16  and  C_17
REMARK    7  A    between atoms: C_17  and  O_18
REMARK    8  A    between atoms: O_18  and  C_19
REMARK                            x       y       z     vdW  Elec       q    Type
REMARK                         _______ _______ _______ _____ _____    ______ ____
ROOT
ATOM      1  C   UNL     1       6.260   5.230  17.217  0.00  0.00    +0.000 A 
ATOM      2  C   UNL     1       5.406   5.031  16.128  0.00  0.00    +0.000 A 
ATOM      3  C   UNL     1       4.399   4.076  16.222  0.00  0.00    +0.000 A 
ATOM      4  C   UNL     1       4.225   3.334  17.402  0.00  0.00    +0.000 A 
ATOM      5  C   UNL     1       5.069   3.543  18.508  0.00  0.00    +0.000 A 
ATOM      6  C   UNL     1       6.104   4.489  18.400  0.00  0.00    +0.000 A 
ATOM      7  C   UNL     1       4.834   2.827  19.824  0.00  0.00    +0.000 C 
ATOM      8  C   UNL     1       3.459   3.166  20.467  0.00  0.00    +0.000 C 
ATOM      9  N   UNL     1       2.260   2.492  19.892  0.00  0.00    +0.000 NA
ATOM     10  C   UNL     1       2.024   2.861  18.478  0.00  0.00    +0.000 C 
ATOM     11  C   UNL     1       3.073   2.369  17.483  0.00  0.00    +0.000 C 
ENDROOT
BRANCH   1  13
ATOM     12  O   UNL     1       7.652   6.813  18.185  0.00  0.00    +0.000 OA
ATOM     13  N   UNL     1       7.304   6.256  17.132  0.00  0.00    +0.000 N 
ATOM     14  O   UNL     1       7.788   6.499  16.017  0.00  0.00    +0.000 OA
ENDBRANCH   1  13
BRANCH   7  15
ATOM     15  O   UNL     1       4.997   1.418  19.660  0.00  0.00    +0.000 OA
ATOM     16  H   UNL     1       4.984   1.259  18.697  0.00  0.00    +0.000 HD
ENDBRANCH   7  15
BRANCH   9  17
ATOM     17  C   UNL     1       1.075   2.879  20.697  0.00  0.00    +0.000 C 
BRANCH  17  18
ATOM     18  C   UNL     1       0.576   4.321  20.462  0.00  0.00    +0.000 C 
BRANCH  18  19
ATOM     19  C   UNL     1       1.547   5.408  20.936  0.00  0.00    +0.000 C 
BRANCH  19  20
ATOM     20  C   UNL     1       1.999   6.259  19.759  0.00  0.00    +0.000 C 
BRANCH  20  21
ATOM     21  O   UNL     1       2.354   7.572  20.182  0.00  0.00    +0.000 OA
BRANCH  21  22
ATOM     22  C   UNL     1       1.449   8.543  19.825  0.00  0.00    +0.000 A 
ATOM     23  C   UNL     1       1.327   9.111  18.551  0.00  0.00    +0.000 A 
ATOM     24  C   UNL     1       0.370  10.095  18.301  0.00  0.00    +0.000 A 
ATOM     25  C   UNL     1      -0.474  10.518  19.321  0.00  0.00    +0.000 A 
ATOM     26  C   UNL     1      -0.360   9.959  20.593  0.00  0.00    +0.000 A 
ATOM     27  C   UNL     1       0.599   8.973  20.843  0.00  0.00    +0.000 A 
ENDBRANCH  21  22
ENDBRANCH  20  21
ENDBRANCH  19  20
ENDBRANCH  18  19
ENDBRANCH  17  18
ENDBRANCH   9  17
TORSDOF 8
ENDMDL
