MODEL 1
REMARK VINA RESULT:      -9.2      0.000      0.000
REMARK  Name = 
REMARK  5 active torsions:
REMARK  status: ('A' for Active; 'I' for Inactive)
REMARK    1  A    between atoms: C_2  and  C_27
REMARK    2  A    between atoms: N_3  and  C_4
REMARK    3  A    between atoms: C_9  and  S_10
REMARK    4  A    between atoms: S_10  and  C_11
REMARK    5  A    between atoms: C_11  and  C_12
REMARK                            x       y       z     vdW  Elec       q    Type
REMARK                         _______ _______ _______ _____ _____    ______ ____
ROOT
ATOM      1  C   UNL     1       4.022   5.303  17.478  0.00  0.00    +0.000 A 
ATOM      2  C   UNL     1       3.877   4.510  18.617  0.00  0.00    +0.000 A 
ATOM      3  C   UNL     1       3.167   4.959  19.738  0.00  0.00    +0.000 A 
ATOM      4  C   UNL     1       2.583   6.233  19.725  0.00  0.00    +0.000 A 
ATOM      5  N   UNL     1       1.777   6.757  20.721  0.00  0.00    +0.000 NA
ATOM      6  C   UNL     1       1.439   7.984  20.403  0.00  0.00    +0.000 A 
ATOM      7  S   UNL     1       2.012   8.561  18.894  0.00  0.00    +0.000 S 
ATOM      8  C   UNL     1       2.800   7.053  18.615  0.00  0.00    +0.000 A 
ATOM      9  C   UNL     1       3.538   6.619  17.490  0.00  0.00    +0.000 A 
ENDROOT
BRANCH   1  12
ATOM     10  O   UNL     1       5.957   6.653  15.770  0.00  0.00    +0.000 OA
ATOM     11  C   UNL     1       5.532   5.527  15.524  0.00  0.00    +0.000 C 
ATOM     12  N   UNL     1       4.621   4.809  16.291  0.00  0.00    +0.000 N 
ATOM     13  H   UNL     1       4.535   3.815  16.109  0.00  0.00    +0.000 HD
BRANCH  11  14
ATOM     14  C   UNL     1       6.108   4.859  14.331  0.00  0.00    +0.000 A 
ATOM     15  C   UNL     1       7.348   5.329  13.870  0.00  0.00    +0.000 A 
ATOM     16  C   UNL     1       7.891   4.843  12.684  0.00  0.00    +0.000 A 
ATOM     17  C   UNL     1       7.189   3.888  11.947  0.00  0.00    +0.000 A 
ATOM     18  C   UNL     1       5.958   3.419  12.409  0.00  0.00    +0.000 A 
ATOM     19 CL   UNL     1       5.087   2.270  11.471  0.00  0.00    +0.000 Cl
ATOM     20  C   UNL     1       5.413   3.890  13.603  0.00  0.00    +0.000 A 
ENDBRANCH  11  14
ENDBRANCH   1  12
BRANCH   6  21
ATOM     21  S   UNL     1       0.426   8.959  21.449  0.00  0.00    +0.000 S 
BRANCH  21  22
ATOM     22  C   UNL     1       0.444  10.566  20.587  0.00  0.00    +0.000 C 
BRANCH  22  23
ATOM     23  C   UNL     1      -0.937  11.229  20.545  0.00  0.00    +0.000 C 
ATOM     24  O   UNL     1      -1.460  11.593  21.602  0.00  0.00    +0.000 OA
ATOM     25  N   UNL     1      -1.592  11.319  19.299  0.00  0.00    +0.000 N 
ATOM     26  C   UNL     1      -1.004  10.886  18.019  0.00  0.00    +0.000 C 
ATOM     27  C   UNL     1      -1.920   9.928  17.284  0.00  0.00    +0.000 C 
ATOM     28  C   UNL     1      -3.231  10.615  16.955  0.00  0.00    +0.000 C 
ATOM     29  C   UNL     1      -3.746  11.467  18.087  0.00  0.00    +0.000 A 
ATOM     30  C   UNL     1      -5.080  11.914  18.008  0.00  0.00    +0.000 A 
ATOM     31  C   UNL     1      -5.629  12.708  19.010  0.00  0.00    +0.000 A 
ATOM     32  C   UNL     1      -4.843  13.087  20.086  0.00  0.00    +0.000 A 
ATOM     33  C   UNL     1      -3.516  12.659  20.168  0.00  0.00    +0.000 A 
ATOM     34  C   UNL     1      -2.946  11.824  19.193  0.00  0.00    +0.000 A 
ENDBRANCH  22  23
ENDBRANCH  21  22
ENDBRANCH   6  21
TORSDOF 5
ENDMDL
MODEL 2
REMARK VINA RESULT:      -9.1      2.144      3.287
REMARK  Name = 
REMARK  5 active torsions:
REMARK  status: ('A' for Active; 'I' for Inactive)
REMARK    1  A    between atoms: C_2  and  C_27
REMARK    2  A    between atoms: N_3  and  C_4
REMARK    3  A    between atoms: C_9  and  S_10
REMARK    4  A    between atoms: S_10  and  C_11
REMARK    5  A    between atoms: C_11  and  C_12
REMARK                            x       y       z     vdW  Elec       q    Type
REMARK                         _______ _______ _______ _____ _____    ______ ____
ROOT
ATOM      1  C   UNL     1       2.445   8.002  18.522  0.00  0.00    +0.000 A 
ATOM      2  C   UNL     1       1.672   8.881  17.763  0.00  0.00    +0.000 A 
ATOM      3  C   UNL     1       0.718   9.718  18.356  0.00  0.00    +0.000 A 
ATOM      4  C   UNL     1       0.530   9.681  19.745  0.00  0.00    +0.000 A 
ATOM      5  N   UNL     1      -0.304  10.519  20.465  0.00  0.00    +0.000 NA
ATOM      6  C   UNL     1      -0.269  10.180  21.732  0.00  0.00    +0.000 A 
ATOM      7  S   UNL     1       0.784   8.891  22.143  0.00  0.00    +0.000 S 
ATOM      8  C   UNL     1       1.249   8.742  20.489  0.00  0.00    +0.000 A 
ATOM      9  C   UNL     1       2.193   7.874  19.896  0.00  0.00    +0.000 A 
ENDROOT
BRANCH   1  12
ATOM     10  O   UNL     1       2.801   5.111  18.577  0.00  0.00    +0.000 OA
ATOM     11  C   UNL     1       3.605   5.865  18.034  0.00  0.00    +0.000 C 
ATOM     12  N   UNL     1       3.504   7.249  17.951  0.00  0.00    +0.000 N 
ATOM     13  H   UNL     1       4.100   7.724  17.282  0.00  0.00    +0.000 HD
BRANCH  11  14
ATOM     14  C   UNL     1       4.748   5.214  17.347  0.00  0.00    +0.000 A 
ATOM     15  C   UNL     1       5.946   5.095  18.070  0.00  0.00    +0.000 A 
ATOM     16  C   UNL     1       7.098   4.615  17.453  0.00  0.00    +0.000 A 
ATOM     17  C   UNL     1       7.059   4.261  16.104  0.00  0.00    +0.000 A 
ATOM     18  C   UNL     1       5.866   4.377  15.388  0.00  0.00    +0.000 A 
ATOM     19 CL   UNL     1       5.843   3.971  13.717  0.00  0.00    +0.000 Cl
ATOM     20  C   UNL     1       4.704   4.842  16.001  0.00  0.00    +0.000 A 
ENDBRANCH  11  14
ENDBRANCH   1  12
BRANCH   6  21
ATOM     21  S   UNL     1      -1.219  11.026  22.937  0.00  0.00    +0.000 S 
BRANCH  21  22
ATOM     22  C   UNL     1      -1.716  12.528  22.028  0.00  0.00    +0.000 C 
BRANCH  22  23
ATOM     23  C   UNL     1      -3.194  12.510  21.622  0.00  0.00    +0.000 C 
ATOM     24  O   UNL     1      -4.057  12.440  22.501  0.00  0.00    +0.000 OA
ATOM     25  N   UNL     1      -3.502  12.491  20.245  0.00  0.00    +0.000 N 
ATOM     26  C   UNL     1      -2.500  12.563  19.169  0.00  0.00    +0.000 C 
ATOM     27  C   UNL     1      -2.662  11.423  18.182  0.00  0.00    +0.000 C 
ATOM     28  C   UNL     1      -4.024  11.502  17.520  0.00  0.00    +0.000 C 
ATOM     29  C   UNL     1      -5.126  11.855  18.487  0.00  0.00    +0.000 A 
ATOM     30  C   UNL     1      -6.453  11.673  18.052  0.00  0.00    +0.000 A 
ATOM     31  C   UNL     1      -7.526  11.980  18.883  0.00  0.00    +0.000 A 
ATOM     32  C   UNL     1      -7.284  12.499  20.144  0.00  0.00    +0.000 A 
ATOM     33  C   UNL     1      -5.972  12.694  20.581  0.00  0.00    +0.000 A 
ATOM     34  C   UNL     1      -4.868  12.356  19.781  0.00  0.00    +0.000 A 
ENDBRANCH  22  23
ENDBRANCH  21  22
ENDBRANCH   6  21
TORSDOF 5
ENDMDL
MODEL 3
REMARK VINA RESULT:      -8.7      4.477     10.601
REMARK  Name = 
REMARK  5 active torsions:
REMARK  status: ('A' for Active; 'I' for Inactive)
REMARK    1  A    between atoms: C_2  and  C_27
REMARK    2  A    between atoms: N_3  and  C_4
REMARK    3  A    between atoms: C_9  and  S_10
REMARK    4  A    between atoms: S_10  and  C_11
REMARK    5  A    between atoms: C_11  and  C_12
REMARK                            x       y       z     vdW  Elec       q    Type
REMARK                         _______ _______ _______ _____ _____    ______ ____
ROOT
ATOM      1  C   UNL     1       1.582   8.544  20.245  0.00  0.00    +0.000 A 
ATOM      2  C   UNL     1       1.966   8.547  18.904  0.00  0.00    +0.000 A 
ATOM      3  C   UNL     1       2.226   7.357  18.212  0.00  0.00    +0.000 A 
ATOM      4  C   UNL     1       2.097   6.128  18.873  0.00  0.00    +0.000 A 
ATOM      5  N   UNL     1       2.227   4.882  18.285  0.00  0.00    +0.000 NA
ATOM      6  C   UNL     1       2.087   3.954  19.201  0.00  0.00    +0.000 A 
ATOM      7  S   UNL     1       1.746   4.502  20.789  0.00  0.00    +0.000 S 
ATOM      8  C   UNL     1       1.791   6.135  20.236  0.00  0.00    +0.000 A 
ATOM      9  C   UNL     1       1.555   7.332  20.950  0.00  0.00    +0.000 A 
ENDROOT
BRANCH   1  12
ATOM     10  O   UNL     1      -0.844  10.100  19.825  0.00  0.00    +0.000 OA
ATOM     11  C   UNL     1       0.012  10.421  20.645  0.00  0.00    +0.000 C 
ATOM     12  N   UNL     1       1.187   9.730  20.916  0.00  0.00    +0.000 N 
ATOM     13  H   UNL     1       1.686   9.966  21.767  0.00  0.00    +0.000 HD
BRANCH  11  14
ATOM     14  C   UNL     1      -0.286  11.623  21.463  0.00  0.00    +0.000 A 
ATOM     15  C   UNL     1      -1.188  11.467  22.527  0.00  0.00    +0.000 A 
ATOM     16  C   UNL     1      -1.618  12.571  23.258  0.00  0.00    +0.000 A 
ATOM     17  C   UNL     1      -1.152  13.842  22.920  0.00  0.00    +0.000 A 
ATOM     18  C   UNL     1      -0.251  13.995  21.865  0.00  0.00    +0.000 A 
ATOM     19 CL   UNL     1       0.286  15.572  21.436  0.00  0.00    +0.000 Cl
ATOM     20  C   UNL     1       0.196  12.893  21.137  0.00  0.00    +0.000 A 
ENDBRANCH  11  14
ENDBRANCH   1  12
BRANCH   6  21
ATOM     21  S   UNL     1       2.205   2.250  18.810  0.00  0.00    +0.000 S 
BRANCH  21  22
ATOM     22  C   UNL     1       3.726   2.205  17.805  0.00  0.00    +0.000 C 
BRANCH  22  23
ATOM     23  C   UNL     1       4.803   3.165  18.321  0.00  0.00    +0.000 C 
ATOM     24  O   UNL     1       5.028   3.218  19.533  0.00  0.00    +0.000 OA
ATOM     25  N   UNL     1       5.437   4.014  17.389  0.00  0.00    +0.000 N 
ATOM     26  C   UNL     1       5.186   3.987  15.938  0.00  0.00    +0.000 C 
ATOM     27  C   UNL     1       4.826   5.362  15.411  0.00  0.00    +0.000 C 
ATOM     28  C   UNL     1       5.978   6.322  15.640  0.00  0.00    +0.000 C 
ATOM     29  C   UNL     1       6.621   6.153  16.994  0.00  0.00    +0.000 A 
ATOM     30  C   UNL     1       7.496   7.167  17.427  0.00  0.00    +0.000 A 
ATOM     31  C   UNL     1       8.133   7.083  18.661  0.00  0.00    +0.000 A 
ATOM     32  C   UNL     1       7.924   5.972  19.461  0.00  0.00    +0.000 A 
ATOM     33  C   UNL     1       7.067   4.954  19.035  0.00  0.00    +0.000 A 
ATOM     34  C   UNL     1       6.378   5.030  17.813  0.00  0.00    +0.000 A 
ENDBRANCH  22  23
ENDBRANCH  21  22
ENDBRANCH   6  21
TORSDOF 5
ENDMDL
MODEL 4
REMARK VINA RESULT:      -8.6      4.178     10.329
REMARK  Name = 
REMARK  5 active torsions:
REMARK  status: ('A' for Active; 'I' for Inactive)
REMARK    1  A    between atoms: C_2  and  C_27
REMARK    2  A    between atoms: N_3  and  C_4
REMARK    3  A    between atoms: C_9  and  S_10
REMARK    4  A    between atoms: S_10  and  C_11
REMARK    5  A    between atoms: C_11  and  C_12
REMARK                            x       y       z     vdW  Elec       q    Type
REMARK                         _______ _______ _______ _____ _____    ______ ____
ROOT
ATOM      1  C   UNL     1       1.692   9.031  19.222  0.00  0.00    +0.000 A 
ATOM      2  C   UNL     1       2.063   8.730  17.911  0.00  0.00    +0.000 A 
ATOM      3  C   UNL     1       2.310   7.413  17.503  0.00  0.00    +0.000 A 
ATOM      4  C   UNL     1       2.182   6.365  18.424  0.00  0.00    +0.000 A 
ATOM      5  N   UNL     1       2.300   5.017  18.130  0.00  0.00    +0.000 NA
ATOM      6  C   UNL     1       2.164   4.320  19.232  0.00  0.00    +0.000 A 
ATOM      7  S   UNL     1       1.840   5.214  20.660  0.00  0.00    +0.000 S 
ATOM      8  C   UNL     1       1.889   6.680  19.753  0.00  0.00    +0.000 A 
ATOM      9  C   UNL     1       1.666   8.009  20.181  0.00  0.00    +0.000 A 
ENDROOT
BRANCH   1  12
ATOM     10  O   UNL     1      -0.909  10.299  18.885  0.00  0.00    +0.000 OA
ATOM     11  C   UNL     1       0.044  10.875  19.402  0.00  0.00    +0.000 C 
ATOM     12  N   UNL     1       1.310  10.341  19.612  0.00  0.00    +0.000 N 
ATOM     13  H   UNL     1       1.926  10.829  20.253  0.00  0.00    +0.000 HD
BRANCH  11  14
ATOM     14  C   UNL     1      -0.218  12.245  19.908  0.00  0.00    +0.000 A 
ATOM     15  C   UNL     1      -0.761  12.359  21.198  0.00  0.00    +0.000 A 
ATOM     16  C   UNL     1      -1.156  13.600  21.691  0.00  0.00    +0.000 A 
ATOM     17  C   UNL     1      -1.018  14.734  20.890  0.00  0.00    +0.000 A 
ATOM     18  C   UNL     1      -0.474  14.619  19.609  0.00  0.00    +0.000 A 
ATOM     19 CL   UNL     1      -0.344  16.020  18.620  0.00  0.00    +0.000 Cl
ATOM     20  C   UNL     1      -0.063  13.383  19.112  0.00  0.00    +0.000 A 
ENDBRANCH  11  14
ENDBRANCH   1  12
BRANCH   6  21
ATOM     21  S   UNL     1       2.269   2.571  19.233  0.00  0.00    +0.000 S 
BRANCH  21  22
ATOM     22  C   UNL     1       3.830   2.294  18.332  0.00  0.00    +0.000 C 
BRANCH  22  23
ATOM     23  C   UNL     1       4.913   3.314  18.699  0.00  0.00    +0.000 C 
ATOM     24  O   UNL     1       5.191   3.492  19.888  0.00  0.00    +0.000 OA
ATOM     25  N   UNL     1       5.490   4.072  17.658  0.00  0.00    +0.000 N 
ATOM     26  C   UNL     1       5.175   3.895  16.230  0.00  0.00    +0.000 C 
ATOM     27  C   UNL     1       4.770   5.206  15.586  0.00  0.00    +0.000 C 
ATOM     28  C   UNL     1       5.915   6.198  15.664  0.00  0.00    +0.000 C 
ATOM     29  C   UNL     1       6.620   6.173  16.996  0.00  0.00    +0.000 A 
ATOM     30  C   UNL     1       7.497   7.236  17.285  0.00  0.00    +0.000 A 
ATOM     31  C   UNL     1       8.190   7.285  18.490  0.00  0.00    +0.000 A 
ATOM     32  C   UNL     1       8.036   6.258  19.407  0.00  0.00    +0.000 A 
ATOM     33  C   UNL     1       7.177   5.192  19.125  0.00  0.00    +0.000 A 
ATOM     34  C   UNL     1       6.433   5.136  17.934  0.00  0.00    +0.000 A 
ENDBRANCH  22  23
ENDBRANCH  21  22
ENDBRANCH   6  21
TORSDOF 5
ENDMDL
MODEL 5
REMARK VINA RESULT:      -8.6      4.554     10.476
REMARK  Name = 
REMARK  5 active torsions:
REMARK  status: ('A' for Active; 'I' for Inactive)
REMARK    1  A    between atoms: C_2  and  C_27
REMARK    2  A    between atoms: N_3  and  C_4
REMARK    3  A    between atoms: C_9  and  S_10
REMARK    4  A    between atoms: S_10  and  C_11
REMARK    5  A    between atoms: C_11  and  C_12
REMARK                            x       y       z     vdW  Elec       q    Type
REMARK                         _______ _______ _______ _____ _____    ______ ____
ROOT
ATOM      1  C   UNL     1       1.818   8.886  19.553  0.00  0.00    +0.000 A 
ATOM      2  C   UNL     1       2.059   8.689  18.193  0.00  0.00    +0.000 A 
ATOM      3  C   UNL     1       2.224   7.406  17.656  0.00  0.00    +0.000 A 
ATOM      4  C   UNL     1       2.143   6.286  18.495  0.00  0.00    +0.000 A 
ATOM      5  N   UNL     1       2.189   4.967  18.080  0.00  0.00    +0.000 NA
ATOM      6  C   UNL     1       2.129   4.181  19.129  0.00  0.00    +0.000 A 
ATOM      7  S   UNL     1       1.966   4.957  20.649  0.00  0.00    +0.000 S 
ATOM      8  C   UNL     1       1.983   6.494  19.867  0.00  0.00    +0.000 A 
ATOM      9  C   UNL     1       1.844   7.786  20.423  0.00  0.00    +0.000 A 
ENDROOT
BRANCH   1  12
ATOM     10  O   UNL     1      -0.799   9.939  20.281  0.00  0.00    +0.000 OA
ATOM     11  C   UNL     1       0.233  10.596  20.395  0.00  0.00    +0.000 C 
ATOM     12  N   UNL     1       1.518  10.167  20.085  0.00  0.00    +0.000 N 
ATOM     13  H   UNL     1       2.295  10.712  20.443  0.00  0.00    +0.000 HD
BRANCH  11  14
ATOM     14  C   UNL     1       0.081  11.949  20.987  0.00  0.00    +0.000 A 
ATOM     15  C   UNL     1       1.036  12.915  20.631  0.00  0.00    +0.000 A 
ATOM     16  C   UNL     1       1.039  14.165  21.243  0.00  0.00    +0.000 A 
ATOM     17  C   UNL     1       0.089  14.453  22.223  0.00  0.00    +0.000 A 
ATOM     18  C   UNL     1      -0.863  13.492  22.573  0.00  0.00    +0.000 A 
ATOM     19 CL   UNL     1      -2.004  13.848  23.809  0.00  0.00    +0.000 Cl
ATOM     20  C   UNL     1      -0.882  12.243  21.955  0.00  0.00    +0.000 A 
ENDBRANCH  11  14
ENDBRANCH   1  12
BRANCH   6  21
ATOM     21  S   UNL     1       2.175   2.436  18.974  0.00  0.00    +0.000 S 
BRANCH  21  22
ATOM     22  C   UNL     1       3.755   2.183  18.100  0.00  0.00    +0.000 C 
BRANCH  22  23
ATOM     23  C   UNL     1       4.836   3.180  18.533  0.00  0.00    +0.000 C 
ATOM     24  O   UNL     1       5.096   3.298  19.733  0.00  0.00    +0.000 OA
ATOM     25  N   UNL     1       5.431   3.985  17.539  0.00  0.00    +0.000 N 
ATOM     26  C   UNL     1       5.138   3.880  16.100  0.00  0.00    +0.000 C 
ATOM     27  C   UNL     1       4.747   5.222  15.514  0.00  0.00    +0.000 C 
ATOM     28  C   UNL     1       5.894   6.204  15.658  0.00  0.00    +0.000 C 
ATOM     29  C   UNL     1       6.579   6.112  16.998  0.00  0.00    +0.000 A 
ATOM     30  C   UNL     1       7.455   7.156  17.352  0.00  0.00    +0.000 A 
ATOM     31  C   UNL     1       8.129   7.143  18.569  0.00  0.00    +0.000 A 
ATOM     32  C   UNL     1       7.957   6.073  19.431  0.00  0.00    +0.000 A 
ATOM     33  C   UNL     1       7.099   5.026  19.085  0.00  0.00    +0.000 A 
ATOM     34  C   UNL     1       6.374   5.031  17.882  0.00  0.00    +0.000 A 
ENDBRANCH  22  23
ENDBRANCH  21  22
ENDBRANCH   6  21
TORSDOF 5
ENDMDL
MODEL 6
REMARK VINA RESULT:      -8.5      1.032      1.557
REMARK  Name = 
REMARK  5 active torsions:
REMARK  status: ('A' for Active; 'I' for Inactive)
REMARK    1  A    between atoms: C_2  and  C_27
REMARK    2  A    between atoms: N_3  and  C_4
REMARK    3  A    between atoms: C_9  and  S_10
REMARK    4  A    between atoms: S_10  and  C_11
REMARK    5  A    between atoms: C_11  and  C_12
REMARK                            x       y       z     vdW  Elec       q    Type
REMARK                         _______ _______ _______ _____ _____    ______ ____
ROOT
ATOM      1  C   UNL     1       4.065   5.524  17.413  0.00  0.00    +0.000 A 
ATOM      2  C   UNL     1       4.026   4.708  18.544  0.00  0.00    +0.000 A 
ATOM      3  C   UNL     1       3.345   5.094  19.705  0.00  0.00    +0.000 A 
ATOM      4  C   UNL     1       2.680   6.327  19.742  0.00  0.00    +0.000 A 
ATOM      5  N   UNL     1       1.893   6.785  20.784  0.00  0.00    +0.000 NA
ATOM      6  C   UNL     1       1.462   7.991  20.504  0.00  0.00    +0.000 A 
ATOM      7  S   UNL     1       1.922   8.626  18.979  0.00  0.00    +0.000 S 
ATOM      8  C   UNL     1       2.790   7.175  18.637  0.00  0.00    +0.000 A 
ATOM      9  C   UNL     1       3.499   6.806  17.471  0.00  0.00    +0.000 A 
ENDROOT
BRANCH   1  12
ATOM     10  O   UNL     1       6.703   6.161  16.355  0.00  0.00    +0.000 OA
ATOM     11  C   UNL     1       5.904   5.449  15.752  0.00  0.00    +0.000 C 
ATOM     12  N   UNL     1       4.636   5.087  16.190  0.00  0.00    +0.000 N 
ATOM     13  H   UNL     1       4.178   4.316  15.716  0.00  0.00    +0.000 HD
BRANCH  11  14
ATOM     14  C   UNL     1       6.382   4.875  14.470  0.00  0.00    +0.000 A 
ATOM     15  C   UNL     1       7.530   5.448  13.899  0.00  0.00    +0.000 A 
ATOM     16  C   UNL     1       7.964   5.053  12.637  0.00  0.00    +0.000 A 
ATOM     17  C   UNL     1       7.244   4.086  11.934  0.00  0.00    +0.000 A 
ATOM     18  C   UNL     1       6.106   3.514  12.505  0.00  0.00    +0.000 A 
ATOM     19 CL   UNL     1       5.208   2.350  11.611  0.00  0.00    +0.000 Cl
ATOM     20  C   UNL     1       5.672   3.894  13.775  0.00  0.00    +0.000 A 
ENDBRANCH  11  14
ENDBRANCH   1  12
BRANCH   6  21
ATOM     21  S   UNL     1       0.441   8.884  21.614  0.00  0.00    +0.000 S 
BRANCH  21  22
ATOM     22  C   UNL     1       0.055  10.378  20.641  0.00  0.00    +0.000 C 
BRANCH  22  23
ATOM     23  C   UNL     1      -0.946  11.299  21.346  0.00  0.00    +0.000 C 
ATOM     24  O   UNL     1      -0.903  11.403  22.575  0.00  0.00    +0.000 OA
ATOM     25  N   UNL     1      -1.934  11.929  20.560  0.00  0.00    +0.000 N 
ATOM     26  C   UNL     1      -2.023  11.819  19.094  0.00  0.00    +0.000 C 
ATOM     27  C   UNL     1      -3.404  11.373  18.654  0.00  0.00    +0.000 C 
ATOM     28  C   UNL     1      -4.439  12.396  19.082  0.00  0.00    +0.000 C 
ATOM     29  C   UNL     1      -4.200  12.923  20.474  0.00  0.00    +0.000 A 
ATOM     30  C   UNL     1      -5.244  13.647  21.081  0.00  0.00    +0.000 A 
ATOM     31  C   UNL     1      -5.102  14.171  22.362  0.00  0.00    +0.000 A 
ATOM     32  C   UNL     1      -3.904  14.001  23.038  0.00  0.00    +0.000 A 
ATOM     33  C   UNL     1      -2.858  13.294  22.440  0.00  0.00    +0.000 A 
ATOM     34  C   UNL     1      -2.987  12.719  21.165  0.00  0.00    +0.000 A 
ENDBRANCH  22  23
ENDBRANCH  21  22
ENDBRANCH   6  21
TORSDOF 5
ENDMDL
MODEL 7
REMARK VINA RESULT:      -8.4      1.419      2.493
REMARK  Name = 
REMARK  5 active torsions:
REMARK  status: ('A' for Active; 'I' for Inactive)
REMARK    1  A    between atoms: C_2  and  C_27
REMARK    2  A    between atoms: N_3  and  C_4
REMARK    3  A    between atoms: C_9  and  S_10
REMARK    4  A    between atoms: S_10  and  C_11
REMARK    5  A    between atoms: C_11  and  C_12
REMARK                            x       y       z     vdW  Elec       q    Type
REMARK                         _______ _______ _______ _____ _____    ______ ____
ROOT
ATOM      1  C   UNL     1       3.984   5.825  17.364  0.00  0.00    +0.000 A 
ATOM      2  C   UNL     1       3.956   5.062  18.533  0.00  0.00    +0.000 A 
ATOM      3  C   UNL     1       3.255   5.486  19.669  0.00  0.00    +0.000 A 
ATOM      4  C   UNL     1       2.560   6.703  19.642  0.00  0.00    +0.000 A 
ATOM      5  N   UNL     1       1.753   7.189  20.655  0.00  0.00    +0.000 NA
ATOM      6  C   UNL     1       1.294   8.370  20.315  0.00  0.00    +0.000 A 
ATOM      7  S   UNL     1       1.752   8.942  18.765  0.00  0.00    +0.000 S 
ATOM      8  C   UNL     1       2.659   7.499  18.498  0.00  0.00    +0.000 A 
ATOM      9  C   UNL     1       3.386   7.093  17.357  0.00  0.00    +0.000 A 
ENDROOT
BRANCH   1  12
ATOM     10  O   UNL     1       6.732   6.191  16.470  0.00  0.00    +0.000 OA
ATOM     11  C   UNL     1       5.899   5.575  15.809  0.00  0.00    +0.000 C 
ATOM     12  N   UNL     1       4.576   5.344  16.168  0.00  0.00    +0.000 N 
ATOM     13  H   UNL     1       4.068   4.632  15.655  0.00  0.00    +0.000 HD
BRANCH  11  14
ATOM     14  C   UNL     1       6.388   4.969  14.546  0.00  0.00    +0.000 A 
ATOM     15  C   UNL     1       7.543   5.525  13.973  0.00  0.00    +0.000 A 
ATOM     16  C   UNL     1       7.988   5.098  12.726  0.00  0.00    +0.000 A 
ATOM     17  C   UNL     1       7.273   4.117  12.039  0.00  0.00    +0.000 A 
ATOM     18  C   UNL     1       6.127   3.562  12.612  0.00  0.00    +0.000 A 
ATOM     19 CL   UNL     1       5.234   2.380  11.737  0.00  0.00    +0.000 Cl
ATOM     20  C   UNL     1       5.681   3.973  13.868  0.00  0.00    +0.000 A 
ENDBRANCH  11  14
ENDBRANCH   1  12
BRANCH   6  21
ATOM     21  S   UNL     1       0.242   9.288  21.373  0.00  0.00    +0.000 S 
BRANCH  21  22
ATOM     22  C   UNL     1       0.281  10.937  20.592  0.00  0.00    +0.000 C 
BRANCH  22  23
ATOM     23  C   UNL     1      -1.119  11.519  20.372  0.00  0.00    +0.000 C 
ATOM     24  O   UNL     1      -1.624  11.458  19.247  0.00  0.00    +0.000 OA
ATOM     25  N   UNL     1      -1.741  12.179  21.452  0.00  0.00    +0.000 N 
ATOM     26  C   UNL     1      -1.165  12.281  22.804  0.00  0.00    +0.000 C 
ATOM     27  C   UNL     1      -1.113  13.721  23.278  0.00  0.00    +0.000 C 
ATOM     28  C   UNL     1      -2.516  14.291  23.353  0.00  0.00    +0.000 C 
ATOM     29  C   UNL     1      -3.376  13.890  22.181  0.00  0.00    +0.000 A 
ATOM     30  C   UNL     1      -4.586  14.586  21.996  0.00  0.00    +0.000 A 
ATOM     31  C   UNL     1      -5.437  14.273  20.941  0.00  0.00    +0.000 A 
ATOM     32  C   UNL     1      -5.102  13.242  20.079  0.00  0.00    +0.000 A 
ATOM     33  C   UNL     1      -3.909  12.537  20.261  0.00  0.00    +0.000 A 
ATOM     34  C   UNL     1      -3.011  12.857  21.292  0.00  0.00    +0.000 A 
ENDBRANCH  22  23
ENDBRANCH  21  22
ENDBRANCH   6  21
TORSDOF 5
ENDMDL
MODEL 8
REMARK VINA RESULT:      -8.3      1.123      1.259
REMARK  Name = 
REMARK  5 active torsions:
REMARK  status: ('A' for Active; 'I' for Inactive)
REMARK    1  A    between atoms: C_2  and  C_27
REMARK    2  A    between atoms: N_3  and  C_4
REMARK    3  A    between atoms: C_9  and  S_10
REMARK    4  A    between atoms: S_10  and  C_11
REMARK    5  A    between atoms: C_11  and  C_12
REMARK                            x       y       z     vdW  Elec       q    Type
REMARK                         _______ _______ _______ _____ _____    ______ ____
ROOT
ATOM      1  C   UNL     1       4.304   6.456  17.277  0.00  0.00    +0.000 A 
ATOM      2  C   UNL     1       4.248   5.724  18.464  0.00  0.00    +0.000 A 
ATOM      3  C   UNL     1       3.414   6.105  19.522  0.00  0.00    +0.000 A 
ATOM      4  C   UNL     1       2.608   7.245  19.396  0.00  0.00    +0.000 A 
ATOM      5  N   UNL     1       1.672   7.674  20.321  0.00  0.00    +0.000 NA
ATOM      6  C   UNL     1       1.132   8.794  19.904  0.00  0.00    +0.000 A 
ATOM      7  S   UNL     1       1.665   9.370  18.379  0.00  0.00    +0.000 S 
ATOM      8  C   UNL     1       2.728   8.018  18.239  0.00  0.00    +0.000 A 
ATOM      9  C   UNL     1       3.588   7.659  17.177  0.00  0.00    +0.000 A 
ENDROOT
BRANCH   1  12
ATOM     10  O   UNL     1       4.440   3.752  16.205  0.00  0.00    +0.000 OA
ATOM     11  C   UNL     1       5.061   4.689  15.712  0.00  0.00    +0.000 C 
ATOM     12  N   UNL     1       5.041   6.008  16.152  0.00  0.00    +0.000 N 
ATOM     13  H   UNL     1       5.404   6.718  15.525  0.00  0.00    +0.000 HD
BRANCH  11  14
ATOM     14  C   UNL     1       5.845   4.381  14.490  0.00  0.00    +0.000 A 
ATOM     15  C   UNL     1       6.960   5.192  14.223  0.00  0.00    +0.000 A 
ATOM     16  C   UNL     1       7.668   5.050  13.033  0.00  0.00    +0.000 A 
ATOM     17  C   UNL     1       7.258   4.099  12.098  0.00  0.00    +0.000 A 
ATOM     18  C   UNL     1       6.152   3.291  12.368  0.00  0.00    +0.000 A 
ATOM     19 CL   UNL     1       5.636   2.148  11.190  0.00  0.00    +0.000 Cl
ATOM     20  C   UNL     1       5.446   3.416  13.563  0.00  0.00    +0.000 A 
ENDBRANCH  11  14
ENDBRANCH   1  12
BRANCH   6  21
ATOM     21  S   UNL     1      -0.092   9.629  20.838  0.00  0.00    +0.000 S 
BRANCH  21  22
ATOM     22  C   UNL     1      -0.425  11.086  19.792  0.00  0.00    +0.000 C 
BRANCH  22  23
ATOM     23  C   UNL     1      -1.766  11.753  20.119  0.00  0.00    +0.000 C 
ATOM     24  O   UNL     1      -1.988  12.117  21.277  0.00  0.00    +0.000 OA
ATOM     25  N   UNL     1      -2.727  11.846  19.091  0.00  0.00    +0.000 N 
ATOM     26  C   UNL     1      -2.502  11.412  17.701  0.00  0.00    +0.000 C 
ATOM     27  C   UNL     1      -3.584  10.457  17.236  0.00  0.00    +0.000 C 
ATOM     28  C   UNL     1      -4.933  11.149  17.266  0.00  0.00    +0.000 C 
ATOM     29  C   UNL     1      -5.126  12.001  18.495  0.00  0.00    +0.000 A 
ATOM     30  C   UNL     1      -6.431  12.452  18.773  0.00  0.00    +0.000 A 
ATOM     31  C   UNL     1      -6.692  13.247  19.884  0.00  0.00    +0.000 A 
ATOM     32  C   UNL     1      -5.647  13.623  20.713  0.00  0.00    +0.000 A 
ATOM     33  C   UNL     1      -4.347  13.191  20.439  0.00  0.00    +0.000 A 
ATOM     34  C   UNL     1      -4.059  12.355  19.348  0.00  0.00    +0.000 A 
ENDBRANCH  22  23
ENDBRANCH  21  22
ENDBRANCH   6  21
TORSDOF 5
ENDMDL
MODEL 9
REMARK VINA RESULT:      -8.3      4.018      6.082
REMARK  Name = 
REMARK  5 active torsions:
REMARK  status: ('A' for Active; 'I' for Inactive)
REMARK    1  A    between atoms: C_2  and  C_27
REMARK    2  A    between atoms: N_3  and  C_4
REMARK    3  A    between atoms: C_9  and  S_10
REMARK    4  A    between atoms: S_10  and  C_11
REMARK    5  A    between atoms: C_11  and  C_12
REMARK                            x       y       z     vdW  Elec       q    Type
REMARK                         _______ _______ _______ _____ _____    ______ ____
ROOT
ATOM      1  C   UNL     1       1.526   8.591  20.103  0.00  0.00    +0.000 A 
ATOM      2  C   UNL     1       1.336   8.597  21.485  0.00  0.00    +0.000 A 
ATOM      3  C   UNL     1       0.501   9.533  22.108  0.00  0.00    +0.000 A 
ATOM      4  C   UNL     1      -0.168  10.490  21.332  0.00  0.00    +0.000 A 
ATOM      5  N   UNL     1      -1.093  11.404  21.806  0.00  0.00    +0.000 NA
ATOM      6  C   UNL     1      -1.487  12.172  20.820  0.00  0.00    +0.000 A 
ATOM      7  S   UNL     1      -0.825  11.824  19.277  0.00  0.00    +0.000 S 
ATOM      8  C   UNL     1       0.088  10.531  19.960  0.00  0.00    +0.000 A 
ATOM      9  C   UNL     1       0.951   9.608  19.326  0.00  0.00    +0.000 A 
ENDROOT
BRANCH   1  12
ATOM     10  O   UNL     1       1.481   5.734  20.666  0.00  0.00    +0.000 OA
ATOM     11  C   UNL     1       2.190   6.223  19.790  0.00  0.00    +0.000 C 
ATOM     12  N   UNL     1       2.261   7.569  19.449  0.00  0.00    +0.000 N 
ATOM     13  H   UNL     1       2.698   7.807  18.566  0.00  0.00    +0.000 HD
BRANCH  11  14
ATOM     14  C   UNL     1       2.985   5.264  18.984  0.00  0.00    +0.000 A 
ATOM     15  C   UNL     1       3.696   5.783  17.890  0.00  0.00    +0.000 A 
ATOM     16  C   UNL     1       4.359   4.932  17.011  0.00  0.00    +0.000 A 
ATOM     17  C   UNL     1       4.307   3.553  17.217  0.00  0.00    +0.000 A 
ATOM     18  C   UNL     1       3.603   3.039  18.309  0.00  0.00    +0.000 A 
ATOM     19 CL   UNL     1       3.516   1.336  18.530  0.00  0.00    +0.000 Cl
ATOM     20  C   UNL     1       2.948   3.885  19.203  0.00  0.00    +0.000 A 
ENDBRANCH  11  14
ENDBRANCH   1  12
BRANCH   6  21
ATOM     21  S   UNL     1      -2.655  13.457  21.063  0.00  0.00    +0.000 S 
BRANCH  21  22
ATOM     22  C   UNL     1      -1.600  14.796  21.712  0.00  0.00    +0.000 C 
BRANCH  22  23
ATOM     23  C   UNL     1      -0.822  15.522  20.609  0.00  0.00    +0.000 C 
ATOM     24  O   UNL     1      -1.442  16.200  19.785  0.00  0.00    +0.000 OA
ATOM     25  N   UNL     1       0.571  15.313  20.533  0.00  0.00    +0.000 N 
ATOM     26  C   UNL     1       1.342  14.502  21.491  0.00  0.00    +0.000 C 
ATOM     27  C   UNL     1       2.172  13.448  20.784  0.00  0.00    +0.000 C 
ATOM     28  C   UNL     1       3.176  14.113  19.863  0.00  0.00    +0.000 C 
ATOM     29  C   UNL     1       2.594  15.279  19.105  0.00  0.00    +0.000 A 
ATOM     30  C   UNL     1       3.337  15.784  18.021  0.00  0.00    +0.000 A 
ATOM     31  C   UNL     1       2.871  16.862  17.274  0.00  0.00    +0.000 A 
ATOM     32  C   UNL     1       1.673  17.464  17.622  0.00  0.00    +0.000 A 
ATOM     33  C   UNL     1       0.934  16.978  18.704  0.00  0.00    +0.000 A 
ATOM     34  C   UNL     1       1.358  15.867  19.451  0.00  0.00    +0.000 A 
ENDBRANCH  22  23
ENDBRANCH  21  22
ENDBRANCH   6  21
TORSDOF 5
ENDMDL
