MODEL 1
REMARK VINA RESULT:      -9.3      0.000      0.000
REMARK  Name = 
REMARK  9 active torsions:
REMARK  status: ('A' for Active; 'I' for Inactive)
REMARK    1  A    between atoms: C_1  and  O_2
REMARK    2  A    between atoms: O_2  and  C_3
REMARK    3  A    between atoms: C_6  and  C_7
REMARK    4  A    between atoms: C_9  and  C_10
REMARK    5  A    between atoms: C_15  and  C_16
REMARK    6  A    between atoms: N_20  and  C_21
REMARK    7  A    between atoms: C_21  and  C_22
REMARK    8  A    between atoms: C_33  and  O_34
REMARK    9  A    between atoms: O_34  and  C_35
REMARK                            x       y       z     vdW  Elec       q    Type
REMARK                         _______ _______ _______ _____ _____    ______ ____
ROOT
ATOM      1  C   UNL     1       0.118  11.339  18.487  0.00  0.00    +0.000 C 
ATOM      2  C   UNL     1      -1.287  11.205  17.864  0.00  0.00    +0.000 C 
ATOM      3  C   UNL     1      -1.789   9.918  17.268  0.00  0.00    +0.000 C 
ATOM      4  C   UNL     1      -3.086   9.577  17.360  0.00  0.00    +0.000 C 
ATOM      5  C   UNL     1      -4.131  10.429  18.046  0.00  0.00    +0.000 C 
ATOM      6  C   UNL     1      -3.627  11.826  18.498  0.00  0.00    +0.000 C 
ATOM      7  C   UNL     1      -4.590  12.425  19.519  0.00  0.00    +0.000 C 
ATOM      8  C   UNL     1      -2.206  11.646  19.020  0.00  0.00    +0.000 C 
ATOM      9  C   UNL     1      -1.409  12.784  19.615  0.00  0.00    +0.000 C 
ATOM     10  O   UNL     1      -1.841  13.697  20.296  0.00  0.00    +0.000 OA
ATOM     11  N   UNL     1      -0.065  12.484  19.383  0.00  0.00    +0.000 N 
ENDROOT
BRANCH   1  14
ATOM     12  C   UNL     1       1.945   7.990  19.097  0.00  0.00    +0.000 A 
ATOM     13  C   UNL     1       1.496   9.187  18.510  0.00  0.00    +0.000 A 
ATOM     14  C   UNL     1       0.621  10.076  19.163  0.00  0.00    +0.000 A 
ATOM     15  C   UNL     1       0.233   9.773  20.473  0.00  0.00    +0.000 A 
ATOM     16  C   UNL     1       0.704   8.625  21.103  0.00  0.00    +0.000 A 
ATOM     17  C   UNL     1       1.541   7.745  20.418  0.00  0.00    +0.000 A 
ATOM     18  F   UNL     1       1.934   6.634  21.060  0.00  0.00    +0.000 F 
BRANCH  12  22
ATOM     19  C   UNL     1       4.304   5.078  16.954  0.00  0.00    +0.000 A 
ATOM     20  C   UNL     1       4.665   6.434  16.943  0.00  0.00    +0.000 A 
ATOM     21  C   UNL     1       3.901   7.393  17.618  0.00  0.00    +0.000 A 
ATOM     22  C   UNL     1       2.738   7.030  18.302  0.00  0.00    +0.000 A 
ATOM     23  C   UNL     1       2.350   5.678  18.224  0.00  0.00    +0.000 A 
ATOM     24  C   UNL     1       3.099   4.703  17.550  0.00  0.00    +0.000 A 
BRANCH  19  26
ATOM     25  C   UNL     1       6.502   4.432  16.398  0.00  0.00    +0.000 C 
ATOM     26  O   UNL     1       5.105   4.135  16.373  0.00  0.00    +0.000 OA
ENDBRANCH  19  26
BRANCH  24  27
ATOM     27  O   UNL     1       2.506   3.473  17.625  0.00  0.00    +0.000 OA
ATOM     28  C   UNL     1       1.365   3.304  18.447  0.00  0.00    +0.000 C 
ENDBRANCH  24  27
ENDBRANCH  12  22
ENDBRANCH   1  14
BRANCH  11  29
ATOM     29  C   UNL     1       1.022  13.149  20.080  0.00  0.00    +0.000 C 
BRANCH  29  30
ATOM     30  C   UNL     1       1.798  14.125  19.235  0.00  0.00    +0.000 A 
ATOM     31  C   UNL     1       1.332  15.438  19.058  0.00  0.00    +0.000 A 
ATOM     32  C   UNL     1       2.095  16.374  18.358  0.00  0.00    +0.000 A 
ATOM     33  C   UNL     1       3.323  16.003  17.814  0.00  0.00    +0.000 A 
ATOM     34  C   UNL     1       3.782  14.695  17.959  0.00  0.00    +0.000 A 
ATOM     35  C   UNL     1       3.023  13.757  18.664  0.00  0.00    +0.000 A 
ENDBRANCH  29  30
ENDBRANCH  11  29
TORSDOF 6
ENDMDL
MODEL 2
REMARK VINA RESULT:      -9.0      0.833      1.743
REMARK  Name = 
REMARK  9 active torsions:
REMARK  status: ('A' for Active; 'I' for Inactive)
REMARK    1  A    between atoms: C_1  and  O_2
REMARK    2  A    between atoms: O_2  and  C_3
REMARK    3  A    between atoms: C_6  and  C_7
REMARK    4  A    between atoms: C_9  and  C_10
REMARK    5  A    between atoms: C_15  and  C_16
REMARK    6  A    between atoms: N_20  and  C_21
REMARK    7  A    between atoms: C_21  and  C_22
REMARK    8  A    between atoms: C_33  and  O_34
REMARK    9  A    between atoms: O_34  and  C_35
REMARK                            x       y       z     vdW  Elec       q    Type
REMARK                         _______ _______ _______ _____ _____    ______ ____
ROOT
ATOM      1  C   UNL     1       0.251  11.156  18.426  0.00  0.00    +0.000 C 
ATOM      2  C   UNL     1      -1.168  11.066  17.827  0.00  0.00    +0.000 C 
ATOM      3  C   UNL     1      -1.734   9.786  17.276  0.00  0.00    +0.000 C 
ATOM      4  C   UNL     1      -3.043   9.504  17.397  0.00  0.00    +0.000 C 
ATOM      5  C   UNL     1      -4.040  10.420  18.072  0.00  0.00    +0.000 C 
ATOM      6  C   UNL     1      -3.469  11.806  18.477  0.00  0.00    +0.000 C 
ATOM      7  C   UNL     1      -4.389  12.475  19.493  0.00  0.00    +0.000 C 
ATOM      8  C   UNL     1      -2.049  11.579  18.983  0.00  0.00    +0.000 C 
ATOM      9  C   UNL     1      -1.195  12.697  19.534  0.00  0.00    +0.000 C 
ATOM     10  O   UNL     1      -1.577  13.647  20.194  0.00  0.00    +0.000 OA
ATOM     11  N   UNL     1       0.131  12.333  19.292  0.00  0.00    +0.000 N 
ENDROOT
BRANCH   1  14
ATOM     12  C   UNL     1       2.054   7.818  19.157  0.00  0.00    +0.000 A 
ATOM     13  C   UNL     1       1.643   9.017  18.545  0.00  0.00    +0.000 A 
ATOM     14  C   UNL     1       0.709   9.892  19.131  0.00  0.00    +0.000 A 
ATOM     15  C   UNL     1       0.219   9.575  20.403  0.00  0.00    +0.000 A 
ATOM     16  C   UNL     1       0.649   8.425  21.061  0.00  0.00    +0.000 A 
ATOM     17  C   UNL     1       1.547   7.559  20.439  0.00  0.00    +0.000 A 
ATOM     18  F   UNL     1       1.897   6.446  21.102  0.00  0.00    +0.000 F 
BRANCH  12  22
ATOM     19  C   UNL     1       4.553   5.174  16.834  0.00  0.00    +0.000 A 
ATOM     20  C   UNL     1       3.378   4.697  17.435  0.00  0.00    +0.000 A 
ATOM     21  C   UNL     1       2.566   5.537  18.205  0.00  0.00    +0.000 A 
ATOM     22  C   UNL     1       2.918   6.872  18.422  0.00  0.00    +0.000 A 
ATOM     23  C   UNL     1       4.146   7.302  17.882  0.00  0.00    +0.000 A 
ATOM     24  C   UNL     1       4.975   6.475  17.111  0.00  0.00    +0.000 A 
BRANCH  19  26
ATOM     25  C   UNL     1       5.293   4.769  14.633  0.00  0.00    +0.000 C 
ATOM     26  O   UNL     1       5.291   4.374  16.006  0.00  0.00    +0.000 OA
ENDBRANCH  19  26
BRANCH  24  27
ATOM     27  O   UNL     1       6.105   7.132  16.707  0.00  0.00    +0.000 OA
ATOM     28  C   UNL     1       7.313   6.933  17.420  0.00  0.00    +0.000 C 
ENDBRANCH  24  27
ENDBRANCH  12  22
ENDBRANCH   1  14
BRANCH  11  29
ATOM     29  C   UNL     1       1.257  12.970  19.953  0.00  0.00    +0.000 C 
BRANCH  29  30
ATOM     30  C   UNL     1       1.905  14.070  19.157  0.00  0.00    +0.000 A 
ATOM     31  C   UNL     1       1.425  15.387  19.243  0.00  0.00    +0.000 A 
ATOM     32  C   UNL     1       2.083  16.427  18.584  0.00  0.00    +0.000 A 
ATOM     33  C   UNL     1       3.217  16.160  17.819  0.00  0.00    +0.000 A 
ATOM     34  C   UNL     1       3.685  14.852  17.704  0.00  0.00    +0.000 A 
ATOM     35  C   UNL     1       3.032  13.809  18.367  0.00  0.00    +0.000 A 
ENDBRANCH  29  30
ENDBRANCH  11  29
TORSDOF 6
ENDMDL
MODEL 3
REMARK VINA RESULT:      -8.3      3.837      7.059
REMARK  Name = 
REMARK  9 active torsions:
REMARK  status: ('A' for Active; 'I' for Inactive)
REMARK    1  A    between atoms: C_1  and  O_2
REMARK    2  A    between atoms: O_2  and  C_3
REMARK    3  A    between atoms: C_6  and  C_7
REMARK    4  A    between atoms: C_9  and  C_10
REMARK    5  A    between atoms: C_15  and  C_16
REMARK    6  A    between atoms: N_20  and  C_21
REMARK    7  A    between atoms: C_21  and  C_22
REMARK    8  A    between atoms: C_33  and  O_34
REMARK    9  A    between atoms: O_34  and  C_35
REMARK                            x       y       z     vdW  Elec       q    Type
REMARK                         _______ _______ _______ _____ _____    ______ ____
ROOT
ATOM      1  C   UNL     1       2.610   5.841  17.927  0.00  0.00    +0.000 C 
ATOM      2  C   UNL     1       1.898   4.488  18.134  0.00  0.00    +0.000 C 
ATOM      3  C   UNL     1       2.288   3.245  17.382  0.00  0.00    +0.000 C 
ATOM      4  C   UNL     1       2.212   2.036  17.965  0.00  0.00    +0.000 C 
ATOM      5  C   UNL     1       1.740   1.817  19.386  0.00  0.00    +0.000 C 
ATOM      6  C   UNL     1       1.181   3.088  20.081  0.00  0.00    +0.000 C 
ATOM      7  C   UNL     1       1.127   2.877  21.591  0.00  0.00    +0.000 C 
ATOM      8  C   UNL     1       2.056   4.259  19.651  0.00  0.00    +0.000 C 
ATOM      9  C   UNL     1       1.859   5.660  20.184  0.00  0.00    +0.000 C 
ATOM     10  O   UNL     1       1.518   5.967  21.313  0.00  0.00    +0.000 OA
ATOM     11  N   UNL     1       2.315   6.526  19.188  0.00  0.00    +0.000 N 
ENDROOT
BRANCH   1  14
ATOM     12  C   UNL     1       5.894   5.295  15.966  0.00  0.00    +0.000 A 
ATOM     13  C   UNL     1       4.534   5.452  16.291  0.00  0.00    +0.000 A 
ATOM     14  C   UNL     1       4.087   5.722  17.598  0.00  0.00    +0.000 A 
ATOM     15  C   UNL     1       5.051   5.898  18.598  0.00  0.00    +0.000 A 
ATOM     16  C   UNL     1       6.407   5.806  18.299  0.00  0.00    +0.000 A 
ATOM     17  C   UNL     1       6.817   5.501  17.002  0.00  0.00    +0.000 A 
ATOM     18  F   UNL     1       8.136   5.386  16.778  0.00  0.00    +0.000 F 
BRANCH  12  22
ATOM     19  C   UNL     1       7.038   3.828  12.071  0.00  0.00    +0.000 A 
ATOM     20  C   UNL     1       7.854   4.742  12.755  0.00  0.00    +0.000 A 
ATOM     21  C   UNL     1       7.489   5.240  14.010  0.00  0.00    +0.000 A 
ATOM     22  C   UNL     1       6.284   4.862  14.608  0.00  0.00    +0.000 A 
ATOM     23  C   UNL     1       5.442   4.013  13.863  0.00  0.00    +0.000 A 
ATOM     24  C   UNL     1       5.788   3.506  12.602  0.00  0.00    +0.000 A 
BRANCH  19  26
ATOM     25  C   UNL     1       7.527   1.848  10.890  0.00  0.00    +0.000 C 
ATOM     26  O   UNL     1       7.444   3.273  10.889  0.00  0.00    +0.000 OA
ENDBRANCH  19  26
BRANCH  24  27
ATOM     27  O   UNL     1       4.800   2.709  12.094  0.00  0.00    +0.000 OA
ATOM     28  C   UNL     1       3.924   3.233  11.112  0.00  0.00    +0.000 C 
ENDBRANCH  24  27
ENDBRANCH  12  22
ENDBRANCH   1  14
BRANCH  11  29
ATOM     29  C   UNL     1       2.602   7.928  19.435  0.00  0.00    +0.000 C 
BRANCH  29  30
ATOM     30  C   UNL     1       1.411   8.840  19.309  0.00  0.00    +0.000 A 
ATOM     31  C   UNL     1       0.955   9.240  18.043  0.00  0.00    +0.000 A 
ATOM     32  C   UNL     1      -0.206  10.005  17.916  0.00  0.00    +0.000 A 
ATOM     33  C   UNL     1      -0.914  10.390  19.053  0.00  0.00    +0.000 A 
ATOM     34  C   UNL     1      -0.454  10.021  20.316  0.00  0.00    +0.000 A 
ATOM     35  C   UNL     1       0.705   9.252  20.446  0.00  0.00    +0.000 A 
ENDBRANCH  29  30
ENDBRANCH  11  29
TORSDOF 6
ENDMDL
MODEL 4
REMARK VINA RESULT:      -8.1      1.242      1.780
REMARK  Name = 
REMARK  9 active torsions:
REMARK  status: ('A' for Active; 'I' for Inactive)
REMARK    1  A    between atoms: C_1  and  O_2
REMARK    2  A    between atoms: O_2  and  C_3
REMARK    3  A    between atoms: C_6  and  C_7
REMARK    4  A    between atoms: C_9  and  C_10
REMARK    5  A    between atoms: C_15  and  C_16
REMARK    6  A    between atoms: N_20  and  C_21
REMARK    7  A    between atoms: C_21  and  C_22
REMARK    8  A    between atoms: C_33  and  O_34
REMARK    9  A    between atoms: O_34  and  C_35
REMARK                            x       y       z     vdW  Elec       q    Type
REMARK                         _______ _______ _______ _____ _____    ______ ____
ROOT
ATOM      1  C   UNL     1       0.715  10.850  18.792  0.00  0.00    +0.000 C 
ATOM      2  C   UNL     1      -0.664  10.921  18.105  0.00  0.00    +0.000 C 
ATOM      3  C   UNL     1      -1.332   9.715  17.503  0.00  0.00    +0.000 C 
ATOM      4  C   UNL     1      -2.669   9.578  17.539  0.00  0.00    +0.000 C 
ATOM      5  C   UNL     1      -3.600  10.594  18.164  0.00  0.00    +0.000 C 
ATOM      6  C   UNL     1      -2.907  11.906  18.622  0.00  0.00    +0.000 C 
ATOM      7  C   UNL     1      -3.811  12.665  19.588  0.00  0.00    +0.000 C 
ATOM      8  C   UNL     1      -1.556  11.520  19.211  0.00  0.00    +0.000 C 
ATOM      9  C   UNL     1      -0.620  12.534  19.829  0.00  0.00    +0.000 C 
ATOM     10  O   UNL     1      -0.936  13.516  20.477  0.00  0.00    +0.000 OA
ATOM     11  N   UNL     1       0.671  12.027  19.664  0.00  0.00    +0.000 N 
ENDROOT
BRANCH   1  14
ATOM     12  C   UNL     1       2.115   7.341  19.602  0.00  0.00    +0.000 A 
ATOM     13  C   UNL     1       1.876   8.582  18.982  0.00  0.00    +0.000 A 
ATOM     14  C   UNL     1       0.987   9.539  19.507  0.00  0.00    +0.000 A 
ATOM     15  C   UNL     1       0.364   9.257  20.728  0.00  0.00    +0.000 A 
ATOM     16  C   UNL     1       0.622   8.063  21.395  0.00  0.00    +0.000 A 
ATOM     17  C   UNL     1       1.480   7.118  20.832  0.00  0.00    +0.000 A 
ATOM     18  F   UNL     1       1.662   5.969  21.500  0.00  0.00    +0.000 F 
BRANCH  12  22
ATOM     19  C   UNL     1       4.665   4.519  17.561  0.00  0.00    +0.000 A 
ATOM     20  C   UNL     1       3.339   4.712  17.143  0.00  0.00    +0.000 A 
ATOM     21  C   UNL     1       2.495   5.609  17.805  0.00  0.00    +0.000 A 
ATOM     22  C   UNL     1       2.940   6.322  18.921  0.00  0.00    +0.000 A 
ATOM     23  C   UNL     1       4.245   6.046  19.373  0.00  0.00    +0.000 A 
ATOM     24  C   UNL     1       5.105   5.147  18.726  0.00  0.00    +0.000 A 
BRANCH  19  26
ATOM     25  C   UNL     1       5.751   4.122  15.507  0.00  0.00    +0.000 C 
ATOM     26  O   UNL     1       5.513   3.712  16.854  0.00  0.00    +0.000 OA
ENDBRANCH  19  26
BRANCH  24  27
ATOM     27  O   UNL     1       6.312   5.060  19.364  0.00  0.00    +0.000 OA
ATOM     28  C   UNL     1       7.418   5.785  18.856  0.00  0.00    +0.000 C 
ENDBRANCH  24  27
ENDBRANCH  12  22
ENDBRANCH   1  14
BRANCH  11  29
ATOM     29  C   UNL     1       1.815  12.532  20.403  0.00  0.00    +0.000 C 
BRANCH  29  30
ATOM     30  C   UNL     1       2.454  13.756  19.802  0.00  0.00    +0.000 A 
ATOM     31  C   UNL     1       2.799  14.848  20.614  0.00  0.00    +0.000 A 
ATOM     32  C   UNL     1       3.479  15.943  20.079  0.00  0.00    +0.000 A 
ATOM     33  C   UNL     1       3.806  15.966  18.725  0.00  0.00    +0.000 A 
ATOM     34  C   UNL     1       3.443  14.899  17.904  0.00  0.00    +0.000 A 
ATOM     35  C   UNL     1       2.767  13.799  18.437  0.00  0.00    +0.000 A 
ENDBRANCH  29  30
ENDBRANCH  11  29
TORSDOF 6
ENDMDL
MODEL 5
REMARK VINA RESULT:      -8.0      3.171      8.656
REMARK  Name = 
REMARK  9 active torsions:
REMARK  status: ('A' for Active; 'I' for Inactive)
REMARK    1  A    between atoms: C_1  and  O_2
REMARK    2  A    between atoms: O_2  and  C_3
REMARK    3  A    between atoms: C_6  and  C_7
REMARK    4  A    between atoms: C_9  and  C_10
REMARK    5  A    between atoms: C_15  and  C_16
REMARK    6  A    between atoms: N_20  and  C_21
REMARK    7  A    between atoms: C_21  and  C_22
REMARK    8  A    between atoms: C_33  and  O_34
REMARK    9  A    between atoms: O_34  and  C_35
REMARK                            x       y       z     vdW  Elec       q    Type
REMARK                         _______ _______ _______ _____ _____    ______ ____
ROOT
ATOM      1  C   UNL     1       3.996   5.670  19.120  0.00  0.00    +0.000 C 
ATOM      2  C   UNL     1       3.246   4.599  19.938  0.00  0.00    +0.000 C 
ATOM      3  C   UNL     1       2.170   4.946  20.931  0.00  0.00    +0.000 C 
ATOM      4  C   UNL     1       1.113   4.135  21.113  0.00  0.00    +0.000 C 
ATOM      5  C   UNL     1       0.914   2.835  20.364  0.00  0.00    +0.000 C 
ATOM      6  C   UNL     1       2.117   2.413  19.476  0.00  0.00    +0.000 C 
ATOM      7  C   UNL     1       1.677   1.356  18.469  0.00  0.00    +0.000 C 
ATOM      8  C   UNL     1       2.674   3.681  18.840  0.00  0.00    +0.000 C 
ATOM      9  C   UNL     1       3.815   3.658  17.849  0.00  0.00    +0.000 C 
ATOM     10  O   UNL     1       4.030   2.806  17.005  0.00  0.00    +0.000 OA
ATOM     11  N   UNL     1       4.466   4.888  17.973  0.00  0.00    +0.000 N 
ENDROOT
BRANCH   1  14
ATOM     12  C   UNL     1       1.633   8.710  19.433  0.00  0.00    +0.000 A 
ATOM     13  C   UNL     1       2.453   7.609  19.742  0.00  0.00    +0.000 A 
ATOM     14  C   UNL     1       3.154   6.881  18.762  0.00  0.00    +0.000 A 
ATOM     15  C   UNL     1       3.070   7.317  17.434  0.00  0.00    +0.000 A 
ATOM     16  C   UNL     1       2.313   8.437  17.103  0.00  0.00    +0.000 A 
ATOM     17  C   UNL     1       1.600   9.116  18.091  0.00  0.00    +0.000 A 
ATOM     18  F   UNL     1       0.855  10.165  17.710  0.00  0.00    +0.000 F 
BRANCH  12  22
ATOM     19  C   UNL     1      -0.607  10.626  22.587  0.00  0.00    +0.000 A 
ATOM     20  C   UNL     1      -0.556   9.226  22.499  0.00  0.00    +0.000 A 
ATOM     21  C   UNL     1       0.151   8.590  21.474  0.00  0.00    +0.000 A 
ATOM     22  C   UNL     1       0.806   9.333  20.488  0.00  0.00    +0.000 A 
ATOM     23  C   UNL     1       0.666  10.733  20.548  0.00  0.00    +0.000 A 
ATOM     24  C   UNL     1      -0.041  11.389  21.565  0.00  0.00    +0.000 A 
BRANCH  19  26
ATOM     25  C   UNL     1      -2.484  11.833  23.346  0.00  0.00    +0.000 C 
ATOM     26  O   UNL     1      -1.219  11.241  23.644  0.00  0.00    +0.000 OA
ENDBRANCH  19  26
BRANCH  24  27
ATOM     27  O   UNL     1      -0.025  12.746  21.393  0.00  0.00    +0.000 OA
ATOM     28  C   UNL     1      -0.181  13.280  20.090  0.00  0.00    +0.000 C 
ENDBRANCH  24  27
ENDBRANCH  12  22
ENDBRANCH   1  14
BRANCH  11  29
ATOM     29  C   UNL     1       5.399   5.388  16.979  0.00  0.00    +0.000 C 
BRANCH  29  30
ATOM     30  C   UNL     1       6.524   6.215  17.542  0.00  0.00    +0.000 A 
ATOM     31  C   UNL     1       6.748   7.520  17.075  0.00  0.00    +0.000 A 
ATOM     32  C   UNL     1       7.726   8.326  17.661  0.00  0.00    +0.000 A 
ATOM     33  C   UNL     1       8.501   7.830  18.708  0.00  0.00    +0.000 A 
ATOM     34  C   UNL     1       8.306   6.526  19.160  0.00  0.00    +0.000 A 
ATOM     35  C   UNL     1       7.324   5.719  18.579  0.00  0.00    +0.000 A 
ENDBRANCH  29  30
ENDBRANCH  11  29
TORSDOF 6
ENDMDL
MODEL 6
REMARK VINA RESULT:      -7.9      1.233      1.578
REMARK  Name = 
REMARK  9 active torsions:
REMARK  status: ('A' for Active; 'I' for Inactive)
REMARK    1  A    between atoms: C_1  and  O_2
REMARK    2  A    between atoms: O_2  and  C_3
REMARK    3  A    between atoms: C_6  and  C_7
REMARK    4  A    between atoms: C_9  and  C_10
REMARK    5  A    between atoms: C_15  and  C_16
REMARK    6  A    between atoms: N_20  and  C_21
REMARK    7  A    between atoms: C_21  and  C_22
REMARK    8  A    between atoms: C_33  and  O_34
REMARK    9  A    between atoms: O_34  and  C_35
REMARK                            x       y       z     vdW  Elec       q    Type
REMARK                         _______ _______ _______ _____ _____    ______ ____
ROOT
ATOM      1  C   UNL     1      -0.689  12.001  19.156  0.00  0.00    +0.000 C 
ATOM      2  C   UNL     1      -1.917  11.660  18.287  0.00  0.00    +0.000 C 
ATOM      3  C   UNL     1      -2.072  10.336  17.589  0.00  0.00    +0.000 C 
ATOM      4  C   UNL     1      -3.284   9.774  17.440  0.00  0.00    +0.000 C 
ATOM      5  C   UNL     1      -4.567  10.402  17.938  0.00  0.00    +0.000 C 
ATOM      6  C   UNL     1      -4.404  11.842  18.497  0.00  0.00    +0.000 C 
ATOM      7  C   UNL     1      -5.622  12.218  19.336  0.00  0.00    +0.000 C 
ATOM      8  C   UNL     1      -3.088  11.881  19.264  0.00  0.00    +0.000 C 
ATOM      9  C   UNL     1      -2.621  13.109  20.012  0.00  0.00    +0.000 C 
ATOM     10  O   UNL     1      -3.320  13.902  20.619  0.00  0.00    +0.000 OA
ATOM     11  N   UNL     1      -1.226  13.054  20.023  0.00  0.00    +0.000 N 
ENDROOT
BRANCH   1  14
ATOM     12  C   UNL     1       1.360   8.816  19.919  0.00  0.00    +0.000 A 
ATOM     13  C   UNL     1       0.828   9.949  19.276  0.00  0.00    +0.000 A 
ATOM     14  C   UNL     1      -0.098  10.812  19.891  0.00  0.00    +0.000 A 
ATOM     15  C   UNL     1      -0.454  10.554  21.220  0.00  0.00    +0.000 A 
ATOM     16  C   UNL     1       0.098   9.474  21.904  0.00  0.00    +0.000 A 
ATOM     17  C   UNL     1       0.985   8.616  21.256  0.00  0.00    +0.000 A 
ATOM     18  F   UNL     1       1.456   7.568  21.951  0.00  0.00    +0.000 F 
BRANCH  12  22
ATOM     19  C   UNL     1       3.977   6.055  17.879  0.00  0.00    +0.000 A 
ATOM     20  C   UNL     1       3.657   7.292  17.300  0.00  0.00    +0.000 A 
ATOM     21  C   UNL     1       2.797   8.191  17.940  0.00  0.00    +0.000 A 
ATOM     22  C   UNL     1       2.208   7.869  19.166  0.00  0.00    +0.000 A 
ATOM     23  C   UNL     1       2.475   6.586  19.683  0.00  0.00    +0.000 A 
ATOM     24  C   UNL     1       3.331   5.671  19.055  0.00  0.00    +0.000 A 
BRANCH  19  26
ATOM     25  C   UNL     1       6.240   5.411  17.727  0.00  0.00    +0.000 C 
ATOM     26  O   UNL     1       4.891   5.222  17.295  0.00  0.00    +0.000 OA
ENDBRANCH  19  26
BRANCH  24  27
ATOM     27  O   UNL     1       3.420   4.502  19.760  0.00  0.00    +0.000 OA
ATOM     28  C   UNL     1       2.760   3.348  19.274  0.00  0.00    +0.000 C 
ENDBRANCH  24  27
ENDBRANCH  12  22
ENDBRANCH   1  14
BRANCH  11  29
ATOM     29  C   UNL     1      -0.412  13.861  20.916  0.00  0.00    +0.000 C 
BRANCH  29  30
ATOM     30  C   UNL     1       0.922  14.266  20.347  0.00  0.00    +0.000 A 
ATOM     31  C   UNL     1       2.109  13.732  20.874  0.00  0.00    +0.000 A 
ATOM     32  C   UNL     1       3.341  14.027  20.288  0.00  0.00    +0.000 A 
ATOM     33  C   UNL     1       3.401  14.871  19.181  0.00  0.00    +0.000 A 
ATOM     34  C   UNL     1       2.231  15.429  18.668  0.00  0.00    +0.000 A 
ATOM     35  C   UNL     1       0.996  15.131  19.249  0.00  0.00    +0.000 A 
ENDBRANCH  29  30
ENDBRANCH  11  29
TORSDOF 6
ENDMDL
MODEL 7
REMARK VINA RESULT:      -7.9      3.061      8.998
REMARK  Name = 
REMARK  9 active torsions:
REMARK  status: ('A' for Active; 'I' for Inactive)
REMARK    1  A    between atoms: C_1  and  O_2
REMARK    2  A    between atoms: O_2  and  C_3
REMARK    3  A    between atoms: C_6  and  C_7
REMARK    4  A    between atoms: C_9  and  C_10
REMARK    5  A    between atoms: C_15  and  C_16
REMARK    6  A    between atoms: N_20  and  C_21
REMARK    7  A    between atoms: C_21  and  C_22
REMARK    8  A    between atoms: C_33  and  O_34
REMARK    9  A    between atoms: O_34  and  C_35
REMARK                            x       y       z     vdW  Elec       q    Type
REMARK                         _______ _______ _______ _____ _____    ______ ____
ROOT
ATOM      1  C   UNL     1       3.610   5.823  19.889  0.00  0.00    +0.000 C 
ATOM      2  C   UNL     1       2.787   4.563  20.230  0.00  0.00    +0.000 C 
ATOM      3  C   UNL     1       1.388   4.634  20.779  0.00  0.00    +0.000 C 
ATOM      4  C   UNL     1       0.472   3.706  20.451  0.00  0.00    +0.000 C 
ATOM      5  C   UNL     1       0.752   2.538  19.532  0.00  0.00    +0.000 C 
ATOM      6  C   UNL     1       2.242   2.388  19.118  0.00  0.00    +0.000 C 
ATOM      7  C   UNL     1       2.357   1.477  17.900  0.00  0.00    +0.000 C 
ATOM      8  C   UNL     1       2.792   3.792  18.896  0.00  0.00    +0.000 C 
ATOM      9  C   UNL     1       4.201   4.044  18.413  0.00  0.00    +0.000 C 
ATOM     10  O   UNL     1       4.830   3.370  17.615  0.00  0.00    +0.000 OA
ATOM     11  N   UNL     1       4.571   5.292  18.918  0.00  0.00    +0.000 N 
ENDROOT
BRANCH   1  14
ATOM     12  C   UNL     1       1.278   8.902  19.837  0.00  0.00    +0.000 A 
ATOM     13  C   UNL     1       2.088   7.839  20.274  0.00  0.00    +0.000 A 
ATOM     14  C   UNL     1       2.779   6.990  19.389  0.00  0.00    +0.000 A 
ATOM     15  C   UNL     1       2.696   7.264  18.018  0.00  0.00    +0.000 A 
ATOM     16  C   UNL     1       1.949   8.343  17.555  0.00  0.00    +0.000 A 
ATOM     17  C   UNL     1       1.246   9.143  18.455  0.00  0.00    +0.000 A 
ATOM     18  F   UNL     1       0.510  10.147  17.951  0.00  0.00    +0.000 F 
BRANCH  12  22
ATOM     19  C   UNL     1      -0.965  11.260  22.673  0.00  0.00    +0.000 A 
ATOM     20  C   UNL     1      -0.503   9.981  23.018  0.00  0.00    +0.000 A 
ATOM     21  C   UNL     1       0.210   9.197  22.105  0.00  0.00    +0.000 A 
ATOM     22  C   UNL     1       0.460   9.656  20.809  0.00  0.00    +0.000 A 
ATOM     23  C   UNL     1      -0.090  10.905  20.459  0.00  0.00    +0.000 A 
ATOM     24  C   UNL     1      -0.811  11.704  21.358  0.00  0.00    +0.000 A 
BRANCH  19  26
ATOM     25  C   UNL     1      -3.002  12.106  23.504  0.00  0.00    +0.000 C 
ATOM     26  O   UNL     1      -1.578  12.058  23.599  0.00  0.00    +0.000 OA
ENDBRANCH  19  26
BRANCH  24  27
ATOM     27  O   UNL     1      -1.234  12.864  20.771  0.00  0.00    +0.000 OA
ATOM     28  C   UNL     1      -0.702  13.238  19.513  0.00  0.00    +0.000 C 
ENDBRANCH  24  27
ENDBRANCH  12  22
ENDBRANCH   1  14
BRANCH  11  29
ATOM     29  C   UNL     1       5.711   6.039  18.416  0.00  0.00    +0.000 C 
BRANCH  29  30
ATOM     30  C   UNL     1       6.058   5.755  16.979  0.00  0.00    +0.000 A 
ATOM     31  C   UNL     1       7.223   5.040  16.658  0.00  0.00    +0.000 A 
ATOM     32  C   UNL     1       7.499   4.689  15.336  0.00  0.00    +0.000 A 
ATOM     33  C   UNL     1       6.622   5.062  14.319  0.00  0.00    +0.000 A 
ATOM     34  C   UNL     1       5.477   5.796  14.624  0.00  0.00    +0.000 A 
ATOM     35  C   UNL     1       5.195   6.145  15.947  0.00  0.00    +0.000 A 
ENDBRANCH  29  30
ENDBRANCH  11  29
TORSDOF 6
ENDMDL
MODEL 8
REMARK VINA RESULT:      -7.8      2.423      9.482
REMARK  Name = 
REMARK  9 active torsions:
REMARK  status: ('A' for Active; 'I' for Inactive)
REMARK    1  A    between atoms: C_1  and  O_2
REMARK    2  A    between atoms: O_2  and  C_3
REMARK    3  A    between atoms: C_6  and  C_7
REMARK    4  A    between atoms: C_9  and  C_10
REMARK    5  A    between atoms: C_15  and  C_16
REMARK    6  A    between atoms: N_20  and  C_21
REMARK    7  A    between atoms: C_21  and  C_22
REMARK    8  A    between atoms: C_33  and  O_34
REMARK    9  A    between atoms: O_34  and  C_35
REMARK                            x       y       z     vdW  Elec       q    Type
REMARK                         _______ _______ _______ _____ _____    ______ ____
ROOT
ATOM      1  C   UNL     1       3.567   6.057  17.101  0.00  0.00    +0.000 C 
ATOM      2  C   UNL     1       5.034   6.474  16.867  0.00  0.00    +0.000 C 
ATOM      3  C   UNL     1       5.523   7.877  17.103  0.00  0.00    +0.000 C 
ATOM      4  C   UNL     1       6.767   8.104  17.562  0.00  0.00    +0.000 C 
ATOM      5  C   UNL     1       7.761   7.006  17.871  0.00  0.00    +0.000 C 
ATOM      6  C   UNL     1       7.297   5.583  17.456  0.00  0.00    +0.000 C 
ATOM      7  C   UNL     1       8.144   4.530  18.164  0.00  0.00    +0.000 C 
ATOM      8  C   UNL     1       5.807   5.487  17.763  0.00  0.00    +0.000 C 
ATOM      9  C   UNL     1       5.015   4.216  17.555  0.00  0.00    +0.000 C 
ATOM     10  O   UNL     1       5.409   3.077  17.731  0.00  0.00    +0.000 OA
ATOM     11  N   UNL     1       3.701   4.611  17.299  0.00  0.00    +0.000 N 
ENDROOT
BRANCH   1  14
ATOM     12  C   UNL     1       1.604   8.738  19.071  0.00  0.00    +0.000 A 
ATOM     13  C   UNL     1       2.209   8.012  18.028  0.00  0.00    +0.000 A 
ATOM     14  C   UNL     1       2.885   6.795  18.238  0.00  0.00    +0.000 A 
ATOM     15  C   UNL     1       2.899   6.266  19.534  0.00  0.00    +0.000 A 
ATOM     16  C   UNL     1       2.260   6.930  20.577  0.00  0.00    +0.000 A 
ATOM     17  C   UNL     1       1.630   8.153  20.345  0.00  0.00    +0.000 A 
ATOM     18  F   UNL     1       1.065   8.769  21.395  0.00  0.00    +0.000 F 
BRANCH  12  22
ATOM     19  C   UNL     1       0.063  12.727  18.484  0.00  0.00    +0.000 A 
ATOM     20  C   UNL     1      -0.812  11.638  18.612  0.00  0.00    +0.000 A 
ATOM     21  C   UNL     1      -0.329  10.337  18.785  0.00  0.00    +0.000 A 
ATOM     22  C   UNL     1       1.045  10.080  18.808  0.00  0.00    +0.000 A 
ATOM     23  C   UNL     1       1.901  11.177  18.589  0.00  0.00    +0.000 A 
ATOM     24  C   UNL     1       1.436  12.488  18.410  0.00  0.00    +0.000 A 
BRANCH  19  26
ATOM     25  C   UNL     1      -0.683  14.623  19.670  0.00  0.00    +0.000 C 
ATOM     26  O   UNL     1      -0.415  14.006  18.410  0.00  0.00    +0.000 OA
ENDBRANCH  19  26
BRANCH  24  27
ATOM     27  O   UNL     1       2.468  13.365  18.217  0.00  0.00    +0.000 OA
ATOM     28  C   UNL     1       3.041  14.016  19.336  0.00  0.00    +0.000 C 
ENDBRANCH  24  27
ENDBRANCH  12  22
ENDBRANCH   1  14
BRANCH  11  29
ATOM     29  C   UNL     1       2.575   3.696  17.373  0.00  0.00    +0.000 C 
BRANCH  29  30
ATOM     30  C   UNL     1       2.184   3.302  18.773  0.00  0.00    +0.000 A 
ATOM     31  C   UNL     1       3.148   2.812  19.668  0.00  0.00    +0.000 A 
ATOM     32  C   UNL     1       2.811   2.538  20.994  0.00  0.00    +0.000 A 
ATOM     33  C   UNL     1       1.504   2.736  21.436  0.00  0.00    +0.000 A 
ATOM     34  C   UNL     1       0.533   3.196  20.548  0.00  0.00    +0.000 A 
ATOM     35  C   UNL     1       0.868   3.476  19.221  0.00  0.00    +0.000 A 
ENDBRANCH  29  30
ENDBRANCH  11  29
TORSDOF 6
ENDMDL
MODEL 9
REMARK VINA RESULT:      -7.7      4.818      7.631
REMARK  Name = 
REMARK  9 active torsions:
REMARK  status: ('A' for Active; 'I' for Inactive)
REMARK    1  A    between atoms: C_1  and  O_2
REMARK    2  A    between atoms: O_2  and  C_3
REMARK    3  A    between atoms: C_6  and  C_7
REMARK    4  A    between atoms: C_9  and  C_10
REMARK    5  A    between atoms: C_15  and  C_16
REMARK    6  A    between atoms: N_20  and  C_21
REMARK    7  A    between atoms: C_21  and  C_22
REMARK    8  A    between atoms: C_33  and  O_34
REMARK    9  A    between atoms: O_34  and  C_35
REMARK                            x       y       z     vdW  Elec       q    Type
REMARK                         _______ _______ _______ _____ _____    ______ ____
ROOT
ATOM      1  C   UNL     1      -6.502  14.376  20.930  0.00  0.00    +0.000 C 
ATOM      2  C   UNL     1      -6.996  13.362  19.876  0.00  0.00    +0.000 C 
ATOM      3  C   UNL     1      -6.412  13.285  18.492  0.00  0.00    +0.000 C 
ATOM      4  C   UNL     1      -6.302  12.105  17.857  0.00  0.00    +0.000 C 
ATOM      5  C   UNL     1      -6.744  10.786  18.452  0.00  0.00    +0.000 C 
ATOM      6  C   UNL     1      -7.499  10.912  19.803  0.00  0.00    +0.000 C 
ATOM      7  C   UNL     1      -7.530   9.561  20.512  0.00  0.00    +0.000 C 
ATOM      8  C   UNL     1      -6.814  12.014  20.602  0.00  0.00    +0.000 C 
ATOM      9  C   UNL     1      -7.232  12.377  22.009  0.00  0.00    +0.000 C 
ATOM     10  O   UNL     1      -7.624  11.612  22.872  0.00  0.00    +0.000 OA
ATOM     11  N   UNL     1      -6.909  13.725  22.178  0.00  0.00    +0.000 N 
ENDROOT
BRANCH   1  14
ATOM     12  C   UNL     1      -2.670  13.956  20.678  0.00  0.00    +0.000 A 
ATOM     13  C   UNL     1      -4.050  13.687  20.727  0.00  0.00    +0.000 A 
ATOM     14  C   UNL     1      -5.022  14.700  20.834  0.00  0.00    +0.000 A 
ATOM     15  C   UNL     1      -4.588  16.030  20.833  0.00  0.00    +0.000 A 
ATOM     16  C   UNL     1      -3.233  16.333  20.729  0.00  0.00    +0.000 A 
ATOM     17  C   UNL     1      -2.291  15.307  20.661  0.00  0.00    +0.000 A 
ATOM     18  F   UNL     1      -0.996  15.655  20.601  0.00  0.00    +0.000 F 
BRANCH  12  22
ATOM     19  C   UNL     1       0.010  10.573  20.752  0.00  0.00    +0.000 A 
ATOM     20  C   UNL     1      -0.176  11.358  21.900  0.00  0.00    +0.000 A 
ATOM     21  C   UNL     1      -1.027  12.468  21.887  0.00  0.00    +0.000 A 
ATOM     22  C   UNL     1      -1.698  12.844  20.720  0.00  0.00    +0.000 A 
ATOM     23  C   UNL     1      -1.426  12.092  19.560  0.00  0.00    +0.000 A 
ATOM     24  C   UNL     1      -0.574  10.979  19.551  0.00  0.00    +0.000 A 
BRANCH  19  26
ATOM     25  C   UNL     1       0.253   8.400  21.634  0.00  0.00    +0.000 C 
ATOM     26  O   UNL     1       0.768   9.436  20.796  0.00  0.00    +0.000 OA
ENDBRANCH  19  26
BRANCH  24  27
ATOM     27  O   UNL     1      -0.481  10.428  18.303  0.00  0.00    +0.000 OA
ATOM     28  C   UNL     1      -1.664  10.203  17.556  0.00  0.00    +0.000 C 
ENDBRANCH  24  27
ENDBRANCH  12  22
ENDBRANCH   1  14
BRANCH  11  29
ATOM     29  C   UNL     1      -6.845  14.362  23.482  0.00  0.00    +0.000 C 
BRANCH  29  30
ATOM     30  C   UNL     1      -5.451  14.679  23.952  0.00  0.00    +0.000 A 
ATOM     31  C   UNL     1      -5.099  15.994  24.294  0.00  0.00    +0.000 A 
ATOM     32  C   UNL     1      -3.838  16.277  24.823  0.00  0.00    +0.000 A 
ATOM     33  C   UNL     1      -2.911  15.252  25.000  0.00  0.00    +0.000 A 
ATOM     34  C   UNL     1      -3.241  13.947  24.637  0.00  0.00    +0.000 A 
ATOM     35  C   UNL     1      -4.504  13.660  24.112  0.00  0.00    +0.000 A 
ENDBRANCH  29  30
ENDBRANCH  11  29
TORSDOF 6
ENDMDL
