MODEL 1
REMARK VINA RESULT:      -6.9      0.000      0.000
REMARK  Name = 
REMARK  4 active torsions:
REMARK  status: ('A' for Active; 'I' for Inactive)
REMARK    1  A    between atoms: O_1  and  C_2
REMARK    2  A    between atoms: C_4  and  C_5
REMARK    3  A    between atoms: C_5  and  S_6
REMARK    4  A    between atoms: S_6  and  C_7
REMARK                            x       y       z     vdW  Elec       q    Type
REMARK                         _______ _______ _______ _____ _____    ______ ____
ROOT
ATOM      1  C   UNL     1       7.064   6.223  16.954  0.00  0.00    +0.000 A 
ATOM      2  C   UNL     1       6.426   5.916  18.095  0.00  0.00    +0.000 A 
ATOM      3  C   UNL     1       5.524   4.711  18.061  0.00  0.00    +0.000 A 
ATOM      4  N   UNL     1       5.349   3.953  17.015  0.00  0.00    +0.000 NA
ATOM      5  C   UNL     1       6.025   4.296  15.879  0.00  0.00    +0.000 A 
ATOM      6  N   UNL     1       6.027   3.695  14.707  0.00  0.00    +0.000 NA
ATOM      7  C   UNL     1       6.870   4.460  13.961  0.00  0.00    +0.000 A 
ATOM      8  N   UNL     1       7.408   5.510  14.580  0.00  0.00    +0.000 NA
ATOM      9  N   UNL     1       6.870   5.413  15.824  0.00  0.00    +0.000 N 
ENDROOT
BRANCH   1  10
ATOM     10  O   UNL     1       7.910   7.317  16.858  0.00  0.00    +0.000 OA
ATOM     11  H   UNL     1       7.665   7.862  16.091  0.00  0.00    +0.000 HD
ENDBRANCH   1  10
BRANCH   3  12
ATOM     12  C   UNL     1       4.798   4.326  19.349  0.00  0.00    +0.000 C 
BRANCH  12  13
ATOM     13  S   UNL     1       2.998   4.279  19.061  0.00  0.00    +0.000 S 
BRANCH  13  14
ATOM     14  C   UNL     1       2.492   5.996  19.107  0.00  0.00    +0.000 A 
ATOM     15  C   UNL     1       2.561   6.898  18.040  0.00  0.00    +0.000 A 
ATOM     16  C   UNL     1       2.137   8.227  18.199  0.00  0.00    +0.000 A 
ATOM     17  C   UNL     1       1.641   8.661  19.426  0.00  0.00    +0.000 A 
ATOM     18 CL   UNL     1       1.124  10.290  19.618  0.00  0.00    +0.000 Cl
ATOM     19  C   UNL     1       1.561   7.779  20.497  0.00  0.00    +0.000 A 
ATOM     20  C   UNL     1       1.985   6.456  20.335  0.00  0.00    +0.000 A 
ENDBRANCH  13  14
ENDBRANCH  12  13
ENDBRANCH   3  12
TORSDOF 4
ENDMDL
MODEL 2
REMARK VINA RESULT:      -6.9      0.098      1.108
REMARK  Name = 
REMARK  4 active torsions:
REMARK  status: ('A' for Active; 'I' for Inactive)
REMARK    1  A    between atoms: O_1  and  C_2
REMARK    2  A    between atoms: C_4  and  C_5
REMARK    3  A    between atoms: C_5  and  S_6
REMARK    4  A    between atoms: S_6  and  C_7
REMARK                            x       y       z     vdW  Elec       q    Type
REMARK                         _______ _______ _______ _____ _____    ______ ____
ROOT
ATOM      1  C   UNL     1       7.062   6.223  16.940  0.00  0.00    +0.000 A 
ATOM      2  C   UNL     1       6.415   5.920  18.077  0.00  0.00    +0.000 A 
ATOM      3  C   UNL     1       5.515   4.714  18.042  0.00  0.00    +0.000 A 
ATOM      4  N   UNL     1       5.348   3.951  16.998  0.00  0.00    +0.000 NA
ATOM      5  C   UNL     1       6.032   4.290  15.866  0.00  0.00    +0.000 A 
ATOM      6  N   UNL     1       6.044   3.684  14.697  0.00  0.00    +0.000 NA
ATOM      7  C   UNL     1       6.891   4.446  13.954  0.00  0.00    +0.000 A 
ATOM      8  N   UNL     1       7.424   5.499  14.572  0.00  0.00    +0.000 NA
ATOM      9  N   UNL     1       6.877   5.407  15.812  0.00  0.00    +0.000 N 
ENDROOT
BRANCH   1  10
ATOM     10  O   UNL     1       7.907   7.317  16.845  0.00  0.00    +0.000 OA
ATOM     11  H   UNL     1       8.196   7.593  17.731  0.00  0.00    +0.000 HD
ENDBRANCH   1  10
BRANCH   3  12
ATOM     12  C   UNL     1       4.780   4.333  19.326  0.00  0.00    +0.000 C 
BRANCH  12  13
ATOM     13  S   UNL     1       2.982   4.290  19.027  0.00  0.00    +0.000 S 
BRANCH  13  14
ATOM     14  C   UNL     1       2.452   5.988  19.229  0.00  0.00    +0.000 A 
ATOM     15  C   UNL     1       1.969   6.559  20.413  0.00  0.00    +0.000 A 
ATOM     16  C   UNL     1       1.578   7.907  20.448  0.00  0.00    +0.000 A 
ATOM     17  C   UNL     1       1.667   8.691  19.302  0.00  0.00    +0.000 A 
ATOM     18 CL   UNL     1       1.185  10.342  19.347  0.00  0.00    +0.000 Cl
ATOM     19  C   UNL     1       2.147   8.144  18.118  0.00  0.00    +0.000 A 
ATOM     20  C   UNL     1       2.536   6.801  18.086  0.00  0.00    +0.000 A 
ENDBRANCH  13  14
ENDBRANCH  12  13
ENDBRANCH   3  12
TORSDOF 4
ENDMDL
MODEL 3
REMARK VINA RESULT:      -6.9      1.242      1.434
REMARK  Name = 
REMARK  4 active torsions:
REMARK  status: ('A' for Active; 'I' for Inactive)
REMARK    1  A    between atoms: O_1  and  C_2
REMARK    2  A    between atoms: C_4  and  C_5
REMARK    3  A    between atoms: C_5  and  S_6
REMARK    4  A    between atoms: S_6  and  C_7
REMARK                            x       y       z     vdW  Elec       q    Type
REMARK                         _______ _______ _______ _____ _____    ______ ____
ROOT
ATOM      1  C   UNL     1       6.515   4.699  18.171  0.00  0.00    +0.000 A 
ATOM      2  C   UNL     1       5.355   4.527  18.826  0.00  0.00    +0.000 A 
ATOM      3  C   UNL     1       4.132   4.288  17.982  0.00  0.00    +0.000 A 
ATOM      4  N   UNL     1       4.138   4.219  16.680  0.00  0.00    +0.000 NA
ATOM      5  C   UNL     1       5.340   4.390  16.055  0.00  0.00    +0.000 A 
ATOM      6  N   UNL     1       5.613   4.356  14.768  0.00  0.00    +0.000 NA
ATOM      7  C   UNL     1       6.954   4.583  14.722  0.00  0.00    +0.000 A 
ATOM      8  N   UNL     1       7.557   4.758  15.897  0.00  0.00    +0.000 NA
ATOM      9  N   UNL     1       6.523   4.633  16.768  0.00  0.00    +0.000 N 
ENDROOT
BRANCH   1  10
ATOM     10  O   UNL     1       7.706   4.939  18.838  0.00  0.00    +0.000 OA
ATOM     11  H   UNL     1       7.526   5.282  19.730  0.00  0.00    +0.000 HD
ENDBRANCH   1  10
BRANCH   3  12
ATOM     12  C   UNL     1       2.801   4.070  18.699  0.00  0.00    +0.000 C 
BRANCH  12  13
ATOM     13  S   UNL     1       2.742   5.068  20.224  0.00  0.00    +0.000 S 
BRANCH  13  14
ATOM     14  C   UNL     1       2.257   6.701  19.674  0.00  0.00    +0.000 A 
ATOM     15  C   UNL     1       2.465   7.229  18.394  0.00  0.00    +0.000 A 
ATOM     16  C   UNL     1       2.043   8.530  18.079  0.00  0.00    +0.000 A 
ATOM     17  C   UNL     1       1.409   9.311  19.042  0.00  0.00    +0.000 A 
ATOM     18 CL   UNL     1       0.894  10.906  18.655  0.00  0.00    +0.000 Cl
ATOM     19  C   UNL     1       1.190   8.804  20.318  0.00  0.00    +0.000 A 
ATOM     20  C   UNL     1       1.612   7.508  20.628  0.00  0.00    +0.000 A 
ENDBRANCH  13  14
ENDBRANCH  12  13
ENDBRANCH   3  12
TORSDOF 4
ENDMDL
MODEL 4
REMARK VINA RESULT:      -6.8      4.369      6.090
REMARK  Name = 
REMARK  4 active torsions:
REMARK  status: ('A' for Active; 'I' for Inactive)
REMARK    1  A    between atoms: O_1  and  C_2
REMARK    2  A    between atoms: C_4  and  C_5
REMARK    3  A    between atoms: C_5  and  S_6
REMARK    4  A    between atoms: S_6  and  C_7
REMARK                            x       y       z     vdW  Elec       q    Type
REMARK                         _______ _______ _______ _____ _____    ______ ____
ROOT
ATOM      1  C   UNL     1       4.334   2.392  20.130  0.00  0.00    +0.000 A 
ATOM      2  C   UNL     1       4.620   2.822  18.890  0.00  0.00    +0.000 A 
ATOM      3  C   UNL     1       3.541   3.590  18.176  0.00  0.00    +0.000 A 
ATOM      4  N   UNL     1       2.376   3.873  18.690  0.00  0.00    +0.000 NA
ATOM      5  C   UNL     1       2.131   3.425  19.956  0.00  0.00    +0.000 A 
ATOM      6  N   UNL     1       1.052   3.585  20.693  0.00  0.00    +0.000 NA
ATOM      7  C   UNL     1       1.361   2.941  21.851  0.00  0.00    +0.000 A 
ATOM      8  N   UNL     1       2.568   2.379  21.903  0.00  0.00    +0.000 NA
ATOM      9  N   UNL     1       3.077   2.688  20.682  0.00  0.00    +0.000 N 
ENDROOT
BRANCH   1  10
ATOM     10  O   UNL     1       5.242   1.662  20.881  0.00  0.00    +0.000 OA
ATOM     11  H   UNL     1       6.039   2.194  21.050  0.00  0.00    +0.000 HD
ENDBRANCH   1  10
BRANCH   3  12
ATOM     12  C   UNL     1       3.843   4.109  16.771  0.00  0.00    +0.000 C 
BRANCH  12  13
ATOM     13  S   UNL     1       5.607   3.864  16.381  0.00  0.00    +0.000 S 
BRANCH  13  14
ATOM     14  C   UNL     1       6.412   5.340  16.996  0.00  0.00    +0.000 A 
ATOM     15  C   UNL     1       6.170   6.647  16.557  0.00  0.00    +0.000 A 
ATOM     16  C   UNL     1       6.870   7.730  17.114  0.00  0.00    +0.000 A 
ATOM     17  C   UNL     1       7.814   7.511  18.114  0.00  0.00    +0.000 A 
ATOM     18 CL   UNL     1       8.671   8.839  18.793  0.00  0.00    +0.000 Cl
ATOM     19  C   UNL     1       8.066   6.221  18.566  0.00  0.00    +0.000 A 
ATOM     20  C   UNL     1       7.368   5.146  18.008  0.00  0.00    +0.000 A 
ENDBRANCH  13  14
ENDBRANCH  12  13
ENDBRANCH   3  12
TORSDOF 4
ENDMDL
MODEL 5
REMARK VINA RESULT:      -6.8      1.245      1.795
REMARK  Name = 
REMARK  4 active torsions:
REMARK  status: ('A' for Active; 'I' for Inactive)
REMARK    1  A    between atoms: O_1  and  C_2
REMARK    2  A    between atoms: C_4  and  C_5
REMARK    3  A    between atoms: C_5  and  S_6
REMARK    4  A    between atoms: S_6  and  C_7
REMARK                            x       y       z     vdW  Elec       q    Type
REMARK                         _______ _______ _______ _____ _____    ______ ____
ROOT
ATOM      1  C   UNL     1       6.558   4.692  18.046  0.00  0.00    +0.000 A 
ATOM      2  C   UNL     1       5.385   4.573  18.690  0.00  0.00    +0.000 A 
ATOM      3  C   UNL     1       4.154   4.452  17.833  0.00  0.00    +0.000 A 
ATOM      4  N   UNL     1       4.164   4.436  16.529  0.00  0.00    +0.000 NA
ATOM      5  C   UNL     1       5.378   4.550  15.916  0.00  0.00    +0.000 A 
ATOM      6  N   UNL     1       5.656   4.550  14.629  0.00  0.00    +0.000 NA
ATOM      7  C   UNL     1       7.009   4.687  14.596  0.00  0.00    +0.000 A 
ATOM      8  N   UNL     1       7.616   4.773  15.779  0.00  0.00    +0.000 NA
ATOM      9  N   UNL     1       6.570   4.683  16.642  0.00  0.00    +0.000 N 
ENDROOT
BRANCH   1  10
ATOM     10  O   UNL     1       7.759   4.823  18.726  0.00  0.00    +0.000 OA
ATOM     11  H   UNL     1       7.591   4.989  19.670  0.00  0.00    +0.000 HD
ENDBRANCH   1  10
BRANCH   3  12
ATOM     12  C   UNL     1       2.806   4.297  18.536  0.00  0.00    +0.000 C 
BRANCH  12  13
ATOM     13  S   UNL     1       2.846   5.137  20.154  0.00  0.00    +0.000 S 
BRANCH  13  14
ATOM     14  C   UNL     1       2.231   6.784  19.819  0.00  0.00    +0.000 A 
ATOM     15  C   UNL     1       1.565   7.610  20.732  0.00  0.00    +0.000 A 
ATOM     16  C   UNL     1       1.123   8.887  20.351  0.00  0.00    +0.000 A 
ATOM     17  C   UNL     1       1.346   9.346  19.055  0.00  0.00    +0.000 A 
ATOM     18 CL   UNL     1       0.803  10.910  18.590  0.00  0.00    +0.000 Cl
ATOM     19  C   UNL     1       2.009   8.542  18.135  0.00  0.00    +0.000 A 
ATOM     20  C   UNL     1       2.447   7.271  18.518  0.00  0.00    +0.000 A 
ENDBRANCH  13  14
ENDBRANCH  12  13
ENDBRANCH   3  12
TORSDOF 4
ENDMDL
MODEL 6
REMARK VINA RESULT:      -6.7      1.197      1.707
REMARK  Name = 
REMARK  4 active torsions:
REMARK  status: ('A' for Active; 'I' for Inactive)
REMARK    1  A    between atoms: O_1  and  C_2
REMARK    2  A    between atoms: C_4  and  C_5
REMARK    3  A    between atoms: C_5  and  S_6
REMARK    4  A    between atoms: S_6  and  C_7
REMARK                            x       y       z     vdW  Elec       q    Type
REMARK                         _______ _______ _______ _____ _____    ______ ____
ROOT
ATOM      1  C   UNL     1       6.337   6.429  16.779  0.00  0.00    +0.000 A 
ATOM      2  C   UNL     1       5.234   6.324  17.539  0.00  0.00    +0.000 A 
ATOM      3  C   UNL     1       4.253   5.247  17.160  0.00  0.00    +0.000 A 
ATOM      4  N   UNL     1       4.419   4.416  16.170  0.00  0.00    +0.000 NA
ATOM      5  C   UNL     1       5.558   4.552  15.429  0.00  0.00    +0.000 A 
ATOM      6  N   UNL     1       5.962   3.840  14.398  0.00  0.00    +0.000 NA
ATOM      7  C   UNL     1       7.151   4.410  14.065  0.00  0.00    +0.000 A 
ATOM      8  N   UNL     1       7.537   5.440  14.819  0.00  0.00    +0.000 NA
ATOM      9  N   UNL     1       6.514   5.539  15.707  0.00  0.00    +0.000 N 
ENDROOT
BRANCH   1  10
ATOM     10  O   UNL     1       7.306   7.390  17.021  0.00  0.00    +0.000 OA
ATOM     11  H   UNL     1       7.141   7.823  17.876  0.00  0.00    +0.000 HD
ENDBRANCH   1  10
BRANCH   3  12
ATOM     12  C   UNL     1       2.998   5.091  18.017  0.00  0.00    +0.000 C 
BRANCH  12  13
ATOM     13  S   UNL     1       3.230   5.922  19.623  0.00  0.00    +0.000 S 
BRANCH  13  14
ATOM     14  C   UNL     1       2.265   7.424  19.495  0.00  0.00    +0.000 A 
ATOM     15  C   UNL     1       1.577   8.047  20.543  0.00  0.00    +0.000 A 
ATOM     16  C   UNL     1       0.846   9.224  20.319  0.00  0.00    +0.000 A 
ATOM     17  C   UNL     1       0.801   9.787  19.046  0.00  0.00    +0.000 A 
ATOM     18 CL   UNL     1      -0.096  11.229  18.773  0.00  0.00    +0.000 Cl
ATOM     19  C   UNL     1       1.480   9.186  17.993  0.00  0.00    +0.000 A 
ATOM     20  C   UNL     1       2.206   8.013  18.220  0.00  0.00    +0.000 A 
ENDBRANCH  13  14
ENDBRANCH  12  13
ENDBRANCH   3  12
TORSDOF 4
ENDMDL
MODEL 7
REMARK VINA RESULT:      -6.7      2.175      2.984
REMARK  Name = 
REMARK  4 active torsions:
REMARK  status: ('A' for Active; 'I' for Inactive)
REMARK    1  A    between atoms: O_1  and  C_2
REMARK    2  A    between atoms: C_4  and  C_5
REMARK    3  A    between atoms: C_5  and  S_6
REMARK    4  A    between atoms: S_6  and  C_7
REMARK                            x       y       z     vdW  Elec       q    Type
REMARK                         _______ _______ _______ _____ _____    ______ ____
ROOT
ATOM      1  C   UNL     1       5.558   4.075  16.917  0.00  0.00    +0.000 A 
ATOM      2  C   UNL     1       4.243   4.232  17.141  0.00  0.00    +0.000 A 
ATOM      3  C   UNL     1       3.854   4.905  18.430  0.00  0.00    +0.000 A 
ATOM      4  N   UNL     1       4.703   5.352  19.312  0.00  0.00    +0.000 NA
ATOM      5  C   UNL     1       6.030   5.179  19.040  0.00  0.00    +0.000 A 
ATOM      6  N   UNL     1       7.073   5.546  19.755  0.00  0.00    +0.000 NA
ATOM      7  C   UNL     1       8.131   5.128  19.008  0.00  0.00    +0.000 A 
ATOM      8  N   UNL     1       7.833   4.519  17.861  0.00  0.00    +0.000 NA
ATOM      9  N   UNL     1       6.474   4.548  17.870  0.00  0.00    +0.000 N 
ENDROOT
BRANCH   1  10
ATOM     10  O   UNL     1       6.039   3.458  15.772  0.00  0.00    +0.000 OA
ATOM     11  H   UNL     1       6.365   2.567  15.985  0.00  0.00    +0.000 HD
ENDBRANCH   1  10
BRANCH   3  12
ATOM     12  C   UNL     1       2.366   5.116  18.705  0.00  0.00    +0.000 C 
BRANCH  12  13
ATOM     13  S   UNL     1       2.144   6.075  20.239  0.00  0.00    +0.000 S 
BRANCH  13  14
ATOM     14  C   UNL     1       1.800   7.741  19.681  0.00  0.00    +0.000 A 
ATOM     15  C   UNL     1       2.118   8.264  18.422  0.00  0.00    +0.000 A 
ATOM     16  C   UNL     1       1.802   9.593  18.100  0.00  0.00    +0.000 A 
ATOM     17  C   UNL     1       1.165  10.407  19.034  0.00  0.00    +0.000 A 
ATOM     18 CL   UNL     1       0.780  12.035  18.637  0.00  0.00    +0.000 Cl
ATOM     19  C   UNL     1       0.838   9.905  20.288  0.00  0.00    +0.000 A 
ATOM     20  C   UNL     1       1.155   8.581  20.606  0.00  0.00    +0.000 A 
ENDBRANCH  13  14
ENDBRANCH  12  13
ENDBRANCH   3  12
TORSDOF 4
ENDMDL
MODEL 8
REMARK VINA RESULT:      -6.7      3.044      4.310
REMARK  Name = 
REMARK  4 active torsions:
REMARK  status: ('A' for Active; 'I' for Inactive)
REMARK    1  A    between atoms: O_1  and  C_2
REMARK    2  A    between atoms: C_4  and  C_5
REMARK    3  A    between atoms: C_5  and  S_6
REMARK    4  A    between atoms: S_6  and  C_7
REMARK                            x       y       z     vdW  Elec       q    Type
REMARK                         _______ _______ _______ _____ _____    ______ ____
ROOT
ATOM      1  C   UNL     1       8.028   5.643  19.059  0.00  0.00    +0.000 A 
ATOM      2  C   UNL     1       7.435   4.685  18.326  0.00  0.00    +0.000 A 
ATOM      3  C   UNL     1       6.839   5.113  17.012  0.00  0.00    +0.000 A 
ATOM      4  N   UNL     1       6.883   6.329  16.545  0.00  0.00    +0.000 NA
ATOM      5  C   UNL     1       7.503   7.269  17.318  0.00  0.00    +0.000 A 
ATOM      6  N   UNL     1       7.689   8.549  17.070  0.00  0.00    +0.000 NA
ATOM      7  C   UNL     1       8.359   8.990  18.169  0.00  0.00    +0.000 A 
ATOM      8  N   UNL     1       8.616   8.075  19.103  0.00  0.00    +0.000 NA
ATOM      9  N   UNL     1       8.069   6.956  18.561  0.00  0.00    +0.000 N 
ENDROOT
BRANCH   1  10
ATOM     10  O   UNL     1       8.601   5.374  20.292  0.00  0.00    +0.000 OA
ATOM     11  H   UNL     1       7.972   4.889  20.853  0.00  0.00    +0.000 HD
ENDBRANCH   1  10
BRANCH   3  12
ATOM     12  C   UNL     1       6.175   4.043  16.147  0.00  0.00    +0.000 C 
BRANCH  12  13
ATOM     13  S   UNL     1       4.400   4.412  15.952  0.00  0.00    +0.000 S 
BRANCH  13  14
ATOM     14  C   UNL     1       3.697   4.108  17.570  0.00  0.00    +0.000 A 
ATOM     15  C   UNL     1       2.918   5.009  18.306  0.00  0.00    +0.000 A 
ATOM     16  C   UNL     1       2.425   4.659  19.572  0.00  0.00    +0.000 A 
ATOM     17  C   UNL     1       2.707   3.406  20.110  0.00  0.00    +0.000 A 
ATOM     18 CL   UNL     1       2.102   2.979  21.663  0.00  0.00    +0.000 Cl
ATOM     19  C   UNL     1       3.476   2.496  19.394  0.00  0.00    +0.000 A 
ATOM     20  C   UNL     1       3.966   2.849  18.133  0.00  0.00    +0.000 A 
ENDBRANCH  13  14
ENDBRANCH  12  13
ENDBRANCH   3  12
TORSDOF 4
ENDMDL
MODEL 9
REMARK VINA RESULT:      -6.6      1.903      2.898
REMARK  Name = 
REMARK  4 active torsions:
REMARK  status: ('A' for Active; 'I' for Inactive)
REMARK    1  A    between atoms: O_1  and  C_2
REMARK    2  A    between atoms: C_4  and  C_5
REMARK    3  A    between atoms: C_5  and  S_6
REMARK    4  A    between atoms: S_6  and  C_7
REMARK                            x       y       z     vdW  Elec       q    Type
REMARK                         _______ _______ _______ _____ _____    ______ ____
ROOT
ATOM      1  C   UNL     1       5.956   4.732  16.300  0.00  0.00    +0.000 A 
ATOM      2  C   UNL     1       5.033   3.781  16.516  0.00  0.00    +0.000 A 
ATOM      3  C   UNL     1       4.816   3.364  17.946  0.00  0.00    +0.000 A 
ATOM      4  N   UNL     1       5.446   3.877  18.966  0.00  0.00    +0.000 NA
ATOM      5  C   UNL     1       6.368   4.848  18.702  0.00  0.00    +0.000 A 
ATOM      6  N   UNL     1       7.120   5.524  19.545  0.00  0.00    +0.000 NA
ATOM      7  C   UNL     1       7.838   6.351  18.738  0.00  0.00    +0.000 A 
ATOM      8  N   UNL     1       7.593   6.250  17.432  0.00  0.00    +0.000 NA
ATOM      9  N   UNL     1       6.641   5.281  17.397  0.00  0.00    +0.000 N 
ENDROOT
BRANCH   1  10
ATOM     10  O   UNL     1       6.254   5.189  15.026  0.00  0.00    +0.000 OA
ATOM     11  H   UNL     1       7.076   4.779  14.708  0.00  0.00    +0.000 HD
ENDBRANCH   1  10
BRANCH   3  12
ATOM     12  C   UNL     1       3.759   2.297  18.227  0.00  0.00    +0.000 C 
BRANCH  12  13
ATOM     13  S   UNL     1       2.099   2.947  17.847  0.00  0.00    +0.000 S 
BRANCH  13  14
ATOM     14  C   UNL     1       1.988   4.469  18.783  0.00  0.00    +0.000 A 
ATOM     15  C   UNL     1       1.622   4.577  20.130  0.00  0.00    +0.000 A 
ATOM     16  C   UNL     1       1.565   5.831  20.757  0.00  0.00    +0.000 A 
ATOM     17  C   UNL     1       1.876   6.985  20.043  0.00  0.00    +0.000 A 
ATOM     18 CL   UNL     1       1.805   8.521  20.813  0.00  0.00    +0.000 Cl
ATOM     19  C   UNL     1       2.246   6.899  18.705  0.00  0.00    +0.000 A 
ATOM     20  C   UNL     1       2.300   5.648  18.083  0.00  0.00    +0.000 A 
ENDBRANCH  13  14
ENDBRANCH  12  13
ENDBRANCH   3  12
TORSDOF 4
ENDMDL
