MODEL 1
REMARK VINA RESULT:      -8.0      0.000      0.000
REMARK  Name = 
REMARK  7 active torsions:
REMARK  status: ('A' for Active; 'I' for Inactive)
REMARK    1  A    between atoms: C_1  and  C_2
REMARK    2  A    between atoms: C_2  and  C_3
REMARK    3  A    between atoms: C_3  and  C_4
REMARK    4  A    between atoms: C_4  and  C_5
REMARK    5  A    between atoms: N_7  and  C_8
REMARK    6  A    between atoms: C_12  and  N_13
REMARK    7  A    between atoms: C_14  and  C_16
REMARK                            x       y       z     vdW  Elec       q    Type
REMARK                         _______ _______ _______ _____ _____    ______ ____
ROOT
ATOM      1  C   UNL     1       6.000   4.532  15.665  0.00  0.00    +0.000 A 
ATOM      2  C   UNL     1       7.189   4.307  16.360  0.00  0.00    +0.000 A 
ATOM      3  C   UNL     1       7.454   4.985  17.544  0.00  0.00    +0.000 A 
ATOM      4  C   UNL     1       6.537   5.907  18.040  0.00  0.00    +0.000 A 
ATOM      5  C   UNL     1       5.355   6.182  17.350  0.00  0.00    +0.000 A 
ATOM      6  C   UNL     1       5.090   5.486  16.157  0.00  0.00    +0.000 A 
ENDROOT
BRANCH   1   9
ATOM      7  C   UNL     1       6.325   4.020  13.250  0.00  0.00    +0.000 C 
ATOM      8  O   UNL     1       7.316   4.711  13.041  0.00  0.00    +0.000 OA
ATOM      9  N   UNL     1       5.689   3.842  14.471  0.00  0.00    +0.000 N 
ATOM     10  H   UNL     1       5.022   3.085  14.539  0.00  0.00    +0.000 HD
BRANCH   7  11
ATOM     11  C   UNL     1       5.709   3.226  12.114  0.00  0.00    +0.000 C 
BRANCH  11  12
ATOM     12  C   UNL     1       4.259   3.604  11.826  0.00  0.00    +0.000 C 
BRANCH  12  14
ATOM     13  C   UNL     1       2.995   4.035   9.694  0.00  0.00    +0.000 C 
ATOM     14  C   UNL     1       3.732   2.995  10.524  0.00  0.00    +0.000 C 
ENDBRANCH  12  14
ENDBRANCH  11  12
ENDBRANCH   7  11
ENDBRANCH   1   9
BRANCH   5  15
ATOM     15  N   UNL     1       4.392   7.106  17.834  0.00  0.00    +0.000 N 
ATOM     16  C   UNL     1       3.245   6.766  18.542  0.00  0.00    +0.000 C 
ATOM     17  O   UNL     1       2.967   5.649  18.966  0.00  0.00    +0.000 OA
ATOM     18  H   UNL     1       4.564   8.079  17.626  0.00  0.00    +0.000 HD
BRANCH  16  19
ATOM     19  C   UNL     1       2.256   7.849  18.812  0.00  0.00    +0.000 A 
ATOM     20  C   UNL     1       1.805   7.982  20.142  0.00  0.00    +0.000 A 
ATOM     21  C   UNL     1       0.892   8.977  20.488  0.00  0.00    +0.000 A 
ATOM     22  C   UNL     1       0.425   9.846  19.510  0.00  0.00    +0.000 A 
ATOM     23 BR   UNL     1      -0.812  11.197  19.975  0.00  0.00    +0.000 Br
ATOM     24  C   UNL     1       0.871   9.736  18.192  0.00  0.00    +0.000 A 
ATOM     25  C   UNL     1       1.788   8.737  17.840  0.00  0.00    +0.000 A 
ENDBRANCH  16  19
ENDBRANCH   5  15
TORSDOF 6
ENDMDL
MODEL 2
REMARK VINA RESULT:      -7.6      4.606      6.791
REMARK  Name = 
REMARK  7 active torsions:
REMARK  status: ('A' for Active; 'I' for Inactive)
REMARK    1  A    between atoms: C_1  and  C_2
REMARK    2  A    between atoms: C_2  and  C_3
REMARK    3  A    between atoms: C_3  and  C_4
REMARK    4  A    between atoms: C_4  and  C_5
REMARK    5  A    between atoms: N_7  and  C_8
REMARK    6  A    between atoms: C_12  and  N_13
REMARK    7  A    between atoms: C_14  and  C_16
REMARK                            x       y       z     vdW  Elec       q    Type
REMARK                         _______ _______ _______ _____ _____    ______ ____
ROOT
ATOM      1  C   UNL     1       4.630   5.070  16.951  0.00  0.00    +0.000 A 
ATOM      2  C   UNL     1       5.320   4.067  16.270  0.00  0.00    +0.000 A 
ATOM      3  C   UNL     1       6.628   4.272  15.847  0.00  0.00    +0.000 A 
ATOM      4  C   UNL     1       7.256   5.490  16.088  0.00  0.00    +0.000 A 
ATOM      5  C   UNL     1       6.582   6.527  16.735  0.00  0.00    +0.000 A 
ATOM      6  C   UNL     1       5.261   6.309  17.168  0.00  0.00    +0.000 A 
ENDROOT
BRANCH   1   9
ATOM      7  C   UNL     1       2.776   3.689  17.876  0.00  0.00    +0.000 C 
ATOM      8  O   UNL     1       3.391   2.642  18.054  0.00  0.00    +0.000 OA
ATOM      9  N   UNL     1       3.307   4.886  17.417  0.00  0.00    +0.000 N 
ATOM     10  H   UNL     1       2.738   5.715  17.521  0.00  0.00    +0.000 HD
BRANCH   7  11
ATOM     11  C   UNL     1       1.298   3.759  18.207  0.00  0.00    +0.000 C 
BRANCH  11  12
ATOM     12  C   UNL     1       0.921   2.983  19.465  0.00  0.00    +0.000 C 
BRANCH  12  14
ATOM     13  C   UNL     1       2.128   2.925  21.672  0.00  0.00    +0.000 C 
ATOM     14  C   UNL     1       1.237   3.747  20.754  0.00  0.00    +0.000 C 
ENDBRANCH  12  14
ENDBRANCH  11  12
ENDBRANCH   7  11
ENDBRANCH   1   9
BRANCH   5  15
ATOM     15  N   UNL     1       7.197   7.777  17.010  0.00  0.00    +0.000 N 
ATOM     16  C   UNL     1       8.047   8.030  18.079  0.00  0.00    +0.000 C 
ATOM     17  O   UNL     1       8.494   7.192  18.855  0.00  0.00    +0.000 OA
ATOM     18  H   UNL     1       6.975   8.531  16.376  0.00  0.00    +0.000 HD
BRANCH  16  19
ATOM     19  C   UNL     1       8.455   9.445  18.316  0.00  0.00    +0.000 A 
ATOM     20  C   UNL     1       9.238   9.699  19.460  0.00  0.00    +0.000 A 
ATOM     21  C   UNL     1       9.677  10.990  19.751  0.00  0.00    +0.000 A 
ATOM     22  C   UNL     1       9.340  12.034  18.900  0.00  0.00    +0.000 A 
ATOM     23 BR   UNL     1       9.933  13.785  19.290  0.00  0.00    +0.000 Br
ATOM     24  C   UNL     1       8.575  11.798  17.756  0.00  0.00    +0.000 A 
ATOM     25  C   UNL     1       8.131  10.502  17.461  0.00  0.00    +0.000 A 
ENDBRANCH  16  19
ENDBRANCH   5  15
TORSDOF 6
ENDMDL
MODEL 3
REMARK VINA RESULT:      -7.5      1.074      1.650
REMARK  Name = 
REMARK  7 active torsions:
REMARK  status: ('A' for Active; 'I' for Inactive)
REMARK    1  A    between atoms: C_1  and  C_2
REMARK    2  A    between atoms: C_2  and  C_3
REMARK    3  A    between atoms: C_3  and  C_4
REMARK    4  A    between atoms: C_4  and  C_5
REMARK    5  A    between atoms: N_7  and  C_8
REMARK    6  A    between atoms: C_12  and  N_13
REMARK    7  A    between atoms: C_14  and  C_16
REMARK                            x       y       z     vdW  Elec       q    Type
REMARK                         _______ _______ _______ _____ _____    ______ ____
ROOT
ATOM      1  C   UNL     1       6.565   4.717  16.011  0.00  0.00    +0.000 A 
ATOM      2  C   UNL     1       7.629   4.344  16.831  0.00  0.00    +0.000 A 
ATOM      3  C   UNL     1       7.709   4.808  18.140  0.00  0.00    +0.000 A 
ATOM      4  C   UNL     1       6.730   5.663  18.636  0.00  0.00    +0.000 A 
ATOM      5  C   UNL     1       5.672   6.085  17.830  0.00  0.00    +0.000 A 
ATOM      6  C   UNL     1       5.593   5.604  16.511  0.00  0.00    +0.000 A 
ENDROOT
BRANCH   1   9
ATOM      7  C   UNL     1       7.156   4.715  13.592  0.00  0.00    +0.000 C 
ATOM      8  O   UNL     1       8.076   5.526  13.621  0.00  0.00    +0.000 OA
ATOM      9  N   UNL     1       6.441   4.244  14.684  0.00  0.00    +0.000 N 
ATOM     10  H   UNL     1       5.862   3.427  14.541  0.00  0.00    +0.000 HD
BRANCH   7  11
ATOM     11  C   UNL     1       6.738   4.100  12.270  0.00  0.00    +0.000 C 
BRANCH  11  12
ATOM     12  C   UNL     1       5.501   3.214  12.378  0.00  0.00    +0.000 C 
BRANCH  12  14
ATOM     13  C   UNL     1       6.847   1.497  11.125  0.00  0.00    +0.000 C 
ATOM     14  C   UNL     1       5.467   2.106  11.322  0.00  0.00    +0.000 C 
ENDBRANCH  12  14
ENDBRANCH  11  12
ENDBRANCH   7  11
ENDBRANCH   1   9
BRANCH   5  15
ATOM     15  N   UNL     1       4.649   6.945  18.309  0.00  0.00    +0.000 N 
ATOM     16  C   UNL     1       3.307   6.605  18.419  0.00  0.00    +0.000 C 
ATOM     17  O   UNL     1       2.833   5.485  18.250  0.00  0.00    +0.000 OA
ATOM     18  H   UNL     1       4.937   7.876  18.572  0.00  0.00    +0.000 HD
BRANCH  16  19
ATOM     19  C   UNL     1       2.346   7.691  18.769  0.00  0.00    +0.000 A 
ATOM     20  C   UNL     1       1.914   8.522  17.716  0.00  0.00    +0.000 A 
ATOM     21  C   UNL     1       1.005   9.554  17.949  0.00  0.00    +0.000 A 
ATOM     22  C   UNL     1       0.520   9.759  19.234  0.00  0.00    +0.000 A 
ATOM     23 BR   UNL     1      -0.713  11.154  19.555  0.00  0.00    +0.000 Br
ATOM     24  C   UNL     1       0.928   8.936  20.286  0.00  0.00    +0.000 A 
ATOM     25  C   UNL     1       1.842   7.900  20.056  0.00  0.00    +0.000 A 
ENDBRANCH  16  19
ENDBRANCH   5  15
TORSDOF 6
ENDMDL
MODEL 4
REMARK VINA RESULT:      -7.3      2.594      4.342
REMARK  Name = 
REMARK  7 active torsions:
REMARK  status: ('A' for Active; 'I' for Inactive)
REMARK    1  A    between atoms: C_1  and  C_2
REMARK    2  A    between atoms: C_2  and  C_3
REMARK    3  A    between atoms: C_3  and  C_4
REMARK    4  A    between atoms: C_4  and  C_5
REMARK    5  A    between atoms: N_7  and  C_8
REMARK    6  A    between atoms: C_12  and  N_13
REMARK    7  A    between atoms: C_14  and  C_16
REMARK                            x       y       z     vdW  Elec       q    Type
REMARK                         _______ _______ _______ _____ _____    ______ ____
ROOT
ATOM      1  C   UNL     1       4.030   4.101  19.159  0.00  0.00    +0.000 A 
ATOM      2  C   UNL     1       3.782   2.885  19.796  0.00  0.00    +0.000 A 
ATOM      3  C   UNL     1       2.814   2.793  20.790  0.00  0.00    +0.000 A 
ATOM      4  C   UNL     1       2.094   3.922  21.168  0.00  0.00    +0.000 A 
ATOM      5  C   UNL     1       2.343   5.161  20.577  0.00  0.00    +0.000 A 
ATOM      6  C   UNL     1       3.317   5.244  19.565  0.00  0.00    +0.000 A 
ENDROOT
BRANCH   1   9
ATOM      7  C   UNL     1       6.298   4.655  18.293  0.00  0.00    +0.000 C 
ATOM      8  O   UNL     1       6.856   4.888  19.361  0.00  0.00    +0.000 OA
ATOM      9  N   UNL     1       4.989   4.224  18.128  0.00  0.00    +0.000 N 
ATOM     10  H   UNL     1       4.731   3.868  17.217  0.00  0.00    +0.000 HD
BRANCH   7  11
ATOM     11  C   UNL     1       7.069   4.795  16.996  0.00  0.00    +0.000 C 
BRANCH  11  12
ATOM     12  C   UNL     1       6.186   5.133  15.798  0.00  0.00    +0.000 C 
BRANCH  12  14
ATOM     13  C   UNL     1       6.043   3.856  13.635  0.00  0.00    +0.000 C 
ATOM     14  C   UNL     1       6.862   4.839  14.457  0.00  0.00    +0.000 C 
ENDBRANCH  12  14
ENDBRANCH  11  12
ENDBRANCH   7  11
ENDBRANCH   1   9
BRANCH   5  15
ATOM     15  N   UNL     1       1.617   6.329  20.928  0.00  0.00    +0.000 N 
ATOM     16  C   UNL     1       1.717   7.556  20.284  0.00  0.00    +0.000 C 
ATOM     17  O   UNL     1       2.337   7.774  19.247  0.00  0.00    +0.000 OA
ATOM     18  H   UNL     1       0.994   6.246  21.718  0.00  0.00    +0.000 HD
BRANCH  16  19
ATOM     19  C   UNL     1       1.018   8.719  20.901  0.00  0.00    +0.000 A 
ATOM     20  C   UNL     1       0.633   9.763  20.036  0.00  0.00    +0.000 A 
ATOM     21  C   UNL     1      -0.040  10.883  20.524  0.00  0.00    +0.000 A 
ATOM     22  C   UNL     1      -0.336  10.964  21.879  0.00  0.00    +0.000 A 
ATOM     23 BR   UNL     1      -1.249  12.478  22.546  0.00  0.00    +0.000 Br
ATOM     24  C   UNL     1       0.027   9.933  22.747  0.00  0.00    +0.000 A 
ATOM     25  C   UNL     1       0.704   8.807  22.260  0.00  0.00    +0.000 A 
ENDBRANCH  16  19
ENDBRANCH   5  15
TORSDOF 6
ENDMDL
MODEL 5
REMARK VINA RESULT:      -7.2      1.216      1.455
REMARK  Name = 
REMARK  7 active torsions:
REMARK  status: ('A' for Active; 'I' for Inactive)
REMARK    1  A    between atoms: C_1  and  C_2
REMARK    2  A    between atoms: C_2  and  C_3
REMARK    3  A    between atoms: C_3  and  C_4
REMARK    4  A    between atoms: C_4  and  C_5
REMARK    5  A    between atoms: N_7  and  C_8
REMARK    6  A    between atoms: C_12  and  N_13
REMARK    7  A    between atoms: C_14  and  C_16
REMARK                            x       y       z     vdW  Elec       q    Type
REMARK                         _______ _______ _______ _____ _____    ______ ____
ROOT
ATOM      1  C   UNL     1       6.051   4.584  16.061  0.00  0.00    +0.000 A 
ATOM      2  C   UNL     1       7.138   4.361  16.905  0.00  0.00    +0.000 A 
ATOM      3  C   UNL     1       7.262   5.064  18.099  0.00  0.00    +0.000 A 
ATOM      4  C   UNL     1       6.304   6.009  18.453  0.00  0.00    +0.000 A 
ATOM      5  C   UNL     1       5.223   6.282  17.614  0.00  0.00    +0.000 A 
ATOM      6  C   UNL     1       5.100   5.560  16.412  0.00  0.00    +0.000 A 
ENDROOT
BRANCH   1   9
ATOM      7  C   UNL     1       6.462   4.198  13.636  0.00  0.00    +0.000 C 
ATOM      8  O   UNL     1       7.290   5.083  13.441  0.00  0.00    +0.000 OA
ATOM      9  N   UNL     1       5.882   3.869  14.853  0.00  0.00    +0.000 N 
ATOM     10  H   UNL     1       5.385   2.989  14.906  0.00  0.00    +0.000 HD
BRANCH   7  11
ATOM     11  C   UNL     1       6.017   3.318  12.484  0.00  0.00    +0.000 C 
BRANCH  11  12
ATOM     12  C   UNL     1       7.045   3.225  11.360  0.00  0.00    +0.000 C 
BRANCH  12  14
ATOM     13  C   UNL     1       6.145   0.889  11.115  0.00  0.00    +0.000 C 
ATOM     14  C   UNL     1       7.367   1.782  10.965  0.00  0.00    +0.000 C 
ENDBRANCH  12  14
ENDBRANCH  11  12
ENDBRANCH   7  11
ENDBRANCH   1   9
BRANCH   5  15
ATOM     15  N   UNL     1       4.220   7.229  17.951  0.00  0.00    +0.000 N 
ATOM     16  C   UNL     1       3.182   7.007  18.847  0.00  0.00    +0.000 C 
ATOM     17  O   UNL     1       3.055   6.025  19.571  0.00  0.00    +0.000 OA
ATOM     18  H   UNL     1       4.275   8.122  17.482  0.00  0.00    +0.000 HD
BRANCH  16  19
ATOM     19  C   UNL     1       2.118   8.048  18.941  0.00  0.00    +0.000 A 
ATOM     20  C   UNL     1       1.559   8.274  20.216  0.00  0.00    +0.000 A 
ATOM     21  C   UNL     1       0.570   9.239  20.399  0.00  0.00    +0.000 A 
ATOM     22  C   UNL     1       0.136   9.987  19.313  0.00  0.00    +0.000 A 
ATOM     23 BR   UNL     1      -1.204  11.297  19.557  0.00  0.00    +0.000 Br
ATOM     24  C   UNL     1       0.688   9.785  18.047  0.00  0.00    +0.000 A 
ATOM     25  C   UNL     1       1.681   8.815  17.858  0.00  0.00    +0.000 A 
ENDBRANCH  16  19
ENDBRANCH   5  15
TORSDOF 6
ENDMDL
MODEL 6
REMARK VINA RESULT:      -7.2      4.514      7.145
REMARK  Name = 
REMARK  7 active torsions:
REMARK  status: ('A' for Active; 'I' for Inactive)
REMARK    1  A    between atoms: C_1  and  C_2
REMARK    2  A    between atoms: C_2  and  C_3
REMARK    3  A    between atoms: C_3  and  C_4
REMARK    4  A    between atoms: C_4  and  C_5
REMARK    5  A    between atoms: N_7  and  C_8
REMARK    6  A    between atoms: C_12  and  N_13
REMARK    7  A    between atoms: C_14  and  C_16
REMARK                            x       y       z     vdW  Elec       q    Type
REMARK                         _______ _______ _______ _____ _____    ______ ____
ROOT
ATOM      1  C   UNL     1       4.808   5.079  17.903  0.00  0.00    +0.000 A 
ATOM      2  C   UNL     1       5.140   4.200  16.872  0.00  0.00    +0.000 A 
ATOM      3  C   UNL     1       6.147   4.519  15.968  0.00  0.00    +0.000 A 
ATOM      4  C   UNL     1       6.825   5.730  16.079  0.00  0.00    +0.000 A 
ATOM      5  C   UNL     1       6.492   6.647  17.076  0.00  0.00    +0.000 A 
ATOM      6  C   UNL     1       5.478   6.313  17.992  0.00  0.00    +0.000 A 
ENDROOT
BRANCH   1   9
ATOM      7  C   UNL     1       2.688   5.553  19.120  0.00  0.00    +0.000 C 
ATOM      8  O   UNL     1       2.338   6.556  18.507  0.00  0.00    +0.000 OA
ATOM      9  N   UNL     1       3.806   4.775  18.853  0.00  0.00    +0.000 N 
ATOM     10  H   UNL     1       3.854   3.866  19.295  0.00  0.00    +0.000 HD
BRANCH   7  11
ATOM     11  C   UNL     1       1.840   5.039  20.267  0.00  0.00    +0.000 C 
BRANCH  11  12
ATOM     12  C   UNL     1       1.005   3.815  19.903  0.00  0.00    +0.000 C 
BRANCH  12  14
ATOM     13  C   UNL     1       2.472   2.803  21.679  0.00  0.00    +0.000 C 
ATOM     14  C   UNL     1       1.179   2.659  20.891  0.00  0.00    +0.000 C 
ENDBRANCH  12  14
ENDBRANCH  11  12
ENDBRANCH   7  11
ENDBRANCH   1   9
BRANCH   5  15
ATOM     15  N   UNL     1       7.172   7.884  17.226  0.00  0.00    +0.000 N 
ATOM     16  C   UNL     1       8.111   8.166  18.212  0.00  0.00    +0.000 C 
ATOM     17  O   UNL     1       8.585   7.357  19.004  0.00  0.00    +0.000 OA
ATOM     18  H   UNL     1       6.932   8.608  16.565  0.00  0.00    +0.000 HD
BRANCH  16  19
ATOM     19  C   UNL     1       8.588   9.574  18.328  0.00  0.00    +0.000 A 
ATOM     20  C   UNL     1       7.983  10.523  17.479  0.00  0.00    +0.000 A 
ATOM     21  C   UNL     1       8.357  11.866  17.531  0.00  0.00    +0.000 A 
ATOM     22  C   UNL     1       9.332  12.269  18.433  0.00  0.00    +0.000 A 
ATOM     23 BR   UNL     1       9.840  14.087  18.508  0.00  0.00    +0.000 Br
ATOM     24  C   UNL     1       9.931  11.344  19.290  0.00  0.00    +0.000 A 
ATOM     25  C   UNL     1       9.559   9.993  19.240  0.00  0.00    +0.000 A 
ENDBRANCH  16  19
ENDBRANCH   5  15
TORSDOF 6
ENDMDL
MODEL 7
REMARK VINA RESULT:      -7.1      3.217      4.764
REMARK  Name = 
REMARK  7 active torsions:
REMARK  status: ('A' for Active; 'I' for Inactive)
REMARK    1  A    between atoms: C_1  and  C_2
REMARK    2  A    between atoms: C_2  and  C_3
REMARK    3  A    between atoms: C_3  and  C_4
REMARK    4  A    between atoms: C_4  and  C_5
REMARK    5  A    between atoms: N_7  and  C_8
REMARK    6  A    between atoms: C_12  and  N_13
REMARK    7  A    between atoms: C_14  and  C_16
REMARK                            x       y       z     vdW  Elec       q    Type
REMARK                         _______ _______ _______ _____ _____    ______ ____
ROOT
ATOM      1  C   UNL     1       4.118   4.076  19.387  0.00  0.00    +0.000 A 
ATOM      2  C   UNL     1       3.815   2.866  20.011  0.00  0.00    +0.000 A 
ATOM      3  C   UNL     1       2.782   2.789  20.939  0.00  0.00    +0.000 A 
ATOM      4  C   UNL     1       2.049   3.927  21.262  0.00  0.00    +0.000 A 
ATOM      5  C   UNL     1       2.350   5.160  20.682  0.00  0.00    +0.000 A 
ATOM      6  C   UNL     1       3.391   5.228  19.738  0.00  0.00    +0.000 A 
ENDROOT
BRANCH   1   9
ATOM      7  C   UNL     1       4.974   4.080  17.049  0.00  0.00    +0.000 C 
ATOM      8  O   UNL     1       3.904   3.993  16.455  0.00  0.00    +0.000 OA
ATOM      9  N   UNL     1       5.146   4.183  18.422  0.00  0.00    +0.000 N 
ATOM     10  H   UNL     1       6.060   4.462  18.755  0.00  0.00    +0.000 HD
BRANCH   7  11
ATOM     11  C   UNL     1       6.269   4.124  16.261  0.00  0.00    +0.000 C 
BRANCH  11  12
ATOM     12  C   UNL     1       7.413   4.798  17.012  0.00  0.00    +0.000 C 
BRANCH  12  14
ATOM     13  C   UNL     1       7.876   6.878  18.350  0.00  0.00    +0.000 C 
ATOM     14  C   UNL     1       7.273   6.322  17.070  0.00  0.00    +0.000 C 
ENDBRANCH  12  14
ENDBRANCH  11  12
ENDBRANCH   7  11
ENDBRANCH   1   9
BRANCH   5  15
ATOM     15  N   UNL     1       1.614   6.337  20.978  0.00  0.00    +0.000 N 
ATOM     16  C   UNL     1       1.658   7.514  20.240  0.00  0.00    +0.000 C 
ATOM     17  O   UNL     1       2.227   7.664  19.163  0.00  0.00    +0.000 OA
ATOM     18  H   UNL     1       1.029   6.302  21.800  0.00  0.00    +0.000 HD
BRANCH  16  19
ATOM     19  C   UNL     1       0.960   8.706  20.800  0.00  0.00    +0.000 A 
ATOM     20  C   UNL     1       0.304   8.537  22.037  0.00  0.00    +0.000 A 
ATOM     21  C   UNL     1      -0.361   9.603  22.642  0.00  0.00    +0.000 A 
ATOM     22  C   UNL     1      -0.372  10.844  22.018  0.00  0.00    +0.000 A 
ATOM     23 BR   UNL     1      -1.271  12.291  22.835  0.00  0.00    +0.000 Br
ATOM     24  C   UNL     1       0.283  11.031  20.800  0.00  0.00    +0.000 A 
ATOM     25  C   UNL     1       0.952   9.962  20.188  0.00  0.00    +0.000 A 
ENDBRANCH  16  19
ENDBRANCH   5  15
TORSDOF 6
ENDMDL
MODEL 8
REMARK VINA RESULT:      -7.1      2.434      3.677
REMARK  Name = 
REMARK  7 active torsions:
REMARK  status: ('A' for Active; 'I' for Inactive)
REMARK    1  A    between atoms: C_1  and  C_2
REMARK    2  A    between atoms: C_2  and  C_3
REMARK    3  A    between atoms: C_3  and  C_4
REMARK    4  A    between atoms: C_4  and  C_5
REMARK    5  A    between atoms: N_7  and  C_8
REMARK    6  A    between atoms: C_12  and  N_13
REMARK    7  A    between atoms: C_14  and  C_16
REMARK                            x       y       z     vdW  Elec       q    Type
REMARK                         _______ _______ _______ _____ _____    ______ ____
ROOT
ATOM      1  C   UNL     1       4.702   3.873  19.211  0.00  0.00    +0.000 A 
ATOM      2  C   UNL     1       4.316   2.668  19.797  0.00  0.00    +0.000 A 
ATOM      3  C   UNL     1       3.216   2.615  20.646  0.00  0.00    +0.000 A 
ATOM      4  C   UNL     1       2.498   3.772  20.929  0.00  0.00    +0.000 A 
ATOM      5  C   UNL     1       2.880   5.001  20.388  0.00  0.00    +0.000 A 
ATOM      6  C   UNL     1       3.988   5.045  19.523  0.00  0.00    +0.000 A 
ENDROOT
BRANCH   1   9
ATOM      7  C   UNL     1       5.880   4.792  17.219  0.00  0.00    +0.000 C 
ATOM      8  O   UNL     1       5.070   5.659  16.903  0.00  0.00    +0.000 OA
ATOM      9  N   UNL     1       5.800   3.957  18.324  0.00  0.00    +0.000 N 
ATOM     10  H   UNL     1       6.635   3.445  18.578  0.00  0.00    +0.000 HD
BRANCH   7  11
ATOM     11  C   UNL     1       7.129   4.591  16.384  0.00  0.00    +0.000 C 
BRANCH  11  12
ATOM     12  C   UNL     1       6.927   4.905  14.905  0.00  0.00    +0.000 C 
BRANCH  12  14
ATOM     13  C   UNL     1       6.405   3.703  12.757  0.00  0.00    +0.000 C 
ATOM     14  C   UNL     1       5.996   3.910  14.207  0.00  0.00    +0.000 C 
ENDBRANCH  12  14
ENDBRANCH  11  12
ENDBRANCH   7  11
ENDBRANCH   1   9
BRANCH   5  15
ATOM     15  N   UNL     1       2.161   6.199  20.644  0.00  0.00    +0.000 N 
ATOM     16  C   UNL     1       1.991   7.238  19.738  0.00  0.00    +0.000 C 
ATOM     17  O   UNL     1       2.315   7.218  18.554  0.00  0.00    +0.000 OA
ATOM     18  H   UNL     1       1.762   6.290  21.568  0.00  0.00    +0.000 HD
BRANCH  16  19
ATOM     19  C   UNL     1       1.364   8.495  20.239  0.00  0.00    +0.000 A 
ATOM     20  C   UNL     1       1.084   8.560  21.619  0.00  0.00    +0.000 A 
ATOM     21  C   UNL     1       0.512   9.703  22.176  0.00  0.00    +0.000 A 
ATOM     22  C   UNL     1       0.220  10.788  21.360  0.00  0.00    +0.000 A 
ATOM     23 BR   UNL     1      -0.554  12.339  22.112  0.00  0.00    +0.000 Br
ATOM     24  C   UNL     1       0.503  10.744  19.994  0.00  0.00    +0.000 A 
ATOM     25  C   UNL     1       1.077   9.597  19.430  0.00  0.00    +0.000 A 
ENDBRANCH  16  19
ENDBRANCH   5  15
TORSDOF 6
ENDMDL
MODEL 9
REMARK VINA RESULT:      -7.0      3.590      5.066
REMARK  Name = 
REMARK  7 active torsions:
REMARK  status: ('A' for Active; 'I' for Inactive)
REMARK    1  A    between atoms: C_1  and  C_2
REMARK    2  A    between atoms: C_2  and  C_3
REMARK    3  A    between atoms: C_3  and  C_4
REMARK    4  A    between atoms: C_4  and  C_5
REMARK    5  A    between atoms: N_7  and  C_8
REMARK    6  A    between atoms: C_12  and  N_13
REMARK    7  A    between atoms: C_14  and  C_16
REMARK                            x       y       z     vdW  Elec       q    Type
REMARK                         _______ _______ _______ _____ _____    ______ ____
ROOT
ATOM      1  C   UNL     1       3.994   4.261  19.529  0.00  0.00    +0.000 A 
ATOM      2  C   UNL     1       3.446   3.000  19.761  0.00  0.00    +0.000 A 
ATOM      3  C   UNL     1       2.212   2.869  20.389  0.00  0.00    +0.000 A 
ATOM      4  C   UNL     1       1.519   4.002  20.804  0.00  0.00    +0.000 A 
ATOM      5  C   UNL     1       2.055   5.277  20.620  0.00  0.00    +0.000 A 
ATOM      6  C   UNL     1       3.300   5.401  19.976  0.00  0.00    +0.000 A 
ENDROOT
BRANCH   1   9
ATOM      7  C   UNL     1       5.431   4.381  17.500  0.00  0.00    +0.000 C 
ATOM      8  O   UNL     1       4.557   4.297  16.643  0.00  0.00    +0.000 OA
ATOM      9  N   UNL     1       5.235   4.430  18.872  0.00  0.00    +0.000 N 
ATOM     10  H   UNL     1       6.021   4.713  19.443  0.00  0.00    +0.000 HD
BRANCH   7  11
ATOM     11  C   UNL     1       6.885   4.484  17.081  0.00  0.00    +0.000 C 
BRANCH  11  12
ATOM     12  C   UNL     1       7.234   5.815  16.422  0.00  0.00    +0.000 C 
BRANCH  12  14
ATOM     13  C   UNL     1       7.996   6.615  18.682  0.00  0.00    +0.000 C 
ATOM     14  C   UNL     1       7.248   6.984  17.411  0.00  0.00    +0.000 C 
ENDBRANCH  12  14
ENDBRANCH  11  12
ENDBRANCH   7  11
ENDBRANCH   1   9
BRANCH   5  15
ATOM     15  N   UNL     1       1.369   6.454  21.018  0.00  0.00    +0.000 N 
ATOM     16  C   UNL     1       1.449   7.682  20.374  0.00  0.00    +0.000 C 
ATOM     17  O   UNL     1       2.010   7.897  19.303  0.00  0.00    +0.000 OA
ATOM     18  H   UNL     1       0.793   6.376  21.844  0.00  0.00    +0.000 HD
BRANCH  16  19
ATOM     19  C   UNL     1       0.804   8.853  21.037  0.00  0.00    +0.000 A 
ATOM     20  C   UNL     1       0.966  10.106  20.412  0.00  0.00    +0.000 A 
ATOM     21  C   UNL     1       0.384  11.252  20.954  0.00  0.00    +0.000 A 
ATOM     22  C   UNL     1      -0.364  11.153  22.119  0.00  0.00    +0.000 A 
ATOM     23 BR   UNL     1      -1.155  12.702  22.856  0.00  0.00    +0.000 Br
ATOM     24  C   UNL     1      -0.545   9.917  22.743  0.00  0.00    +0.000 A 
ATOM     25  C   UNL     1       0.039   8.763  22.202  0.00  0.00    +0.000 A 
ENDBRANCH  16  19
ENDBRANCH   5  15
TORSDOF 6
ENDMDL
