MODEL 1
REMARK VINA RESULT:      -6.8      0.000      0.000
REMARK  Name = 
REMARK  6 active torsions:
REMARK  status: ('A' for Active; 'I' for Inactive)
REMARK    1  A    between atoms: C_1  and  N_2
REMARK    2  A    between atoms: C_4  and  N_5
REMARK    3  A    between atoms: C_6  and  C_8
REMARK    4  A    between atoms: N_11  and  C_12
REMARK    5  A    between atoms: C_12  and  C_13
REMARK    6  A    between atoms: C_13  and  C_14
REMARK                            x       y       z     vdW  Elec       q    Type
REMARK                         _______ _______ _______ _____ _____    ______ ____
ROOT
ATOM      1  C   UNL     1       5.839   4.486  15.648  0.00  0.00    +0.000 A 
ATOM      2  C   UNL     1       7.025   5.198  15.348  0.00  0.00    +0.000 A 
ATOM      3  N   UNL     1       7.449   5.006  14.098  0.00  0.00    +0.000 NA
ATOM      4  N   UNL     1       6.537   4.169  13.585  0.00  0.00    +0.000 N 
ATOM      5  C   UNL     1       5.545   3.834  14.464  0.00  0.00    +0.000 A 
ENDROOT
BRANCH   1   7
ATOM      6  N   UNL     1       4.580   3.284  17.294  0.00  0.00    +0.000 N 
ATOM      7  C   UNL     1       5.153   4.491  16.930  0.00  0.00    +0.000 C 
ATOM      8  O   UNL     1       5.122   5.521  17.596  0.00  0.00    +0.000 OA
ATOM      9  H   UNL     1       4.670   2.494  16.675  0.00  0.00    +0.000 HD
BRANCH   6  13
ATOM     10  C   UNL     1       1.128   3.011  20.778  0.00  0.00    +0.000 C 
ATOM     11  N   UNL     1       2.370   2.931  20.049  0.00  0.00    +0.000 N 
ATOM     12  C   UNL     1       2.561   3.254  18.739  0.00  0.00    +0.000 A 
ATOM     13  C   UNL     1       3.897   3.069  18.480  0.00  0.00    +0.000 A 
ATOM     14  C   UNL     1       4.424   2.611  19.712  0.00  0.00    +0.000 A 
ATOM     15  N   UNL     1       3.494   2.524  20.669  0.00  0.00    +0.000 NA
ENDBRANCH   6  13
ENDBRANCH   1   7
BRANCH   4  16
ATOM     16  C   UNL     1       6.695   3.707  12.220  0.00  0.00    +0.000 C 
BRANCH  16  17
ATOM     17  C   UNL     1       5.752   2.571  11.848  0.00  0.00    +0.000 C 
BRANCH  17  18
ATOM     18  C   UNL     1       6.456   1.421  11.161  0.00  0.00    +0.000 C 
ATOM     19  F   UNL     1       5.936   0.217  11.477  0.00  0.00    +0.000 F 
ATOM     20  F   UNL     1       6.345   1.552   9.817  0.00  0.00    +0.000 F 
ATOM     21  F   UNL     1       7.772   1.400  11.452  0.00  0.00    +0.000 F 
ENDBRANCH  17  18
ENDBRANCH  16  17
ENDBRANCH   4  16
TORSDOF 5
ENDMDL
MODEL 2
REMARK VINA RESULT:      -6.7      1.734      1.984
REMARK  Name = 
REMARK  6 active torsions:
REMARK  status: ('A' for Active; 'I' for Inactive)
REMARK    1  A    between atoms: C_1  and  N_2
REMARK    2  A    between atoms: C_4  and  N_5
REMARK    3  A    between atoms: C_6  and  C_8
REMARK    4  A    between atoms: N_11  and  C_12
REMARK    5  A    between atoms: C_12  and  C_13
REMARK    6  A    between atoms: C_13  and  C_14
REMARK                            x       y       z     vdW  Elec       q    Type
REMARK                         _______ _______ _______ _____ _____    ______ ____
ROOT
ATOM      1  C   UNL     1       6.072   4.744  16.792  0.00  0.00    +0.000 A 
ATOM      2  C   UNL     1       7.169   5.591  16.506  0.00  0.00    +0.000 A 
ATOM      3  N   UNL     1       7.527   5.569  15.222  0.00  0.00    +0.000 NA
ATOM      4  N   UNL     1       6.661   4.707  14.672  0.00  0.00    +0.000 N 
ATOM      5  C   UNL     1       5.761   4.191  15.563  0.00  0.00    +0.000 A 
ENDROOT
BRANCH   1   7
ATOM      6  N   UNL     1       4.088   4.521  18.117  0.00  0.00    +0.000 N 
ATOM      7  C   UNL     1       5.473   4.553  18.103  0.00  0.00    +0.000 C 
ATOM      8  O   UNL     1       6.195   4.435  19.088  0.00  0.00    +0.000 OA
ATOM      9  H   UNL     1       3.589   4.623  17.247  0.00  0.00    +0.000 HD
BRANCH   6  13
ATOM     10  C   UNL     1       1.506   2.555  21.803  0.00  0.00    +0.000 C 
ATOM     11  N   UNL     1       2.169   3.476  20.913  0.00  0.00    +0.000 N 
ATOM     12  C   UNL     1       2.926   3.149  19.829  0.00  0.00    +0.000 A 
ATOM     13  C   UNL     1       3.322   4.333  19.254  0.00  0.00    +0.000 A 
ATOM     14  C   UNL     1       2.755   5.324  20.091  0.00  0.00    +0.000 A 
ATOM     15  N   UNL     1       2.054   4.804  21.104  0.00  0.00    +0.000 NA
ENDBRANCH   6  13
ENDBRANCH   1   7
BRANCH   4  16
ATOM     16  C   UNL     1       6.771   4.402  13.259  0.00  0.00    +0.000 C 
BRANCH  16  17
ATOM     17  C   UNL     1       6.197   3.044  12.881  0.00  0.00    +0.000 C 
BRANCH  17  18
ATOM     18  C   UNL     1       5.169   3.126  11.774  0.00  0.00    +0.000 C 
ATOM     19  F   UNL     1       3.925   3.390  12.225  0.00  0.00    +0.000 F 
ATOM     20  F   UNL     1       5.492   4.126  10.919  0.00  0.00    +0.000 F 
ATOM     21  F   UNL     1       5.121   1.987  11.055  0.00  0.00    +0.000 F 
ENDBRANCH  17  18
ENDBRANCH  16  17
ENDBRANCH   4  16
TORSDOF 5
ENDMDL
MODEL 3
REMARK VINA RESULT:      -6.7      1.691      2.051
REMARK  Name = 
REMARK  6 active torsions:
REMARK  status: ('A' for Active; 'I' for Inactive)
REMARK    1  A    between atoms: C_1  and  N_2
REMARK    2  A    between atoms: C_4  and  N_5
REMARK    3  A    between atoms: C_6  and  C_8
REMARK    4  A    between atoms: N_11  and  C_12
REMARK    5  A    between atoms: C_12  and  C_13
REMARK    6  A    between atoms: C_13  and  C_14
REMARK                            x       y       z     vdW  Elec       q    Type
REMARK                         _______ _______ _______ _____ _____    ______ ____
ROOT
ATOM      1  C   UNL     1       5.972   4.394  16.436  0.00  0.00    +0.000 A 
ATOM      2  C   UNL     1       6.946   5.317  15.987  0.00  0.00    +0.000 A 
ATOM      3  N   UNL     1       7.280   5.144  14.707  0.00  0.00    +0.000 NA
ATOM      4  N   UNL     1       6.521   4.109  14.324  0.00  0.00    +0.000 N 
ATOM      5  C   UNL     1       5.710   3.628  15.315  0.00  0.00    +0.000 A 
ENDROOT
BRANCH   1   7
ATOM      6  N   UNL     1       4.043   4.309  17.855  0.00  0.00    +0.000 N 
ATOM      7  C   UNL     1       5.425   4.333  17.783  0.00  0.00    +0.000 C 
ATOM      8  O   UNL     1       6.187   4.305  18.744  0.00  0.00    +0.000 OA
ATOM      9  H   UNL     1       3.509   4.330  17.000  0.00  0.00    +0.000 HD
BRANCH   6  13
ATOM     10  C   UNL     1       1.551   2.719  21.778  0.00  0.00    +0.000 C 
ATOM     11  N   UNL     1       2.212   3.546  20.799  0.00  0.00    +0.000 N 
ATOM     12  C   UNL     1       2.902   3.112  19.707  0.00  0.00    +0.000 A 
ATOM     13  C   UNL     1       3.323   4.234  19.035  0.00  0.00    +0.000 A 
ATOM     14  C   UNL     1       2.840   5.305  19.826  0.00  0.00    +0.000 A 
ATOM     15  N   UNL     1       2.166   4.888  20.902  0.00  0.00    +0.000 NA
ENDBRANCH   6  13
ENDBRANCH   1   7
BRANCH   4  16
ATOM     16  C   UNL     1       6.642   3.609  12.969  0.00  0.00    +0.000 C 
BRANCH  16  17
ATOM     17  C   UNL     1       5.646   4.229  11.999  0.00  0.00    +0.000 C 
BRANCH  17  18
ATOM     18  C   UNL     1       4.586   3.252  11.538  0.00  0.00    +0.000 C 
ATOM     19  F   UNL     1       5.087   2.042  11.212  0.00  0.00    +0.000 F 
ATOM     20  F   UNL     1       3.689   3.046  12.531  0.00  0.00    +0.000 F 
ATOM     21  F   UNL     1       3.904   3.724  10.476  0.00  0.00    +0.000 F 
ENDBRANCH  17  18
ENDBRANCH  16  17
ENDBRANCH   4  16
TORSDOF 5
ENDMDL
MODEL 4
REMARK VINA RESULT:      -6.7      1.550      2.018
REMARK  Name = 
REMARK  6 active torsions:
REMARK  status: ('A' for Active; 'I' for Inactive)
REMARK    1  A    between atoms: C_1  and  N_2
REMARK    2  A    between atoms: C_4  and  N_5
REMARK    3  A    between atoms: C_6  and  C_8
REMARK    4  A    between atoms: N_11  and  C_12
REMARK    5  A    between atoms: C_12  and  C_13
REMARK    6  A    between atoms: C_13  and  C_14
REMARK                            x       y       z     vdW  Elec       q    Type
REMARK                         _______ _______ _______ _____ _____    ______ ____
ROOT
ATOM      1  C   UNL     1       5.942   4.335  17.067  0.00  0.00    +0.000 A 
ATOM      2  C   UNL     1       7.301   4.695  16.909  0.00  0.00    +0.000 A 
ATOM      3  N   UNL     1       7.711   4.650  15.640  0.00  0.00    +0.000 NA
ATOM      4  N   UNL     1       6.616   4.259  14.973  0.00  0.00    +0.000 N 
ATOM      5  C   UNL     1       5.525   4.068  15.775  0.00  0.00    +0.000 A 
ENDROOT
BRANCH   1   7
ATOM      6  N   UNL     1       3.855   4.114  18.223  0.00  0.00    +0.000 N 
ATOM      7  C   UNL     1       5.225   4.281  18.331  0.00  0.00    +0.000 C 
ATOM      8  O   UNL     1       5.846   4.380  19.384  0.00  0.00    +0.000 OA
ATOM      9  H   UNL     1       3.443   4.037  17.306  0.00  0.00    +0.000 HD
BRANCH   6  13
ATOM     10  C   UNL     1       1.281   2.523  22.092  0.00  0.00    +0.000 C 
ATOM     11  N   UNL     1       1.834   3.333  21.035  0.00  0.00    +0.000 N 
ATOM     12  C   UNL     1       2.804   2.959  20.153  0.00  0.00    +0.000 A 
ATOM     13  C   UNL     1       2.990   4.020  19.300  0.00  0.00    +0.000 A 
ATOM     14  C   UNL     1       2.085   5.000  19.773  0.00  0.00    +0.000 A 
ATOM     15  N   UNL     1       1.381   4.584  20.831  0.00  0.00    +0.000 NA
ENDBRANCH   6  13
ENDBRANCH   1   7
BRANCH   4  16
ATOM     16  C   UNL     1       6.696   4.067  13.539  0.00  0.00    +0.000 C 
BRANCH  16  17
ATOM     17  C   UNL     1       5.405   3.551  12.919  0.00  0.00    +0.000 C 
BRANCH  17  18
ATOM     18  C   UNL     1       5.635   2.764  11.648  0.00  0.00    +0.000 C 
ATOM     19  F   UNL     1       6.817   3.041  11.061  0.00  0.00    +0.000 F 
ATOM     20  F   UNL     1       5.639   1.437  11.922  0.00  0.00    +0.000 F 
ATOM     21  F   UNL     1       4.657   2.982  10.745  0.00  0.00    +0.000 F 
ENDBRANCH  17  18
ENDBRANCH  16  17
ENDBRANCH   4  16
TORSDOF 5
ENDMDL
MODEL 5
REMARK VINA RESULT:      -6.6      2.885      3.205
REMARK  Name = 
REMARK  6 active torsions:
REMARK  status: ('A' for Active; 'I' for Inactive)
REMARK    1  A    between atoms: C_1  and  N_2
REMARK    2  A    between atoms: C_4  and  N_5
REMARK    3  A    between atoms: C_6  and  C_8
REMARK    4  A    between atoms: N_11  and  C_12
REMARK    5  A    between atoms: C_12  and  C_13
REMARK    6  A    between atoms: C_13  and  C_14
REMARK                            x       y       z     vdW  Elec       q    Type
REMARK                         _______ _______ _______ _____ _____    ______ ____
ROOT
ATOM      1  C   UNL     1       5.609   5.629  17.311  0.00  0.00    +0.000 A 
ATOM      2  C   UNL     1       6.816   6.311  17.028  0.00  0.00    +0.000 A 
ATOM      3  N   UNL     1       7.349   5.967  15.855  0.00  0.00    +0.000 NA
ATOM      4  N   UNL     1       6.487   5.061  15.374  0.00  0.00    +0.000 N 
ATOM      5  C   UNL     1       5.421   4.828  16.199  0.00  0.00    +0.000 A 
ENDROOT
BRANCH   1   7
ATOM      6  N   UNL     1       3.577   6.386  18.330  0.00  0.00    +0.000 N 
ATOM      7  C   UNL     1       4.812   5.789  18.517  0.00  0.00    +0.000 C 
ATOM      8  O   UNL     1       5.257   5.401  19.592  0.00  0.00    +0.000 OA
ATOM      9  H   UNL     1       3.304   6.664  17.400  0.00  0.00    +0.000 HD
BRANCH   6  13
ATOM     10  C   UNL     1       0.500   8.484  21.533  0.00  0.00    +0.000 C 
ATOM     11  N   UNL     1       1.273   7.531  20.775  0.00  0.00    +0.000 N 
ATOM     12  C   UNL     1       2.097   7.809  19.726  0.00  0.00    +0.000 A 
ATOM     13  C   UNL     1       2.658   6.616  19.340  0.00  0.00    +0.000 A 
ATOM     14  C   UNL     1       2.085   5.669  20.222  0.00  0.00    +0.000 A 
ATOM     15  N   UNL     1       1.239   6.224  21.096  0.00  0.00    +0.000 NA
ENDBRANCH   6  13
ENDBRANCH   1   7
BRANCH   4  16
ATOM     16  C   UNL     1       6.765   4.430  14.100  0.00  0.00    +0.000 C 
BRANCH  16  17
ATOM     17  C   UNL     1       5.600   3.614  13.555  0.00  0.00    +0.000 C 
BRANCH  17  18
ATOM     18  C   UNL     1       5.721   3.332  12.073  0.00  0.00    +0.000 C 
ATOM     19  F   UNL     1       4.652   3.751  11.366  0.00  0.00    +0.000 F 
ATOM     20  F   UNL     1       6.799   3.978  11.568  0.00  0.00    +0.000 F 
ATOM     21  F   UNL     1       5.894   2.017  11.831  0.00  0.00    +0.000 F 
ENDBRANCH  17  18
ENDBRANCH  16  17
ENDBRANCH   4  16
TORSDOF 5
ENDMDL
MODEL 6
REMARK VINA RESULT:      -6.5      4.631      7.971
REMARK  Name = 
REMARK  6 active torsions:
REMARK  status: ('A' for Active; 'I' for Inactive)
REMARK    1  A    between atoms: C_1  and  N_2
REMARK    2  A    between atoms: C_4  and  N_5
REMARK    3  A    between atoms: C_6  and  C_8
REMARK    4  A    between atoms: N_11  and  C_12
REMARK    5  A    between atoms: C_12  and  C_13
REMARK    6  A    between atoms: C_13  and  C_14
REMARK                            x       y       z     vdW  Elec       q    Type
REMARK                         _______ _______ _______ _____ _____    ______ ____
ROOT
ATOM      1  C   UNL     1       3.359   5.657  18.109  0.00  0.00    +0.000 A 
ATOM      2  C   UNL     1       3.087   6.567  19.158  0.00  0.00    +0.000 A 
ATOM      3  N   UNL     1       2.149   6.130  20.000  0.00  0.00    +0.000 NA
ATOM      4  N   UNL     1       1.812   4.934  19.497  0.00  0.00    +0.000 N 
ATOM      5  C   UNL     1       2.512   4.595  18.373  0.00  0.00    +0.000 A 
ENDROOT
BRANCH   1   7
ATOM      6  N   UNL     1       4.797   4.711  16.442  0.00  0.00    +0.000 N 
ATOM      7  C   UNL     1       4.321   5.866  17.038  0.00  0.00    +0.000 C 
ATOM      8  O   UNL     1       4.646   7.009  16.731  0.00  0.00    +0.000 OA
ATOM      9  H   UNL     1       4.459   3.819  16.767  0.00  0.00    +0.000 HD
BRANCH   6  13
ATOM     10  C   UNL     1       7.019   3.933  12.131  0.00  0.00    +0.000 C 
ATOM     11  N   UNL     1       6.713   4.357  13.475  0.00  0.00    +0.000 N 
ATOM     12  C   UNL     1       5.538   4.161  14.137  0.00  0.00    +0.000 A 
ATOM     13  C   UNL     1       5.703   4.688  15.395  0.00  0.00    +0.000 A 
ATOM     14  C   UNL     1       7.024   5.197  15.381  0.00  0.00    +0.000 A 
ATOM     15  N   UNL     1       7.640   4.999  14.211  0.00  0.00    +0.000 NA
ENDBRANCH   6  13
ENDBRANCH   1   7
BRANCH   4  16
ATOM     16  C   UNL     1       0.772   4.163  20.150  0.00  0.00    +0.000 C 
BRANCH  16  17
ATOM     17  C   UNL     1       1.182   2.731  20.466  0.00  0.00    +0.000 C 
BRANCH  17  18
ATOM     18  C   UNL     1       2.242   2.647  21.543  0.00  0.00    +0.000 C 
ATOM     19  F   UNL     1       2.318   3.761  22.300  0.00  0.00    +0.000 F 
ATOM     20  F   UNL     1       1.962   1.623  22.385  0.00  0.00    +0.000 F 
ATOM     21  F   UNL     1       3.463   2.411  21.021  0.00  0.00    +0.000 F 
ENDBRANCH  17  18
ENDBRANCH  16  17
ENDBRANCH   4  16
TORSDOF 5
ENDMDL
MODEL 7
REMARK VINA RESULT:      -6.5      1.378      1.681
REMARK  Name = 
REMARK  6 active torsions:
REMARK  status: ('A' for Active; 'I' for Inactive)
REMARK    1  A    between atoms: C_1  and  N_2
REMARK    2  A    between atoms: C_4  and  N_5
REMARK    3  A    between atoms: C_6  and  C_8
REMARK    4  A    between atoms: N_11  and  C_12
REMARK    5  A    between atoms: C_12  and  C_13
REMARK    6  A    between atoms: C_13  and  C_14
REMARK                            x       y       z     vdW  Elec       q    Type
REMARK                         _______ _______ _______ _____ _____    ______ ____
ROOT
ATOM      1  C   UNL     1       5.873   4.442  16.249  0.00  0.00    +0.000 A 
ATOM      2  C   UNL     1       6.929   5.303  15.868  0.00  0.00    +0.000 A 
ATOM      3  N   UNL     1       7.312   5.134  14.602  0.00  0.00    +0.000 NA
ATOM      4  N   UNL     1       6.504   4.161  14.159  0.00  0.00    +0.000 N 
ATOM      5  C   UNL     1       5.615   3.717  15.099  0.00  0.00    +0.000 A 
ENDROOT
BRANCH   1   7
ATOM      6  N   UNL     1       4.639   3.194  17.880  0.00  0.00    +0.000 N 
ATOM      7  C   UNL     1       5.259   4.391  17.566  0.00  0.00    +0.000 C 
ATOM      8  O   UNL     1       5.320   5.372  18.301  0.00  0.00    +0.000 OA
ATOM      9  H   UNL     1       4.652   2.446  17.204  0.00  0.00    +0.000 HD
BRANCH   6  13
ATOM     10  C   UNL     1       1.405   2.940  21.568  0.00  0.00    +0.000 C 
ATOM     11  N   UNL     1       2.580   2.799  20.744  0.00  0.00    +0.000 N 
ATOM     12  C   UNL     1       2.726   3.238  19.462  0.00  0.00    +0.000 A 
ATOM     13  C   UNL     1       4.011   2.930  19.086  0.00  0.00    +0.000 A 
ATOM     14  C   UNL     1       4.554   2.285  20.223  0.00  0.00    +0.000 A 
ATOM     15  N   UNL     1       3.683   2.202  21.234  0.00  0.00    +0.000 NA
ENDBRANCH   6  13
ENDBRANCH   1   7
BRANCH   4  16
ATOM     16  C   UNL     1       6.656   3.681  12.800  0.00  0.00    +0.000 C 
BRANCH  16  17
ATOM     17  C   UNL     1       5.599   4.214  11.842  0.00  0.00    +0.000 C 
BRANCH  17  18
ATOM     18  C   UNL     1       4.550   3.182  11.490  0.00  0.00    +0.000 C 
ATOM     19  F   UNL     1       3.870   3.481  10.364  0.00  0.00    +0.000 F 
ATOM     20  F   UNL     1       5.139   1.980  11.280  0.00  0.00    +0.000 F 
ATOM     21  F   UNL     1       3.658   3.020  12.488  0.00  0.00    +0.000 F 
ENDBRANCH  17  18
ENDBRANCH  16  17
ENDBRANCH   4  16
TORSDOF 5
ENDMDL
MODEL 8
REMARK VINA RESULT:      -6.5      1.026      1.165
REMARK  Name = 
REMARK  6 active torsions:
REMARK  status: ('A' for Active; 'I' for Inactive)
REMARK    1  A    between atoms: C_1  and  N_2
REMARK    2  A    between atoms: C_4  and  N_5
REMARK    3  A    between atoms: C_6  and  C_8
REMARK    4  A    between atoms: N_11  and  C_12
REMARK    5  A    between atoms: C_12  and  C_13
REMARK    6  A    between atoms: C_13  and  C_14
REMARK                            x       y       z     vdW  Elec       q    Type
REMARK                         _______ _______ _______ _____ _____    ______ ____
ROOT
ATOM      1  C   UNL     1       6.244   4.446  15.831  0.00  0.00    +0.000 A 
ATOM      2  C   UNL     1       7.241   5.332  15.358  0.00  0.00    +0.000 A 
ATOM      3  N   UNL     1       7.483   5.200  14.053  0.00  0.00    +0.000 NA
ATOM      4  N   UNL     1       6.642   4.226  13.678  0.00  0.00    +0.000 N 
ATOM      5  C   UNL     1       5.868   3.747  14.698  0.00  0.00    +0.000 A 
ENDROOT
BRANCH   1   7
ATOM      6  N   UNL     1       4.406   4.381  17.366  0.00  0.00    +0.000 N 
ATOM      7  C   UNL     1       5.781   4.354  17.207  0.00  0.00    +0.000 C 
ATOM      8  O   UNL     1       6.599   4.259  18.116  0.00  0.00    +0.000 OA
ATOM      9  H   UNL     1       3.821   4.456  16.549  0.00  0.00    +0.000 HD
BRANCH   6  13
ATOM     10  C   UNL     1       2.239   2.730  21.453  0.00  0.00    +0.000 C 
ATOM     11  N   UNL     1       2.792   3.574  20.423  0.00  0.00    +0.000 N 
ATOM     12  C   UNL     1       3.446   3.158  19.302  0.00  0.00    +0.000 A 
ATOM     13  C   UNL     1       3.758   4.289  18.586  0.00  0.00    +0.000 A 
ATOM     14  C   UNL     1       3.255   5.345  19.383  0.00  0.00    +0.000 A 
ATOM     15  N   UNL     1       2.668   4.912  20.503  0.00  0.00    +0.000 NA
ENDBRANCH   6  13
ENDBRANCH   1   7
BRANCH   4  16
ATOM     16  C   UNL     1       6.649   3.783  12.298  0.00  0.00    +0.000 C 
BRANCH  16  17
ATOM     17  C   UNL     1       5.703   2.621  12.025  0.00  0.00    +0.000 C 
BRANCH  17  18
ATOM     18  C   UNL     1       6.356   1.499  11.249  0.00  0.00    +0.000 C 
ATOM     19  F   UNL     1       6.031   0.275  11.713  0.00  0.00    +0.000 F 
ATOM     20  F   UNL     1       5.959   1.542   9.955  0.00  0.00    +0.000 F 
ATOM     21  F   UNL     1       7.700   1.607  11.258  0.00  0.00    +0.000 F 
ENDBRANCH  17  18
ENDBRANCH  16  17
ENDBRANCH   4  16
TORSDOF 5
ENDMDL
MODEL 9
REMARK VINA RESULT:      -6.4      1.538      1.844
REMARK  Name = 
REMARK  6 active torsions:
REMARK  status: ('A' for Active; 'I' for Inactive)
REMARK    1  A    between atoms: C_1  and  N_2
REMARK    2  A    between atoms: C_4  and  N_5
REMARK    3  A    between atoms: C_6  and  C_8
REMARK    4  A    between atoms: N_11  and  C_12
REMARK    5  A    between atoms: C_12  and  C_13
REMARK    6  A    between atoms: C_13  and  C_14
REMARK                            x       y       z     vdW  Elec       q    Type
REMARK                         _______ _______ _______ _____ _____    ______ ____
ROOT
ATOM      1  C   UNL     1       6.057   4.438  16.385  0.00  0.00    +0.000 A 
ATOM      2  C   UNL     1       7.141   5.340  16.259  0.00  0.00    +0.000 A 
ATOM      3  N   UNL     1       7.570   5.471  15.004  0.00  0.00    +0.000 NA
ATOM      4  N   UNL     1       6.763   4.655  14.312  0.00  0.00    +0.000 N 
ATOM      5  C   UNL     1       5.831   4.020  15.085  0.00  0.00    +0.000 A 
ENDROOT
BRANCH   1   7
ATOM      6  N   UNL     1       4.088   3.640  17.493  0.00  0.00    +0.000 N 
ATOM      7  C   UNL     1       5.391   4.086  17.629  0.00  0.00    +0.000 C 
ATOM      8  O   UNL     1       5.995   4.198  18.691  0.00  0.00    +0.000 OA
ATOM      9  H   UNL     1       3.686   3.580  16.570  0.00  0.00    +0.000 HD
BRANCH   6  13
ATOM     10  C   UNL     1       1.976   3.128  21.898  0.00  0.00    +0.000 C 
ATOM     11  N   UNL     1       2.322   2.997  20.504  0.00  0.00    +0.000 N 
ATOM     12  C   UNL     1       3.259   3.723  19.832  0.00  0.00    +0.000 A 
ATOM     13  C   UNL     1       3.284   3.239  18.546  0.00  0.00    +0.000 A 
ATOM     14  C   UNL     1       2.299   2.222  18.546  0.00  0.00    +0.000 A 
ATOM     15  N   UNL     1       1.710   2.075  19.737  0.00  0.00    +0.000 NA
ENDBRANCH   6  13
ENDBRANCH   1   7
BRANCH   4  16
ATOM     16  C   UNL     1       6.960   4.514  12.883  0.00  0.00    +0.000 C 
BRANCH  16  17
ATOM     17  C   UNL     1       6.499   3.172  12.332  0.00  0.00    +0.000 C 
BRANCH  17  18
ATOM     18  C   UNL     1       5.130   3.237  11.692  0.00  0.00    +0.000 C 
ATOM     19  F   UNL     1       4.734   2.058  11.168  0.00  0.00    +0.000 F 
ATOM     20  F   UNL     1       4.205   3.580  12.620  0.00  0.00    +0.000 F 
ATOM     21  F   UNL     1       5.081   4.166  10.717  0.00  0.00    +0.000 F 
ENDBRANCH  17  18
ENDBRANCH  16  17
ENDBRANCH   4  16
TORSDOF 5
ENDMDL
