MODEL 1
REMARK VINA RESULT:      -6.5      0.000      0.000
REMARK  Name = 
REMARK  9 active torsions:
REMARK  status: ('A' for Active; 'I' for Inactive)
REMARK    1  A    between atoms: C_1  and  C_2
REMARK    2  A    between atoms: C_2  and  N_3
REMARK    3  A    between atoms: C_7  and  C_8
REMARK    4  A    between atoms: C_8  and  N_9
REMARK    5  A    between atoms: C_10  and  C_12
REMARK    6  A    between atoms: C_13  and  O_14
REMARK    7  A    between atoms: O_14  and  C_15
REMARK    8  A    between atoms: C_20  and  O_21
REMARK    9  A    between atoms: O_21  and  C_22
REMARK                            x       y       z     vdW  Elec       q    Type
REMARK                         _______ _______ _______ _____ _____    ______ ____
ROOT
ATOM      1  N   UNL     1       4.647   6.582  17.023  0.00  0.00    +0.000 N 
ATOM      2  C   UNL     1       3.838   5.567  17.465  0.00  0.00    +0.000 C 
ATOM      3  O   UNL     1       3.883   4.502  16.864  0.00  0.00    +0.000 OA
ATOM      4  H   UNL     1       4.706   7.476  17.509  0.00  0.00    +0.000 HD
ENDROOT
BRANCH   2   5
ATOM      5  C   UNL     1       2.963   5.662  18.718  0.00  0.00    +0.000 A 
ATOM      6  C   UNL     1       2.398   6.894  19.181  0.00  0.00    +0.000 A 
ATOM      7  C   UNL     1       1.618   6.910  20.352  0.00  0.00    +0.000 A 
ATOM      8  C   UNL     1       1.375   5.751  21.063  0.00  0.00    +0.000 A 
ATOM      9  C   UNL     1       1.902   4.535  20.653  0.00  0.00    +0.000 A 
ATOM     10 CL   UNL     1       1.495   3.169  21.693  0.00  0.00    +0.000 Cl
ATOM     11  C   UNL     1       2.707   4.467  19.477  0.00  0.00    +0.000 A 
BRANCH   6  12
ATOM     12  O   UNL     1       2.604   8.049  18.503  0.00  0.00    +0.000 OA
ATOM     13  C   UNL     1       1.659   8.948  18.061  0.00  0.00    +0.000 C 
ENDBRANCH   6  12
BRANCH  11  14
ATOM     14  O   UNL     1       3.277   3.304  19.042  0.00  0.00    +0.000 OA
ATOM     15  C   UNL     1       4.224   2.494  19.629  0.00  0.00    +0.000 C 
ENDBRANCH  11  14
ENDBRANCH   2   5
BRANCH   1  16
ATOM     16  C   UNL     1       5.610   6.436  15.938  0.00  0.00    +0.000 C 
BRANCH  16  21
ATOM     17  N   UNL     1       7.059   6.594  17.965  0.00  0.00    +0.000 NA
ATOM     18  C   UNL     1       7.208   5.348  18.744  0.00  0.00    +0.000 C 
ATOM     19  C   UNL     1       8.000   4.412  17.850  0.00  0.00    +0.000 C 
ATOM     20  C   UNL     1       7.273   4.613  16.552  0.00  0.00    +0.000 C 
ATOM     21  C   UNL     1       7.001   6.134  16.548  0.00  0.00    +0.000 C 
BRANCH  17  23
ATOM     22  C   UNL     1       7.972   8.929  17.748  0.00  0.00    +0.000 C 
ATOM     23  C   UNL     1       8.199   7.501  18.253  0.00  0.00    +0.000 C 
ENDBRANCH  17  23
ENDBRANCH  16  21
ENDBRANCH   1  16
TORSDOF 6
ENDMDL
MODEL 2
REMARK VINA RESULT:      -6.5      2.151      4.369
REMARK  Name = 
REMARK  9 active torsions:
REMARK  status: ('A' for Active; 'I' for Inactive)
REMARK    1  A    between atoms: C_1  and  C_2
REMARK    2  A    between atoms: C_2  and  N_3
REMARK    3  A    between atoms: C_7  and  C_8
REMARK    4  A    between atoms: C_8  and  N_9
REMARK    5  A    between atoms: C_10  and  C_12
REMARK    6  A    between atoms: C_13  and  O_14
REMARK    7  A    between atoms: O_14  and  C_15
REMARK    8  A    between atoms: C_20  and  O_21
REMARK    9  A    between atoms: O_21  and  C_22
REMARK                            x       y       z     vdW  Elec       q    Type
REMARK                         _______ _______ _______ _____ _____    ______ ____
ROOT
ATOM      1  N   UNL     1       6.258   3.967  18.070  0.00  0.00    +0.000 N 
ATOM      2  C   UNL     1       5.756   4.428  19.260  0.00  0.00    +0.000 C 
ATOM      3  O   UNL     1       6.411   5.265  19.868  0.00  0.00    +0.000 OA
ATOM      4  H   UNL     1       5.740   3.316  17.481  0.00  0.00    +0.000 HD
ENDROOT
BRANCH   2   5
ATOM      5  C   UNL     1       4.385   4.029  19.815  0.00  0.00    +0.000 A 
ATOM      6  C   UNL     1       4.086   2.705  20.271  0.00  0.00    +0.000 A 
ATOM      7  C   UNL     1       2.799   2.405  20.752  0.00  0.00    +0.000 A 
ATOM      8  C   UNL     1       1.814   3.371  20.805  0.00  0.00    +0.000 A 
ATOM      9  C   UNL     1       2.057   4.668  20.374  0.00  0.00    +0.000 A 
ATOM     10 CL   UNL     1       0.676   5.758  20.506  0.00  0.00    +0.000 Cl
ATOM     11  C   UNL     1       3.343   5.021  19.869  0.00  0.00    +0.000 A 
BRANCH   6  12
ATOM     12  O   UNL     1       5.030   1.734  20.245  0.00  0.00    +0.000 OA
ATOM     13  C   UNL     1       5.486   0.972  21.298  0.00  0.00    +0.000 C 
ENDBRANCH   6  12
BRANCH  11  14
ATOM     14  O   UNL     1       3.633   6.272  19.402  0.00  0.00    +0.000 OA
ATOM     15  C   UNL     1       3.080   6.995  18.369  0.00  0.00    +0.000 C 
ENDBRANCH  11  14
ENDBRANCH   2   5
BRANCH   1  16
ATOM     16  C   UNL     1       7.477   4.478  17.453  0.00  0.00    +0.000 C 
BRANCH  16  21
ATOM     17  N   UNL     1       6.330   4.404  15.238  0.00  0.00    +0.000 NA
ATOM     18  C   UNL     1       4.987   5.017  15.191  0.00  0.00    +0.000 C 
ATOM     19  C   UNL     1       5.220   6.503  15.387  0.00  0.00    +0.000 C 
ATOM     20  C   UNL     1       6.184   6.466  16.538  0.00  0.00    +0.000 C 
ATOM     21  C   UNL     1       7.094   5.271  16.180  0.00  0.00    +0.000 C 
BRANCH  17  23
ATOM     22  C   UNL     1       6.022   3.602  12.872  0.00  0.00    +0.000 C 
ATOM     23  C   UNL     1       6.905   4.359  13.869  0.00  0.00    +0.000 C 
ENDBRANCH  17  23
ENDBRANCH  16  21
ENDBRANCH   1  16
TORSDOF 6
ENDMDL
MODEL 3
REMARK VINA RESULT:      -6.4      2.943      6.360
REMARK  Name = 
REMARK  9 active torsions:
REMARK  status: ('A' for Active; 'I' for Inactive)
REMARK    1  A    between atoms: C_1  and  C_2
REMARK    2  A    between atoms: C_2  and  N_3
REMARK    3  A    between atoms: C_7  and  C_8
REMARK    4  A    between atoms: C_8  and  N_9
REMARK    5  A    between atoms: C_10  and  C_12
REMARK    6  A    between atoms: C_13  and  O_14
REMARK    7  A    between atoms: O_14  and  C_15
REMARK    8  A    between atoms: C_20  and  O_21
REMARK    9  A    between atoms: O_21  and  C_22
REMARK                            x       y       z     vdW  Elec       q    Type
REMARK                         _______ _______ _______ _____ _____    ______ ____
ROOT
ATOM      1  N   UNL     1       2.417   8.151  17.707  0.00  0.00    +0.000 N 
ATOM      2  C   UNL     1       2.772   7.124  18.543  0.00  0.00    +0.000 C 
ATOM      3  O   UNL     1       2.760   7.341  19.747  0.00  0.00    +0.000 OA
ATOM      4  H   UNL     1       2.345   8.026  16.698  0.00  0.00    +0.000 HD
ENDROOT
BRANCH   2   5
ATOM      5  C   UNL     1       3.082   5.703  18.060  0.00  0.00    +0.000 A 
ATOM      6  C   UNL     1       2.326   4.560  18.472  0.00  0.00    +0.000 A 
ATOM      7  C   UNL     1       2.680   3.281  18.002  0.00  0.00    +0.000 A 
ATOM      8  C   UNL     1       3.741   3.107  17.137  0.00  0.00    +0.000 A 
ATOM      9  C   UNL     1       4.503   4.187  16.711  0.00  0.00    +0.000 A 
ATOM     10 CL   UNL     1       5.824   3.769  15.619  0.00  0.00    +0.000 Cl
ATOM     11  C   UNL     1       4.191   5.502  17.165  0.00  0.00    +0.000 A 
BRANCH   6  12
ATOM     12  O   UNL     1       1.270   4.692  19.311  0.00  0.00    +0.000 OA
ATOM     13  C   UNL     1       0.976   3.934  20.423  0.00  0.00    +0.000 C 
ENDBRANCH   6  12
BRANCH  11  14
ATOM     14  O   UNL     1       4.923   6.598  16.804  0.00  0.00    +0.000 OA
ATOM     15  C   UNL     1       6.195   6.987  17.164  0.00  0.00    +0.000 C 
ENDBRANCH  11  14
ENDBRANCH   2   5
BRANCH   1  16
ATOM     16  C   UNL     1       1.950   9.451  18.174  0.00  0.00    +0.000 C 
BRANCH  16  21
ATOM     17  N   UNL     1       0.447   9.900  20.115  0.00  0.00    +0.000 NA
ATOM     18  C   UNL     1      -0.496  11.024  19.950  0.00  0.00    +0.000 C 
ATOM     19  C   UNL     1      -1.472  10.571  18.880  0.00  0.00    +0.000 C 
ATOM     20  C   UNL     1      -0.512  10.008  17.872  0.00  0.00    +0.000 C 
ATOM     21  C   UNL     1       0.527   9.286  18.759  0.00  0.00    +0.000 C 
BRANCH  17  23
ATOM     22  C   UNL     1      -0.136   9.619  22.548  0.00  0.00    +0.000 C 
ATOM     23  C   UNL     1      -0.060   8.974  21.161  0.00  0.00    +0.000 C 
ENDBRANCH  17  23
ENDBRANCH  16  21
ENDBRANCH   1  16
TORSDOF 6
ENDMDL
MODEL 4
REMARK VINA RESULT:      -6.4      1.165      2.980
REMARK  Name = 
REMARK  9 active torsions:
REMARK  status: ('A' for Active; 'I' for Inactive)
REMARK    1  A    between atoms: C_1  and  C_2
REMARK    2  A    between atoms: C_2  and  N_3
REMARK    3  A    between atoms: C_7  and  C_8
REMARK    4  A    between atoms: C_8  and  N_9
REMARK    5  A    between atoms: C_10  and  C_12
REMARK    6  A    between atoms: C_13  and  O_14
REMARK    7  A    between atoms: O_14  and  C_15
REMARK    8  A    between atoms: C_20  and  O_21
REMARK    9  A    between atoms: O_21  and  C_22
REMARK                            x       y       z     vdW  Elec       q    Type
REMARK                         _______ _______ _______ _____ _____    ______ ____
ROOT
ATOM      1  N   UNL     1       4.593   6.096  16.990  0.00  0.00    +0.000 N 
ATOM      2  C   UNL     1       3.823   4.986  17.227  0.00  0.00    +0.000 C 
ATOM      3  O   UNL     1       3.951   4.033  16.470  0.00  0.00    +0.000 OA
ATOM      4  H   UNL     1       4.584   6.903  17.612  0.00  0.00    +0.000 HD
ENDROOT
BRANCH   2   5
ATOM      5  C   UNL     1       2.894   4.839  18.436  0.00  0.00    +0.000 A 
ATOM      6  C   UNL     1       2.384   3.576  18.875  0.00  0.00    +0.000 A 
ATOM      7  C   UNL     1       1.519   3.518  19.984  0.00  0.00    +0.000 A 
ATOM      8  C   UNL     1       1.160   4.662  20.670  0.00  0.00    +0.000 A 
ATOM      9  C   UNL     1       1.630   5.908  20.280  0.00  0.00    +0.000 A 
ATOM     10 CL   UNL     1       1.054   7.252  21.267  0.00  0.00    +0.000 Cl
ATOM     11  C   UNL     1       2.502   6.022  19.157  0.00  0.00    +0.000 A 
BRANCH   6  12
ATOM     12  O   UNL     1       2.723   2.431  18.236  0.00  0.00    +0.000 OA
ATOM     13  C   UNL     1       3.582   1.445  18.669  0.00  0.00    +0.000 C 
ENDBRANCH   6  12
BRANCH  11  14
ATOM     14  O   UNL     1       2.972   7.224  18.709  0.00  0.00    +0.000 OA
ATOM     15  C   UNL     1       2.304   8.317  18.201  0.00  0.00    +0.000 C 
ENDBRANCH  11  14
ENDBRANCH   2   5
BRANCH   1  16
ATOM     16  C   UNL     1       5.606   6.170  15.944  0.00  0.00    +0.000 C 
BRANCH  16  21
ATOM     17  N   UNL     1       7.040   6.676  17.923  0.00  0.00    +0.000 NA
ATOM     18  C   UNL     1       7.221   5.569  18.884  0.00  0.00    +0.000 C 
ATOM     19  C   UNL     1       8.042   4.530  18.144  0.00  0.00    +0.000 C 
ATOM     20  C   UNL     1       7.316   4.510  16.830  0.00  0.00    +0.000 C 
ATOM     21  C   UNL     1       7.002   6.003  16.593  0.00  0.00    +0.000 C 
BRANCH  17  23
ATOM     22  C   UNL     1       7.744   9.085  17.734  0.00  0.00    +0.000 C 
ATOM     23  C   UNL     1       8.154   7.648  18.069  0.00  0.00    +0.000 C 
ENDBRANCH  17  23
ENDBRANCH  16  21
ENDBRANCH   1  16
TORSDOF 6
ENDMDL
MODEL 5
REMARK VINA RESULT:      -6.4      1.345      3.067
REMARK  Name = 
REMARK  9 active torsions:
REMARK  status: ('A' for Active; 'I' for Inactive)
REMARK    1  A    between atoms: C_1  and  C_2
REMARK    2  A    between atoms: C_2  and  N_3
REMARK    3  A    between atoms: C_7  and  C_8
REMARK    4  A    between atoms: C_8  and  N_9
REMARK    5  A    between atoms: C_10  and  C_12
REMARK    6  A    between atoms: C_13  and  O_14
REMARK    7  A    between atoms: O_14  and  C_15
REMARK    8  A    between atoms: C_20  and  O_21
REMARK    9  A    between atoms: O_21  and  C_22
REMARK                            x       y       z     vdW  Elec       q    Type
REMARK                         _______ _______ _______ _____ _____    ______ ____
ROOT
ATOM      1  N   UNL     1       4.588   6.685  17.092  0.00  0.00    +0.000 N 
ATOM      2  C   UNL     1       3.697   5.747  17.546  0.00  0.00    +0.000 C 
ATOM      3  O   UNL     1       3.635   4.683  16.944  0.00  0.00    +0.000 OA
ATOM      4  H   UNL     1       4.738   7.568  17.577  0.00  0.00    +0.000 HD
ENDROOT
BRANCH   2   5
ATOM      5  C   UNL     1       2.856   5.919  18.815  0.00  0.00    +0.000 A 
ATOM      6  C   UNL     1       2.476   4.820  19.650  0.00  0.00    +0.000 A 
ATOM      7  C   UNL     1       1.686   5.050  20.792  0.00  0.00    +0.000 A 
ATOM      8  C   UNL     1       1.276   6.324  21.131  0.00  0.00    +0.000 A 
ATOM      9  C   UNL     1       1.619   7.419  20.350  0.00  0.00    +0.000 A 
ATOM     10 CL   UNL     1       0.994   8.962  20.933  0.00  0.00    +0.000 Cl
ATOM     11  C   UNL     1       2.411   7.238  19.178  0.00  0.00    +0.000 A 
BRANCH   6  12
ATOM     12  O   UNL     1       2.870   3.558  19.357  0.00  0.00    +0.000 OA
ATOM     13  C   UNL     1       2.509   2.391  19.995  0.00  0.00    +0.000 C 
ENDBRANCH   6  12
BRANCH  11  14
ATOM     14  O   UNL     1       2.755   8.273  18.355  0.00  0.00    +0.000 OA
ATOM     15  C   UNL     1       1.969   9.164  17.657  0.00  0.00    +0.000 C 
ENDBRANCH  11  14
ENDBRANCH   2   5
BRANCH   1  16
ATOM     16  C   UNL     1       5.516   6.453  15.991  0.00  0.00    +0.000 C 
BRANCH  16  21
ATOM     17  N   UNL     1       7.015   6.654  17.977  0.00  0.00    +0.000 NA
ATOM     18  C   UNL     1       7.162   5.434  18.795  0.00  0.00    +0.000 C 
ATOM     19  C   UNL     1       7.916   4.454  17.916  0.00  0.00    +0.000 C 
ATOM     20  C   UNL     1       7.161   4.623  16.629  0.00  0.00    +0.000 C 
ATOM     21  C   UNL     1       6.915   6.147  16.578  0.00  0.00    +0.000 C 
BRANCH  17  23
ATOM     22  C   UNL     1       7.912   8.998  17.781  0.00  0.00    +0.000 C 
ATOM     23  C   UNL     1       8.178   7.550  18.205  0.00  0.00    +0.000 C 
ENDBRANCH  17  23
ENDBRANCH  16  21
ENDBRANCH   1  16
TORSDOF 6
ENDMDL
MODEL 6
REMARK VINA RESULT:      -6.3      1.986      3.090
REMARK  Name = 
REMARK  9 active torsions:
REMARK  status: ('A' for Active; 'I' for Inactive)
REMARK    1  A    between atoms: C_1  and  C_2
REMARK    2  A    between atoms: C_2  and  N_3
REMARK    3  A    between atoms: C_7  and  C_8
REMARK    4  A    between atoms: C_8  and  N_9
REMARK    5  A    between atoms: C_10  and  C_12
REMARK    6  A    between atoms: C_13  and  O_14
REMARK    7  A    between atoms: O_14  and  C_15
REMARK    8  A    between atoms: C_20  and  O_21
REMARK    9  A    between atoms: O_21  and  C_22
REMARK                            x       y       z     vdW  Elec       q    Type
REMARK                         _______ _______ _______ _____ _____    ______ ____
ROOT
ATOM      1  N   UNL     1       5.831   4.140  17.974  0.00  0.00    +0.000 N 
ATOM      2  C   UNL     1       5.460   4.745  19.147  0.00  0.00    +0.000 C 
ATOM      3  O   UNL     1       6.310   5.389  19.748  0.00  0.00    +0.000 OA
ATOM      4  H   UNL     1       5.163   3.639  17.390  0.00  0.00    +0.000 HD
ENDROOT
BRANCH   2   5
ATOM      5  C   UNL     1       4.028   4.742  19.689  0.00  0.00    +0.000 A 
ATOM      6  C   UNL     1       3.145   5.861  19.559  0.00  0.00    +0.000 A 
ATOM      7  C   UNL     1       1.847   5.794  20.098  0.00  0.00    +0.000 A 
ATOM      8  C   UNL     1       1.400   4.659  20.745  0.00  0.00    +0.000 A 
ATOM      9  C   UNL     1       2.221   3.550  20.896  0.00  0.00    +0.000 A 
ATOM     10 CL   UNL     1       1.482   2.201  21.759  0.00  0.00    +0.000 Cl
ATOM     11  C   UNL     1       3.549   3.571  20.375  0.00  0.00    +0.000 A 
BRANCH   6  12
ATOM     12  O   UNL     1       3.543   6.988  18.921  0.00  0.00    +0.000 OA
ATOM     13  C   UNL     1       2.922   7.626  17.870  0.00  0.00    +0.000 C 
ENDBRANCH   6  12
BRANCH  11  14
ATOM     14  O   UNL     1       4.412   2.521  20.519  0.00  0.00    +0.000 OA
ATOM     15  C   UNL     1       4.531   1.352  19.801  0.00  0.00    +0.000 C 
ENDBRANCH  11  14
ENDBRANCH   2   5
BRANCH   1  16
ATOM     16  C   UNL     1       7.148   4.289  17.366  0.00  0.00    +0.000 C 
BRANCH  16  21
ATOM     17  N   UNL     1       6.289   4.373  15.024  0.00  0.00    +0.000 NA
ATOM     18  C   UNL     1       5.027   5.117  14.830  0.00  0.00    +0.000 C 
ATOM     19  C   UNL     1       5.376   6.568  15.101  0.00  0.00    +0.000 C 
ATOM     20  C   UNL     1       6.178   6.414  16.361  0.00  0.00    +0.000 C 
ATOM     21  C   UNL     1       7.007   5.141  16.081  0.00  0.00    +0.000 C 
BRANCH  17  23
ATOM     22  C   UNL     1       6.236   3.583  12.635  0.00  0.00    +0.000 C 
ATOM     23  C   UNL     1       7.025   4.298  13.736  0.00  0.00    +0.000 C 
ENDBRANCH  17  23
ENDBRANCH  16  21
ENDBRANCH   1  16
TORSDOF 6
ENDMDL
MODEL 7
REMARK VINA RESULT:      -6.2      2.400      5.881
REMARK  Name = 
REMARK  9 active torsions:
REMARK  status: ('A' for Active; 'I' for Inactive)
REMARK    1  A    between atoms: C_1  and  C_2
REMARK    2  A    between atoms: C_2  and  N_3
REMARK    3  A    between atoms: C_7  and  C_8
REMARK    4  A    between atoms: C_8  and  N_9
REMARK    5  A    between atoms: C_10  and  C_12
REMARK    6  A    between atoms: C_13  and  O_14
REMARK    7  A    between atoms: O_14  and  C_15
REMARK    8  A    between atoms: C_20  and  O_21
REMARK    9  A    between atoms: O_21  and  C_22
REMARK                            x       y       z     vdW  Elec       q    Type
REMARK                         _______ _______ _______ _____ _____    ______ ____
ROOT
ATOM      1  N   UNL     1       2.257   7.627  17.868  0.00  0.00    +0.000 N 
ATOM      2  C   UNL     1       3.430   6.926  17.757  0.00  0.00    +0.000 C 
ATOM      3  O   UNL     1       4.475   7.564  17.744  0.00  0.00    +0.000 OA
ATOM      4  H   UNL     1       1.354   7.161  17.945  0.00  0.00    +0.000 HD
ENDROOT
BRANCH   2   5
ATOM      5  C   UNL     1       3.508   5.396  17.749  0.00  0.00    +0.000 A 
ATOM      6  C   UNL     1       4.371   4.666  16.870  0.00  0.00    +0.000 A 
ATOM      7  C   UNL     1       4.377   3.260  16.905  0.00  0.00    +0.000 A 
ATOM      8  C   UNL     1       3.571   2.564  17.784  0.00  0.00    +0.000 A 
ATOM      9  C   UNL     1       2.717   3.229  18.654  0.00  0.00    +0.000 A 
ATOM     10 CL   UNL     1       1.757   2.174  19.691  0.00  0.00    +0.000 Cl
ATOM     11  C   UNL     1       2.667   4.655  18.652  0.00  0.00    +0.000 A 
BRANCH   6  12
ATOM     12  O   UNL     1       5.185   5.314  16.003  0.00  0.00    +0.000 OA
ATOM     13  C   UNL     1       6.505   5.040  15.719  0.00  0.00    +0.000 C 
ENDBRANCH   6  12
BRANCH  11  14
ATOM     14  O   UNL     1       1.826   5.363  19.463  0.00  0.00    +0.000 OA
ATOM     15  C   UNL     1       1.814   5.511  20.833  0.00  0.00    +0.000 C 
ENDBRANCH  11  14
ENDBRANCH   2   5
BRANCH   1  16
ATOM     16  C   UNL     1       2.192   9.072  18.054  0.00  0.00    +0.000 C 
BRANCH  16  21
ATOM     17  N   UNL     1       1.112  10.628  19.681  0.00  0.00    +0.000 NA
ATOM     18  C   UNL     1       0.201  11.633  19.098  0.00  0.00    +0.000 C 
ATOM     19  C   UNL     1      -0.981  10.840  18.572  0.00  0.00    +0.000 C 
ATOM     20  C   UNL     1      -0.258   9.726  17.871  0.00  0.00    +0.000 C 
ATOM     21  C   UNL     1       0.903   9.413  18.840  0.00  0.00    +0.000 C 
BRANCH  17  23
ATOM     22  C   UNL     1       0.581   8.953  21.482  0.00  0.00    +0.000 C 
ATOM     23  C   UNL     1       0.781  10.426  21.114  0.00  0.00    +0.000 C 
ENDBRANCH  17  23
ENDBRANCH  16  21
ENDBRANCH   1  16
TORSDOF 6
ENDMDL
MODEL 8
REMARK VINA RESULT:      -6.1      2.938      6.453
REMARK  Name = 
REMARK  9 active torsions:
REMARK  status: ('A' for Active; 'I' for Inactive)
REMARK    1  A    between atoms: C_1  and  C_2
REMARK    2  A    between atoms: C_2  and  N_3
REMARK    3  A    between atoms: C_7  and  C_8
REMARK    4  A    between atoms: C_8  and  N_9
REMARK    5  A    between atoms: C_10  and  C_12
REMARK    6  A    between atoms: C_13  and  O_14
REMARK    7  A    between atoms: O_14  and  C_15
REMARK    8  A    between atoms: C_20  and  O_21
REMARK    9  A    between atoms: O_21  and  C_22
REMARK                            x       y       z     vdW  Elec       q    Type
REMARK                         _______ _______ _______ _____ _____    ______ ____
ROOT
ATOM      1  N   UNL     1       1.980   8.190  18.661  0.00  0.00    +0.000 N 
ATOM      2  C   UNL     1       2.505   7.050  19.212  0.00  0.00    +0.000 C 
ATOM      3  O   UNL     1       2.448   6.927  20.429  0.00  0.00    +0.000 OA
ATOM      4  H   UNL     1       1.938   8.333  17.653  0.00  0.00    +0.000 HD
ENDROOT
BRANCH   2   5
ATOM      5  C   UNL     1       3.064   5.886  18.387  0.00  0.00    +0.000 A 
ATOM      6  C   UNL     1       4.208   6.016  17.537  0.00  0.00    +0.000 A 
ATOM      7  C   UNL     1       4.655   4.908  16.793  0.00  0.00    +0.000 A 
ATOM      8  C   UNL     1       4.015   3.688  16.875  0.00  0.00    +0.000 A 
ATOM      9  C   UNL     1       2.901   3.516  17.685  0.00  0.00    +0.000 A 
ATOM     10 CL   UNL     1       2.211   1.893  17.650  0.00  0.00    +0.000 Cl
ATOM     11  C   UNL     1       2.403   4.610  18.452  0.00  0.00    +0.000 A 
BRANCH   6  12
ATOM     12  O   UNL     1       4.870   7.194  17.440  0.00  0.00    +0.000 OA
ATOM     13  C   UNL     1       6.219   7.390  17.246  0.00  0.00    +0.000 C 
ENDBRANCH   6  12
BRANCH  11  14
ATOM     14  O   UNL     1       1.293   4.508  19.244  0.00  0.00    +0.000 OA
ATOM     15  C   UNL     1       1.073   3.780  20.392  0.00  0.00    +0.000 C 
ENDBRANCH  11  14
ENDBRANCH   2   5
BRANCH   1  16
ATOM     16  C   UNL     1       1.289   9.218  19.431  0.00  0.00    +0.000 C 
BRANCH  16  21
ATOM     17  N   UNL     1      -0.866  10.167  18.602  0.00  0.00    +0.000 NA
ATOM     18  C   UNL     1      -1.213  11.509  19.111  0.00  0.00    +0.000 C 
ATOM     19  C   UNL     1      -0.188  12.444  18.498  0.00  0.00    +0.000 C 
ATOM     20  C   UNL     1       1.066  11.655  18.742  0.00  0.00    +0.000 C 
ATOM     21  C   UNL     1       0.617  10.206  18.448  0.00  0.00    +0.000 C 
BRANCH  17  23
ATOM     22  C   UNL     1      -3.109   9.817  17.516  0.00  0.00    +0.000 C 
ATOM     23  C   UNL     1      -1.591   9.913  17.331  0.00  0.00    +0.000 C 
ENDBRANCH  17  23
ENDBRANCH  16  21
ENDBRANCH   1  16
TORSDOF 6
ENDMDL
MODEL 9
REMARK VINA RESULT:      -6.1      3.147      6.675
REMARK  Name = 
REMARK  9 active torsions:
REMARK  status: ('A' for Active; 'I' for Inactive)
REMARK    1  A    between atoms: C_1  and  C_2
REMARK    2  A    between atoms: C_2  and  N_3
REMARK    3  A    between atoms: C_7  and  C_8
REMARK    4  A    between atoms: C_8  and  N_9
REMARK    5  A    between atoms: C_10  and  C_12
REMARK    6  A    between atoms: C_13  and  O_14
REMARK    7  A    between atoms: O_14  and  C_15
REMARK    8  A    between atoms: C_20  and  O_21
REMARK    9  A    between atoms: O_21  and  C_22
REMARK                            x       y       z     vdW  Elec       q    Type
REMARK                         _______ _______ _______ _____ _____    ______ ____
ROOT
ATOM      1  N   UNL     1       2.018   7.951  18.803  0.00  0.00    +0.000 N 
ATOM      2  C   UNL     1       2.298   6.731  19.364  0.00  0.00    +0.000 C 
ATOM      3  O   UNL     1       2.143   6.611  20.572  0.00  0.00    +0.000 OA
ATOM      4  H   UNL     1       2.066   8.107  17.798  0.00  0.00    +0.000 HD
ENDROOT
BRANCH   2   5
ATOM      5  C   UNL     1       2.693   5.494  18.552  0.00  0.00    +0.000 A 
ATOM      6  C   UNL     1       2.061   4.220  18.719  0.00  0.00    +0.000 A 
ATOM      7  C   UNL     1       2.489   3.121  17.951  0.00  0.00    +0.000 A 
ATOM      8  C   UNL     1       3.505   3.249  17.026  0.00  0.00    +0.000 A 
ATOM      9  C   UNL     1       4.148   4.464  16.831  0.00  0.00    +0.000 A 
ATOM     10 CL   UNL     1       5.428   4.432  15.618  0.00  0.00    +0.000 Cl
ATOM     11  C   UNL     1       3.758   5.607  17.590  0.00  0.00    +0.000 A 
BRANCH   6  12
ATOM     12  O   UNL     1       1.052   4.058  19.608  0.00  0.00    +0.000 OA
ATOM     13  C   UNL     1       1.008   3.204  20.688  0.00  0.00    +0.000 C 
ENDBRANCH   6  12
BRANCH  11  14
ATOM     14  O   UNL     1       4.373   6.820  17.463  0.00  0.00    +0.000 OA
ATOM     15  C   UNL     1       5.710   7.148  17.414  0.00  0.00    +0.000 C 
ENDBRANCH  11  14
ENDBRANCH   2   5
BRANCH   1  16
ATOM     16  C   UNL     1       1.472   9.079  19.549  0.00  0.00    +0.000 C 
BRANCH  16  21
ATOM     17  N   UNL     1      -0.630  10.139  18.720  0.00  0.00    +0.000 NA
ATOM     18  C   UNL     1      -0.885  11.514  19.196  0.00  0.00    +0.000 C 
ATOM     19  C   UNL     1       0.188  12.366  18.544  0.00  0.00    +0.000 C 
ATOM     20  C   UNL     1       1.392  11.506  18.795  0.00  0.00    +0.000 C 
ATOM     21  C   UNL     1       0.850  10.081  18.547  0.00  0.00    +0.000 C 
BRANCH  17  23
ATOM     22  C   UNL     1      -2.905   9.866  17.678  0.00  0.00    +0.000 C 
ATOM     23  C   UNL     1      -1.389   9.897  17.466  0.00  0.00    +0.000 C 
ENDBRANCH  17  23
ENDBRANCH  16  21
ENDBRANCH   1  16
TORSDOF 6
ENDMDL
