MODEL 1
REMARK VINA RESULT:      -6.0      0.000      0.000
REMARK  Name = 
REMARK  5 active torsions:
REMARK  status: ('A' for Active; 'I' for Inactive)
REMARK    1  A    between atoms: C_1  and  C_2
REMARK    2  A    between atoms: C_2  and  C_3
REMARK    3  A    between atoms: C_2  and  C_4
REMARK    4  A    between atoms: C_4  and  C_6
REMARK    5  A    between atoms: C_7  and  O_8
REMARK                            x       y       z     vdW  Elec       q    Type
REMARK                         _______ _______ _______ _____ _____    ______ ____
ROOT
ATOM      1  C   UNL     1       3.595   3.754  18.945  0.00  0.00    +0.000 C 
ATOM      2  C   UNL     1       3.060   4.614  19.842  0.00  0.00    +0.000 C 
ATOM      3  C   UNL     1       1.847   4.302  20.677  0.00  0.00    +0.000 C 
ATOM      4  C   UNL     1       0.909   3.381  19.922  0.00  0.00    +0.000 C 
ATOM      5  C   UNL     1       1.643   2.123  19.504  0.00  0.00    +0.000 C 
ATOM      6  C   UNL     1       2.942   2.418  18.779  0.00  0.00    +0.000 C 
ATOM      7  O   UNL     1       3.449   1.542  18.082  0.00  0.00    +0.000 OA
ENDROOT
BRANCH   1   8
ATOM      8  C   UNL     1       4.821   4.179  18.182  0.00  0.00    +0.000 C 
ATOM      9  O   UNL     1       5.908   4.174  18.774  0.00  0.00    +0.000 OA
BRANCH   8  11
ATOM     10  C   UNL     1       4.895   6.090  16.546  0.00  0.00    +0.000 C 
ATOM     11  C   UNL     1       4.738   4.572  16.703  0.00  0.00    +0.000 C 
ATOM     12  C   UNL     1       5.815   3.868  15.879  0.00  0.00    +0.000 C 
ENDBRANCH   8  11
ENDBRANCH   1   8
BRANCH   2  13
ATOM     13  O   UNL     1       3.530   5.900  20.058  0.00  0.00    +0.000 OA
ATOM     14  H   UNL     1       4.098   6.164  19.297  0.00  0.00    +0.000 HD
ENDBRANCH   2  13
TORSDOF 3
ENDMDL
MODEL 2
REMARK VINA RESULT:      -6.0      1.401      2.569
REMARK  Name = 
REMARK  5 active torsions:
REMARK  status: ('A' for Active; 'I' for Inactive)
REMARK    1  A    between atoms: C_1  and  C_2
REMARK    2  A    between atoms: C_2  and  C_3
REMARK    3  A    between atoms: C_2  and  C_4
REMARK    4  A    between atoms: C_4  and  C_6
REMARK    5  A    between atoms: C_7  and  O_8
REMARK                            x       y       z     vdW  Elec       q    Type
REMARK                         _______ _______ _______ _____ _____    ______ ____
ROOT
ATOM      1  C   UNL     1       4.203   4.466  19.474  0.00  0.00    +0.000 C 
ATOM      2  C   UNL     1       4.030   3.176  19.842  0.00  0.00    +0.000 C 
ATOM      3  C   UNL     1       2.742   2.633  20.400  0.00  0.00    +0.000 C 
ATOM      4  C   UNL     1       2.013   3.705  21.187  0.00  0.00    +0.000 C 
ATOM      5  C   UNL     1       1.779   4.921  20.312  0.00  0.00    +0.000 C 
ATOM      6  C   UNL     1       3.046   5.402  19.630  0.00  0.00    +0.000 C 
ATOM      7  O   UNL     1       3.090   6.550  19.195  0.00  0.00    +0.000 OA
ENDROOT
BRANCH   1   8
ATOM      8  C   UNL     1       5.536   4.883  18.913  0.00  0.00    +0.000 C 
ATOM      9  O   UNL     1       6.475   5.055  19.702  0.00  0.00    +0.000 OA
BRANCH   8  11
ATOM     10  C   UNL     1       7.163   4.625  17.010  0.00  0.00    +0.000 C 
ATOM     11  C   UNL     1       5.744   5.053  17.403  0.00  0.00    +0.000 C 
ATOM     12  C   UNL     1       4.733   4.231  16.606  0.00  0.00    +0.000 C 
ENDBRANCH   8  11
ENDBRANCH   1   8
BRANCH   2  13
ATOM     13  O   UNL     1       5.030   2.218  19.799  0.00  0.00    +0.000 OA
ATOM     14  H   UNL     1       5.141   1.913  18.869  0.00  0.00    +0.000 HD
ENDBRANCH   2  13
TORSDOF 3
ENDMDL
MODEL 3
REMARK VINA RESULT:      -5.9      1.732      2.794
REMARK  Name = 
REMARK  5 active torsions:
REMARK  status: ('A' for Active; 'I' for Inactive)
REMARK    1  A    between atoms: C_1  and  C_2
REMARK    2  A    between atoms: C_2  and  C_3
REMARK    3  A    between atoms: C_2  and  C_4
REMARK    4  A    between atoms: C_4  and  C_6
REMARK    5  A    between atoms: C_7  and  O_8
REMARK                            x       y       z     vdW  Elec       q    Type
REMARK                         _______ _______ _______ _____ _____    ______ ____
ROOT
ATOM      1  C   UNL     1       4.597   4.464  18.513  0.00  0.00    +0.000 C 
ATOM      2  C   UNL     1       4.243   3.216  18.899  0.00  0.00    +0.000 C 
ATOM      3  C   UNL     1       2.849   2.666  18.767  0.00  0.00    +0.000 C 
ATOM      4  C   UNL     1       1.826   3.776  18.911  0.00  0.00    +0.000 C 
ATOM      5  C   UNL     1       2.099   4.867  17.895  0.00  0.00    +0.000 C 
ATOM      6  C   UNL     1       3.540   5.341  17.920  0.00  0.00    +0.000 C 
ATOM      7  O   UNL     1       3.818   6.432  17.428  0.00  0.00    +0.000 OA
ENDROOT
BRANCH   1   8
ATOM      8  C   UNL     1       6.030   4.891  18.683  0.00  0.00    +0.000 C 
ATOM      9  O   UNL     1       6.434   5.142  19.827  0.00  0.00    +0.000 OA
BRANCH   8  11
ATOM     10  C   UNL     1       6.373   4.259  16.272  0.00  0.00    +0.000 C 
ATOM     11  C   UNL     1       6.980   4.978  17.483  0.00  0.00    +0.000 C 
ATOM     12  C   UNL     1       7.273   6.431  17.109  0.00  0.00    +0.000 C 
ENDBRANCH   8  11
ENDBRANCH   1   8
BRANCH   2  13
ATOM     13  O   UNL     1       5.107   2.320  19.510  0.00  0.00    +0.000 OA
ATOM     14  H   UNL     1       5.779   2.826  20.023  0.00  0.00    +0.000 HD
ENDBRANCH   2  13
TORSDOF 3
ENDMDL
MODEL 4
REMARK VINA RESULT:      -5.9      1.741      2.329
REMARK  Name = 
REMARK  5 active torsions:
REMARK  status: ('A' for Active; 'I' for Inactive)
REMARK    1  A    between atoms: C_1  and  C_2
REMARK    2  A    between atoms: C_2  and  C_3
REMARK    3  A    between atoms: C_2  and  C_4
REMARK    4  A    between atoms: C_4  and  C_6
REMARK    5  A    between atoms: C_7  and  O_8
REMARK                            x       y       z     vdW  Elec       q    Type
REMARK                         _______ _______ _______ _____ _____    ______ ____
ROOT
ATOM      1  C   UNL     1       3.270   3.870  18.351  0.00  0.00    +0.000 C 
ATOM      2  C   UNL     1       3.915   3.269  19.378  0.00  0.00    +0.000 C 
ATOM      3  C   UNL     1       3.212   2.545  20.495  0.00  0.00    +0.000 C 
ATOM      4  C   UNL     1       1.863   3.180  20.771  0.00  0.00    +0.000 C 
ATOM      5  C   UNL     1       1.032   3.202  19.504  0.00  0.00    +0.000 C 
ATOM      6  C   UNL     1       1.775   3.807  18.328  0.00  0.00    +0.000 C 
ATOM      7  O   UNL     1       1.134   4.215  17.362  0.00  0.00    +0.000 OA
ENDROOT
BRANCH   1   8
ATOM      8  C   UNL     1       4.088   4.550  17.286  0.00  0.00    +0.000 C 
ATOM      9  O   UNL     1       4.357   3.912  16.259  0.00  0.00    +0.000 OA
BRANCH   8  11
ATOM     10  C   UNL     1       5.110   6.531  16.120  0.00  0.00    +0.000 C 
ATOM     11  C   UNL     1       4.548   6.004  17.445  0.00  0.00    +0.000 C 
ATOM     12  C   UNL     1       3.399   6.904  17.897  0.00  0.00    +0.000 C 
ENDBRANCH   8  11
ENDBRANCH   1   8
BRANCH   2  13
ATOM     13  O   UNL     1       5.289   3.296  19.551  0.00  0.00    +0.000 OA
ATOM     14  H   UNL     1       5.629   2.371  19.550  0.00  0.00    +0.000 HD
ENDBRANCH   2  13
TORSDOF 3
ENDMDL
MODEL 5
REMARK VINA RESULT:      -5.8      1.511      2.437
REMARK  Name = 
REMARK  5 active torsions:
REMARK  status: ('A' for Active; 'I' for Inactive)
REMARK    1  A    between atoms: C_1  and  C_2
REMARK    2  A    between atoms: C_2  and  C_3
REMARK    3  A    between atoms: C_2  and  C_4
REMARK    4  A    between atoms: C_4  and  C_6
REMARK    5  A    between atoms: C_7  and  O_8
REMARK                            x       y       z     vdW  Elec       q    Type
REMARK                         _______ _______ _______ _____ _____    ______ ____
ROOT
ATOM      1  C   UNL     1       4.065   4.010  18.701  0.00  0.00    +0.000 C 
ATOM      2  C   UNL     1       3.927   2.732  19.124  0.00  0.00    +0.000 C 
ATOM      3  C   UNL     1       2.608   2.011  19.187  0.00  0.00    +0.000 C 
ATOM      4  C   UNL     1       1.486   2.988  19.482  0.00  0.00    +0.000 C 
ATOM      5  C   UNL     1       1.474   4.093  18.445  0.00  0.00    +0.000 C 
ATOM      6  C   UNL     1       2.834   4.742  18.269  0.00  0.00    +0.000 C 
ATOM      7  O   UNL     1       2.902   5.854  17.750  0.00  0.00    +0.000 OA
ENDROOT
BRANCH   1   8
ATOM      8  C   UNL     1       5.444   4.613  18.669  0.00  0.00    +0.000 C 
ATOM      9  O   UNL     1       5.996   4.865  19.749  0.00  0.00    +0.000 OA
BRANCH   8  11
ATOM     10  C   UNL     1       7.663   4.580  17.484  0.00  0.00    +0.000 C 
ATOM     11  C   UNL     1       6.165   4.876  17.342  0.00  0.00    +0.000 C 
ATOM     12  C   UNL     1       5.588   4.020  16.216  0.00  0.00    +0.000 C 
ENDBRANCH   8  11
ENDBRANCH   1   8
BRANCH   2  13
ATOM     13  O   UNL     1       4.973   1.957  19.601  0.00  0.00    +0.000 OA
ATOM     14  H   UNL     1       4.962   1.087  19.139  0.00  0.00    +0.000 HD
ENDBRANCH   2  13
TORSDOF 3
ENDMDL
MODEL 6
REMARK VINA RESULT:      -5.8      1.743      2.755
REMARK  Name = 
REMARK  5 active torsions:
REMARK  status: ('A' for Active; 'I' for Inactive)
REMARK    1  A    between atoms: C_1  and  C_2
REMARK    2  A    between atoms: C_2  and  C_3
REMARK    3  A    between atoms: C_2  and  C_4
REMARK    4  A    between atoms: C_4  and  C_6
REMARK    5  A    between atoms: C_7  and  O_8
REMARK                            x       y       z     vdW  Elec       q    Type
REMARK                         _______ _______ _______ _____ _____    ______ ____
ROOT
ATOM      1  C   UNL     1       4.550   4.815  18.930  0.00  0.00    +0.000 C 
ATOM      2  C   UNL     1       4.313   3.528  19.271  0.00  0.00    +0.000 C 
ATOM      3  C   UNL     1       2.934   2.930  19.364  0.00  0.00    +0.000 C 
ATOM      4  C   UNL     1       1.930   3.981  19.795  0.00  0.00    +0.000 C 
ATOM      5  C   UNL     1       1.970   5.158  18.841  0.00  0.00    +0.000 C 
ATOM      6  C   UNL     1       3.375   5.689  18.627  0.00  0.00    +0.000 C 
ATOM      7  O   UNL     1       3.522   6.827  18.185  0.00  0.00    +0.000 OA
ENDROOT
BRANCH   1   8
ATOM      8  C   UNL     1       5.977   5.289  18.856  0.00  0.00    +0.000 C 
ATOM      9  O   UNL     1       6.644   5.302  19.900  0.00  0.00    +0.000 OA
BRANCH   8  11
ATOM     10  C   UNL     1       7.502   6.938  17.721  0.00  0.00    +0.000 C 
ATOM     11  C   UNL     1       6.606   5.708  17.522  0.00  0.00    +0.000 C 
ATOM     12  C   UNL     1       7.435   4.576  16.917  0.00  0.00    +0.000 C 
ENDBRANCH   8  11
ENDBRANCH   1   8
BRANCH   2  13
ATOM     13  O   UNL     1       5.303   2.625  19.627  0.00  0.00    +0.000 OA
ATOM     14  H   UNL     1       4.923   1.716  19.618  0.00  0.00    +0.000 HD
ENDBRANCH   2  13
TORSDOF 3
ENDMDL
MODEL 7
REMARK VINA RESULT:      -5.8      0.568      2.340
REMARK  Name = 
REMARK  5 active torsions:
REMARK  status: ('A' for Active; 'I' for Inactive)
REMARK    1  A    between atoms: C_1  and  C_2
REMARK    2  A    between atoms: C_2  and  C_3
REMARK    3  A    between atoms: C_2  and  C_4
REMARK    4  A    between atoms: C_4  and  C_6
REMARK    5  A    between atoms: C_7  and  O_8
REMARK                            x       y       z     vdW  Elec       q    Type
REMARK                         _______ _______ _______ _____ _____    ______ ____
ROOT
ATOM      1  C   UNL     1       3.420   3.903  19.013  0.00  0.00    +0.000 C 
ATOM      2  C   UNL     1       3.047   2.603  18.959  0.00  0.00    +0.000 C 
ATOM      3  C   UNL     1       1.765   2.078  19.547  0.00  0.00    +0.000 C 
ATOM      4  C   UNL     1       1.376   2.883  20.771  0.00  0.00    +0.000 C 
ATOM      5  C   UNL     1       1.270   4.352  20.413  0.00  0.00    +0.000 C 
ATOM      6  C   UNL     1       2.502   4.868  19.695  0.00  0.00    +0.000 C 
ATOM      7  O   UNL     1       2.713   6.079  19.666  0.00  0.00    +0.000 OA
ENDROOT
BRANCH   1   8
ATOM      8  C   UNL     1       4.721   4.306  18.372  0.00  0.00    +0.000 C 
ATOM      9  O   UNL     1       5.771   4.086  18.991  0.00  0.00    +0.000 OA
BRANCH   8  11
ATOM     10  C   UNL     1       5.241   6.391  17.062  0.00  0.00    +0.000 C 
ATOM     11  C   UNL     1       4.755   4.939  16.976  0.00  0.00    +0.000 C 
ATOM     12  C   UNL     1       5.669   4.158  16.033  0.00  0.00    +0.000 C 
ENDBRANCH   8  11
ENDBRANCH   1   8
BRANCH   2  13
ATOM     13  O   UNL     1       3.824   1.597  18.406  0.00  0.00    +0.000 OA
ATOM     14  H   UNL     1       4.584   1.415  19.006  0.00  0.00    +0.000 HD
ENDBRANCH   2  13
TORSDOF 3
ENDMDL
MODEL 8
REMARK VINA RESULT:      -5.8      1.669      2.064
REMARK  Name = 
REMARK  5 active torsions:
REMARK  status: ('A' for Active; 'I' for Inactive)
REMARK    1  A    between atoms: C_1  and  C_2
REMARK    2  A    between atoms: C_2  and  C_3
REMARK    3  A    between atoms: C_2  and  C_4
REMARK    4  A    between atoms: C_4  and  C_6
REMARK    5  A    between atoms: C_7  and  O_8
REMARK                            x       y       z     vdW  Elec       q    Type
REMARK                         _______ _______ _______ _____ _____    ______ ____
ROOT
ATOM      1  C   UNL     1       3.255   3.668  18.423  0.00  0.00    +0.000 C 
ATOM      2  C   UNL     1       3.834   3.108  19.510  0.00  0.00    +0.000 C 
ATOM      3  C   UNL     1       3.064   2.621  20.708  0.00  0.00    +0.000 C 
ATOM      4  C   UNL     1       1.819   3.462  20.914  0.00  0.00    +0.000 C 
ATOM      5  C   UNL     1       0.972   3.450  19.657  0.00  0.00    +0.000 C 
ATOM      6  C   UNL     1       1.765   3.807  18.415  0.00  0.00    +0.000 C 
ATOM      7  O   UNL     1       1.164   4.183  17.410  0.00  0.00    +0.000 OA
ENDROOT
BRANCH   1   8
ATOM      8  C   UNL     1       4.134   4.101  17.281  0.00  0.00    +0.000 C 
ATOM      9  O   UNL     1       4.762   3.230  16.663  0.00  0.00    +0.000 OA
BRANCH   8  11
ATOM     10  C   UNL     1       4.395   6.466  18.099  0.00  0.00    +0.000 C 
ATOM     11  C   UNL     1       4.226   5.573  16.864  0.00  0.00    +0.000 C 
ATOM     12  C   UNL     1       5.396   5.810  15.909  0.00  0.00    +0.000 C 
ENDBRANCH   8  11
ENDBRANCH   1   8
BRANCH   2  13
ATOM     13  O   UNL     1       5.203   2.967  19.672  0.00  0.00    +0.000 OA
ATOM     14  H   UNL     1       5.407   2.921  20.635  0.00  0.00    +0.000 HD
ENDBRANCH   2  13
TORSDOF 3
ENDMDL
MODEL 9
REMARK VINA RESULT:      -5.8      1.451      1.600
REMARK  Name = 
REMARK  5 active torsions:
REMARK  status: ('A' for Active; 'I' for Inactive)
REMARK    1  A    between atoms: C_1  and  C_2
REMARK    2  A    between atoms: C_2  and  C_3
REMARK    3  A    between atoms: C_2  and  C_4
REMARK    4  A    between atoms: C_4  and  C_6
REMARK    5  A    between atoms: C_7  and  O_8
REMARK                            x       y       z     vdW  Elec       q    Type
REMARK                         _______ _______ _______ _____ _____    ______ ____
ROOT
ATOM      1  C   UNL     1       3.177   4.341  19.252  0.00  0.00    +0.000 C 
ATOM      2  C   UNL     1       2.354   4.595  20.296  0.00  0.00    +0.000 C 
ATOM      3  C   UNL     1       1.275   3.652  20.756  0.00  0.00    +0.000 C 
ATOM      4  C   UNL     1       0.720   2.869  19.582  0.00  0.00    +0.000 C 
ATOM      5  C   UNL     1       1.841   2.137  18.872  0.00  0.00    +0.000 C 
ATOM      6  C   UNL     1       3.003   3.048  18.520  0.00  0.00    +0.000 C 
ATOM      7  O   UNL     1       3.796   2.694  17.651  0.00  0.00    +0.000 OA
ENDROOT
BRANCH   1   8
ATOM      8  C   UNL     1       4.228   5.358  18.900  0.00  0.00    +0.000 C 
ATOM      9  O   UNL     1       5.217   5.458  19.639  0.00  0.00    +0.000 OA
BRANCH   8  11
ATOM     10  C   UNL     1       3.158   7.404  17.900  0.00  0.00    +0.000 C 
ATOM     11  C   UNL     1       4.104   6.225  17.641  0.00  0.00    +0.000 C 
ATOM     12  C   UNL     1       5.464   6.761  17.197  0.00  0.00    +0.000 C 
ENDBRANCH   8  11
ENDBRANCH   1   8
BRANCH   2  13
ATOM     13  O   UNL     1       2.371   5.772  21.026  0.00  0.00    +0.000 OA
ATOM     14  H   UNL     1       2.092   6.515  20.441  0.00  0.00    +0.000 HD
ENDBRANCH   2  13
TORSDOF 3
ENDMDL
