MODEL 1
REMARK VINA RESULT:      -8.9      0.000      0.000
REMARK  Name = 
REMARK  10 active torsions:
REMARK  status: ('A' for Active; 'I' for Inactive)
REMARK    1  A    between atoms: N_4  and  C_5
REMARK    2  A    between atoms: C_9  and  C_10
REMARK    3  A    between atoms: N_12  and  N_13
REMARK    4  A    between atoms: N_16  and  C_17
REMARK    5  A    between atoms: C_17  and  C_18
REMARK    6  A    between atoms: C_17  and  C_22
REMARK    7  A    between atoms: C_18  and  C_19
REMARK    8  A    between atoms: C_19  and  O_21
REMARK    9  A    between atoms: C_25  and  O_26
REMARK   10  A    between atoms: O_26  and  C_27
REMARK                            x       y       z     vdW  Elec       q    Type
REMARK                         _______ _______ _______ _____ _____    ______ ____
ROOT
ATOM      1  N   UNL     1       8.633   8.313  18.896  0.00  0.00    +0.000 N 
ATOM      2  C   UNL     1       7.783   7.789  17.942  0.00  0.00    +0.000 C 
ATOM      3  O   UNL     1       7.587   8.310  16.849  0.00  0.00    +0.000 OA
ATOM      4  N   UNL     1       7.219   6.601  18.329  0.00  0.00    +0.000 N 
ATOM      5  H   UNL     1       8.422   8.165  19.879  0.00  0.00    +0.000 HD
ATOM      6  H   UNL     1       7.786   6.050  18.967  0.00  0.00    +0.000 HD
ENDROOT
BRANCH   1   9
ATOM      7  C   UNL     1       9.410  10.477  19.609  0.00  0.00    +0.000 C 
ATOM      8  O   UNL     1       9.081  10.265  20.774  0.00  0.00    +0.000 OA
ATOM      9  N   UNL     1       9.220   9.556  18.599  0.00  0.00    +0.000 N 
ATOM     10  H   UNL     1       9.513   9.694  17.634  0.00  0.00    +0.000 HD
BRANCH   7  15
ATOM     11  C   UNL     1      10.072  14.188  18.959  0.00  0.00    +0.000 A 
ATOM     12  C   UNL     1      11.393  14.105  18.493  0.00  0.00    +0.000 A 
ATOM     13  C   UNL     1      12.054  12.879  18.403  0.00  0.00    +0.000 A 
ATOM     14  C   UNL     1      11.400  11.708  18.779  0.00  0.00    +0.000 A 
ATOM     15  C   UNL     1      10.074  11.758  19.223  0.00  0.00    +0.000 A 
ATOM     16  C   UNL     1       9.418  12.997  19.306  0.00  0.00    +0.000 A 
BRANCH  11  20
ATOM     17  N   UNL     1       7.870  15.299  17.226  0.00  0.00    +0.000 NA
ATOM     18  C   UNL     1       8.400  15.893  18.236  0.00  0.00    +0.000 C 
ATOM     19  N   UNL     1       7.936  17.095  18.654  0.00  0.00    +0.000 N 
ATOM     20  N   UNL     1       9.451  15.451  18.977  0.00  0.00    +0.000 N 
ATOM     21  H   UNL     1       7.089  15.848  16.865  0.00  0.00    +0.000 HD
ATOM     22  H   UNL     1       7.326  17.573  18.002  0.00  0.00    +0.000 HD
ATOM     23  H   UNL     1       8.625  17.728  19.037  0.00  0.00    +0.000 HD
ATOM     24  H   UNL     1       9.751  16.035  19.743  0.00  0.00    +0.000 HD
ENDBRANCH  11  20
ENDBRANCH   7  15
ENDBRANCH   1   9
BRANCH   4  25
ATOM     25  C   UNL     1       6.400   5.822  17.397  0.00  0.00    +0.000 C 
BRANCH  25  26
ATOM     26  C   UNL     1       5.044   5.423  17.983  0.00  0.00    +0.000 A 
ATOM     27  C   UNL     1       3.947   5.099  17.173  0.00  0.00    +0.000 A 
ATOM     28  C   UNL     1       2.729   4.703  17.735  0.00  0.00    +0.000 A 
ATOM     29  C   UNL     1       2.577   4.598  19.116  0.00  0.00    +0.000 A 
ATOM     30  C   UNL     1       3.644   4.947  19.938  0.00  0.00    +0.000 A 
ATOM     31  C   UNL     1       4.872   5.328  19.376  0.00  0.00    +0.000 A 
BRANCH  29  32
ATOM     32  O   UNL     1       1.339   4.222  19.530  0.00  0.00    +0.000 OA
BRANCH  32  33
ATOM     33  C   UNL     1       1.113   2.883  19.948  0.00  0.00    +0.000 C 
ATOM     34  F   UNL     1       0.816   2.744  21.257  0.00  0.00    +0.000 F 
ATOM     35  F   UNL     1       0.101   2.361  19.221  0.00  0.00    +0.000 F 
ATOM     36  F   UNL     1       2.226   2.158  19.698  0.00  0.00    +0.000 F 
ENDBRANCH  32  33
ENDBRANCH  29  32
ENDBRANCH  25  26
BRANCH  25  37
ATOM     37  C   UNL     1       7.190   4.636  16.804  0.00  0.00    +0.000 C 
BRANCH  37  38
ATOM     38  C   UNL     1       7.028   4.528  15.310  0.00  0.00    +0.000 C 
ATOM     39  O   UNL     1       6.359   3.681  14.738  0.00  0.00    +0.000 OA
BRANCH  38  40
ATOM     40  O   UNL     1       7.763   5.438  14.630  0.00  0.00    +0.000 OA
ATOM     41  H   UNL     1       8.427   5.054  14.027  0.00  0.00    +0.000 HD
ENDBRANCH  38  40
ENDBRANCH  37  38
ENDBRANCH  25  37
ENDBRANCH   4  25
TORSDOF 10
ENDMDL
MODEL 2
REMARK VINA RESULT:      -8.7      6.510      8.645
REMARK  Name = 
REMARK  10 active torsions:
REMARK  status: ('A' for Active; 'I' for Inactive)
REMARK    1  A    between atoms: N_4  and  C_5
REMARK    2  A    between atoms: C_9  and  C_10
REMARK    3  A    between atoms: N_12  and  N_13
REMARK    4  A    between atoms: N_16  and  C_17
REMARK    5  A    between atoms: C_17  and  C_18
REMARK    6  A    between atoms: C_17  and  C_22
REMARK    7  A    between atoms: C_18  and  C_19
REMARK    8  A    between atoms: C_19  and  O_21
REMARK    9  A    between atoms: C_25  and  O_26
REMARK   10  A    between atoms: O_26  and  C_27
REMARK                            x       y       z     vdW  Elec       q    Type
REMARK                         _______ _______ _______ _____ _____    ______ ____
ROOT
ATOM      1  N   UNL     1       2.380   7.260  20.539  0.00  0.00    +0.000 N 
ATOM      2  C   UNL     1       2.569   6.096  19.820  0.00  0.00    +0.000 C 
ATOM      3  O   UNL     1       2.214   5.954  18.654  0.00  0.00    +0.000 OA
ATOM      4  N   UNL     1       3.236   5.135  20.534  0.00  0.00    +0.000 N 
ATOM      5  H   UNL     1       2.234   7.202  21.543  0.00  0.00    +0.000 HD
ATOM      6  H   UNL     1       3.877   5.495  21.235  0.00  0.00    +0.000 HD
ENDROOT
BRANCH   1   9
ATOM      7  C   UNL     1       1.003   9.233  20.655  0.00  0.00    +0.000 C 
ATOM      8  O   UNL     1       1.007   9.222  21.883  0.00  0.00    +0.000 OA
ATOM      9  N   UNL     1       1.662   8.286  19.897  0.00  0.00    +0.000 N 
ATOM     10  H   UNL     1       1.702   8.291  18.879  0.00  0.00    +0.000 HD
BRANCH   7  15
ATOM     11  C   UNL     1      -1.111  11.077  18.056  0.00  0.00    +0.000 A 
ATOM     12  C   UNL     1      -1.007  12.382  18.563  0.00  0.00    +0.000 A 
ATOM     13  C   UNL     1      -0.280  12.653  19.723  0.00  0.00    +0.000 A 
ATOM     14  C   UNL     1       0.361  11.617  20.399  0.00  0.00    +0.000 A 
ATOM     15  C   UNL     1       0.296  10.310  19.901  0.00  0.00    +0.000 A 
ATOM     16  C   UNL     1      -0.436  10.051  18.731  0.00  0.00    +0.000 A 
BRANCH  11  20
ATOM     17  N   UNL     1      -3.926  11.860  17.312  0.00  0.00    +0.000 NA
ATOM     18  C   UNL     1      -3.063  11.327  16.522  0.00  0.00    +0.000 C 
ATOM     19  N   UNL     1      -3.351  11.129  15.212  0.00  0.00    +0.000 N 
ATOM     20  N   UNL     1      -1.821  10.885  16.855  0.00  0.00    +0.000 N 
ATOM     21  H   UNL     1      -4.769  12.108  16.795  0.00  0.00    +0.000 HD
ATOM     22  H   UNL     1      -4.330  11.215  14.969  0.00  0.00    +0.000 HD
ATOM     23  H   UNL     1      -2.941  10.310  14.786  0.00  0.00    +0.000 HD
ATOM     24  H   UNL     1      -1.259  10.489  16.117  0.00  0.00    +0.000 HD
ENDBRANCH  11  20
ENDBRANCH   7  15
ENDBRANCH   1   9
BRANCH   4  25
ATOM     25  C   UNL     1       3.653   3.884  19.897  0.00  0.00    +0.000 C 
BRANCH  25  26
ATOM     26  C   UNL     1       4.626   4.099  18.735  0.00  0.00    +0.000 A 
ATOM     27  C   UNL     1       5.854   4.754  18.902  0.00  0.00    +0.000 A 
ATOM     28  C   UNL     1       6.740   4.906  17.831  0.00  0.00    +0.000 A 
ATOM     29  C   UNL     1       6.436   4.393  16.571  0.00  0.00    +0.000 A 
ATOM     30  C   UNL     1       5.208   3.770  16.378  0.00  0.00    +0.000 A 
ATOM     31  C   UNL     1       4.325   3.601  17.455  0.00  0.00    +0.000 A 
BRANCH  29  32
ATOM     32  O   UNL     1       7.374   4.627  15.615  0.00  0.00    +0.000 OA
BRANCH  32  33
ATOM     33  C   UNL     1       6.968   4.852  14.273  0.00  0.00    +0.000 C 
ATOM     34  F   UNL     1       5.882   5.642  14.138  0.00  0.00    +0.000 F 
ATOM     35  F   UNL     1       7.992   5.413  13.593  0.00  0.00    +0.000 F 
ATOM     36  F   UNL     1       6.687   3.661  13.699  0.00  0.00    +0.000 F 
ENDBRANCH  32  33
ENDBRANCH  29  32
ENDBRANCH  25  26
BRANCH  25  37
ATOM     37  C   UNL     1       2.440   3.002  19.531  0.00  0.00    +0.000 C 
BRANCH  37  38
ATOM     38  C   UNL     1       1.452   2.886  20.663  0.00  0.00    +0.000 C 
ATOM     39  O   UNL     1       1.749   2.707  21.835  0.00  0.00    +0.000 OA
BRANCH  38  40
ATOM     40  O   UNL     1       0.165   2.933  20.251  0.00  0.00    +0.000 OA
ATOM     41  H   UNL     1      -0.138   2.137  19.776  0.00  0.00    +0.000 HD
ENDBRANCH  38  40
ENDBRANCH  37  38
ENDBRANCH  25  37
ENDBRANCH   4  25
TORSDOF 10
ENDMDL
MODEL 3
REMARK VINA RESULT:      -8.6      1.028      1.272
REMARK  Name = 
REMARK  10 active torsions:
REMARK  status: ('A' for Active; 'I' for Inactive)
REMARK    1  A    between atoms: N_4  and  C_5
REMARK    2  A    between atoms: C_9  and  C_10
REMARK    3  A    between atoms: N_12  and  N_13
REMARK    4  A    between atoms: N_16  and  C_17
REMARK    5  A    between atoms: C_17  and  C_18
REMARK    6  A    between atoms: C_17  and  C_22
REMARK    7  A    between atoms: C_18  and  C_19
REMARK    8  A    between atoms: C_19  and  O_21
REMARK    9  A    between atoms: C_25  and  O_26
REMARK   10  A    between atoms: O_26  and  C_27
REMARK                            x       y       z     vdW  Elec       q    Type
REMARK                         _______ _______ _______ _____ _____    ______ ____
ROOT
ATOM      1  N   UNL     1       8.582   8.389  18.672  0.00  0.00    +0.000 N 
ATOM      2  C   UNL     1       7.658   7.716  17.897  0.00  0.00    +0.000 C 
ATOM      3  O   UNL     1       7.287   8.102  16.793  0.00  0.00    +0.000 OA
ATOM      4  N   UNL     1       7.235   6.546  18.474  0.00  0.00    +0.000 N 
ATOM      5  H   UNL     1       8.509   8.337  19.684  0.00  0.00    +0.000 HD
ATOM      6  H   UNL     1       7.916   6.102  19.082  0.00  0.00    +0.000 HD
ENDROOT
BRANCH   1   9
ATOM      7  C   UNL     1       9.459  10.598  19.058  0.00  0.00    +0.000 C 
ATOM      8  O   UNL     1       9.454  10.439  20.276  0.00  0.00    +0.000 OA
ATOM      9  N   UNL     1       9.036   9.625  18.176  0.00  0.00    +0.000 N 
ATOM     10  H   UNL     1       9.061   9.719  17.162  0.00  0.00    +0.000 HD
BRANCH   7  15
ATOM     11  C   UNL     1       9.702  14.231  17.887  0.00  0.00    +0.000 A 
ATOM     12  C   UNL     1      10.984  14.201  17.315  0.00  0.00    +0.000 A 
ATOM     13  C   UNL     1      11.753  13.036  17.322  0.00  0.00    +0.000 A 
ATOM     14  C   UNL     1      11.248  11.874  17.901  0.00  0.00    +0.000 A 
ATOM     15  C   UNL     1       9.962  11.868  18.454  0.00  0.00    +0.000 A 
ATOM     16  C   UNL     1       9.197  13.045  18.439  0.00  0.00    +0.000 A 
BRANCH  11  20
ATOM     17  N   UNL     1       9.071  16.283  20.002  0.00  0.00    +0.000 NA
ATOM     18  C   UNL     1       8.769  16.375  18.756  0.00  0.00    +0.000 C 
ATOM     19  N   UNL     1       8.173  17.490  18.268  0.00  0.00    +0.000 N 
ATOM     20  N   UNL     1       8.964  15.427  17.801  0.00  0.00    +0.000 N 
ATOM     21  H   UNL     1       8.825  17.146  20.488  0.00  0.00    +0.000 HD
ATOM     22  H   UNL     1       7.793  18.117  18.966  0.00  0.00    +0.000 HD
ATOM     23  H   UNL     1       7.519  17.349  17.511  0.00  0.00    +0.000 HD
ATOM     24  H   UNL     1       8.673  15.652  16.863  0.00  0.00    +0.000 HD
ENDBRANCH  11  20
ENDBRANCH   7  15
ENDBRANCH   1   9
BRANCH   4  25
ATOM     25  C   UNL     1       6.363   5.624  17.743  0.00  0.00    +0.000 C 
BRANCH  25  26
ATOM     26  C   UNL     1       5.166   5.150  18.571  0.00  0.00    +0.000 A 
ATOM     27  C   UNL     1       4.249   6.045  19.138  0.00  0.00    +0.000 A 
ATOM     28  C   UNL     1       3.144   5.584  19.860  0.00  0.00    +0.000 A 
ATOM     29  C   UNL     1       2.911   4.219  20.019  0.00  0.00    +0.000 A 
ATOM     30  C   UNL     1       3.828   3.315  19.492  0.00  0.00    +0.000 A 
ATOM     31  C   UNL     1       4.928   3.776  18.753  0.00  0.00    +0.000 A 
BRANCH  29  32
ATOM     32  O   UNL     1       1.814   3.906  20.758  0.00  0.00    +0.000 OA
BRANCH  32  33
ATOM     33  C   UNL     1       1.725   2.633  21.381  0.00  0.00    +0.000 C 
ATOM     34  F   UNL     1       0.775   2.537  22.334  0.00  0.00    +0.000 F 
ATOM     35  F   UNL     1       1.480   1.699  20.435  0.00  0.00    +0.000 F 
ATOM     36  F   UNL     1       2.916   2.346  21.953  0.00  0.00    +0.000 F 
ENDBRANCH  32  33
ENDBRANCH  29  32
ENDBRANCH  25  26
BRANCH  25  37
ATOM     37  C   UNL     1       7.166   4.471  17.103  0.00  0.00    +0.000 C 
BRANCH  37  38
ATOM     38  C   UNL     1       6.970   4.394  15.610  0.00  0.00    +0.000 C 
ATOM     39  O   UNL     1       6.242   3.596  15.041  0.00  0.00    +0.000 OA
BRANCH  38  40
ATOM     40  O   UNL     1       7.743   5.270  14.928  0.00  0.00    +0.000 OA
ATOM     41  H   UNL     1       8.700   5.176  15.087  0.00  0.00    +0.000 HD
ENDBRANCH  38  40
ENDBRANCH  37  38
ENDBRANCH  25  37
ENDBRANCH   4  25
TORSDOF 10
ENDMDL
MODEL 4
REMARK VINA RESULT:      -8.6      0.655      1.379
REMARK  Name = 
REMARK  10 active torsions:
REMARK  status: ('A' for Active; 'I' for Inactive)
REMARK    1  A    between atoms: N_4  and  C_5
REMARK    2  A    between atoms: C_9  and  C_10
REMARK    3  A    between atoms: N_12  and  N_13
REMARK    4  A    between atoms: N_16  and  C_17
REMARK    5  A    between atoms: C_17  and  C_18
REMARK    6  A    between atoms: C_17  and  C_22
REMARK    7  A    between atoms: C_18  and  C_19
REMARK    8  A    between atoms: C_19  and  O_21
REMARK    9  A    between atoms: C_25  and  O_26
REMARK   10  A    between atoms: O_26  and  C_27
REMARK                            x       y       z     vdW  Elec       q    Type
REMARK                         _______ _______ _______ _____ _____    ______ ____
ROOT
ATOM      1  N   UNL     1       8.599   8.328  18.731  0.00  0.00    +0.000 N 
ATOM      2  C   UNL     1       7.699   7.756  17.852  0.00  0.00    +0.000 C 
ATOM      3  O   UNL     1       7.401   8.251  16.770  0.00  0.00    +0.000 OA
ATOM      4  N   UNL     1       7.213   6.555  18.298  0.00  0.00    +0.000 N 
ATOM      5  H   UNL     1       8.469   8.189  19.729  0.00  0.00    +0.000 HD
ATOM      6  H   UNL     1       7.847   6.037  18.899  0.00  0.00    +0.000 HD
ENDROOT
BRANCH   1   9
ATOM      7  C   UNL     1       9.356  10.527  19.352  0.00  0.00    +0.000 C 
ATOM      8  O   UNL     1       9.134  10.319  20.543  0.00  0.00    +0.000 OA
ATOM      9  N   UNL     1       9.114   9.586  18.372  0.00  0.00    +0.000 N 
ATOM     10  H   UNL     1       9.319   9.722  17.384  0.00  0.00    +0.000 HD
BRANCH   7  15
ATOM     11  C   UNL     1      10.292  14.230  19.151  0.00  0.00    +0.000 A 
ATOM     12  C   UNL     1      11.075  14.204  17.985  0.00  0.00    +0.000 A 
ATOM     13  C   UNL     1      11.302  13.014  17.292  0.00  0.00    +0.000 A 
ATOM     14  C   UNL     1      10.744  11.824  17.754  0.00  0.00    +0.000 A 
ATOM     15  C   UNL     1       9.938  11.825  18.898  0.00  0.00    +0.000 A 
ATOM     16  C   UNL     1       9.715  13.029  19.585  0.00  0.00    +0.000 A 
BRANCH  11  20
ATOM     17  N   UNL     1       8.474  16.499  18.356  0.00  0.00    +0.000 NA
ATOM     18  C   UNL     1       9.174  16.442  19.433  0.00  0.00    +0.000 C 
ATOM     19  N   UNL     1       9.088  17.420  20.367  0.00  0.00    +0.000 N 
ATOM     20  N   UNL     1      10.066  15.473  19.771  0.00  0.00    +0.000 N 
ATOM     21  H   UNL     1       7.880  17.328  18.366  0.00  0.00    +0.000 HD
ATOM     22  H   UNL     1       8.631  18.270  20.062  0.00  0.00    +0.000 HD
ATOM     23  H   UNL     1       9.939  17.627  20.873  0.00  0.00    +0.000 HD
ATOM     24  H   UNL     1      10.538  15.571  20.657  0.00  0.00    +0.000 HD
ENDBRANCH  11  20
ENDBRANCH   7  15
ENDBRANCH   1   9
BRANCH   4  25
ATOM     25  C   UNL     1       6.355   5.730  17.443  0.00  0.00    +0.000 C 
BRANCH  25  26
ATOM     26  C   UNL     1       5.039   5.337  18.118  0.00  0.00    +0.000 A 
ATOM     27  C   UNL     1       4.977   4.939  19.460  0.00  0.00    +0.000 A 
ATOM     28  C   UNL     1       3.756   4.620  20.061  0.00  0.00    +0.000 A 
ATOM     29  C   UNL     1       2.562   4.709  19.349  0.00  0.00    +0.000 A 
ATOM     30  C   UNL     1       2.606   5.070  18.006  0.00  0.00    +0.000 A 
ATOM     31  C   UNL     1       3.828   5.407  17.406  0.00  0.00    +0.000 A 
BRANCH  29  32
ATOM     32  O   UNL     1       1.450   4.352  20.045  0.00  0.00    +0.000 OA
BRANCH  32  33
ATOM     33  C   UNL     1       1.101   2.980  20.157  0.00  0.00    +0.000 C 
ATOM     34  F   UNL     1       0.076   2.593  19.370  0.00  0.00    +0.000 F 
ATOM     35  F   UNL     1       2.182   2.226  19.854  0.00  0.00    +0.000 F 
ATOM     36  F   UNL     1       0.758   2.724  21.439  0.00  0.00    +0.000 F 
ENDBRANCH  32  33
ENDBRANCH  29  32
ENDBRANCH  25  26
BRANCH  25  37
ATOM     37  C   UNL     1       7.129   4.532  16.854  0.00  0.00    +0.000 C 
BRANCH  37  38
ATOM     38  C   UNL     1       7.120   4.528  15.346  0.00  0.00    +0.000 C 
ATOM     39  O   UNL     1       7.663   5.365  14.642  0.00  0.00    +0.000 OA
BRANCH  38  40
ATOM     40  O   UNL     1       6.382   3.522  14.823  0.00  0.00    +0.000 OA
ATOM     41  H   UNL     1       5.423   3.695  14.796  0.00  0.00    +0.000 HD
ENDBRANCH  38  40
ENDBRANCH  37  38
ENDBRANCH  25  37
ENDBRANCH   4  25
TORSDOF 10
ENDMDL
MODEL 5
REMARK VINA RESULT:      -8.5      1.226      1.541
REMARK  Name = 
REMARK  10 active torsions:
REMARK  status: ('A' for Active; 'I' for Inactive)
REMARK    1  A    between atoms: N_4  and  C_5
REMARK    2  A    between atoms: C_9  and  C_10
REMARK    3  A    between atoms: N_12  and  N_13
REMARK    4  A    between atoms: N_16  and  C_17
REMARK    5  A    between atoms: C_17  and  C_18
REMARK    6  A    between atoms: C_17  and  C_22
REMARK    7  A    between atoms: C_18  and  C_19
REMARK    8  A    between atoms: C_19  and  O_21
REMARK    9  A    between atoms: C_25  and  O_26
REMARK   10  A    between atoms: O_26  and  C_27
REMARK                            x       y       z     vdW  Elec       q    Type
REMARK                         _______ _______ _______ _____ _____    ______ ____
ROOT
ATOM      1  N   UNL     1       8.847   8.447  19.202  0.00  0.00    +0.000 N 
ATOM      2  C   UNL     1       7.988   8.030  18.205  0.00  0.00    +0.000 C 
ATOM      3  O   UNL     1       7.639   8.742  17.268  0.00  0.00    +0.000 OA
ATOM      4  N   UNL     1       7.604   6.722  18.348  0.00  0.00    +0.000 N 
ATOM      5  H   UNL     1       8.740   8.065  20.138  0.00  0.00    +0.000 HD
ATOM      6  H   UNL     1       8.285   6.129  18.814  0.00  0.00    +0.000 HD
ENDROOT
BRANCH   1   9
ATOM      7  C   UNL     1       9.238  10.547  20.313  0.00  0.00    +0.000 C 
ATOM      8  O   UNL     1       8.872  10.098  21.396  0.00  0.00    +0.000 OA
ATOM      9  N   UNL     1       9.255   9.793  19.158  0.00  0.00    +0.000 N 
ATOM     10  H   UNL     1       9.585  10.132  18.256  0.00  0.00    +0.000 HD
BRANCH   7  15
ATOM     11  C   UNL     1      10.450  13.874  18.867  0.00  0.00    +0.000 A 
ATOM     12  C   UNL     1      10.608  14.597  20.060  0.00  0.00    +0.000 A 
ATOM     13  C   UNL     1      10.318  14.023  21.299  0.00  0.00    +0.000 A 
ATOM     14  C   UNL     1       9.863  12.708  21.365  0.00  0.00    +0.000 A 
ATOM     15  C   UNL     1       9.721  11.955  20.194  0.00  0.00    +0.000 A 
ATOM     16  C   UNL     1      10.020  12.543  18.954  0.00  0.00    +0.000 A 
BRANCH  11  20
ATOM     17  N   UNL     1       8.997  15.966  17.255  0.00  0.00    +0.000 NA
ATOM     18  C   UNL     1      10.169  15.504  16.999  0.00  0.00    +0.000 C 
ATOM     19  N   UNL     1      10.900  16.000  15.971  0.00  0.00    +0.000 N 
ATOM     20  N   UNL     1      10.808  14.501  17.658  0.00  0.00    +0.000 N 
ATOM     21  H   UNL     1       8.769  16.724  16.612  0.00  0.00    +0.000 HD
ATOM     22  H   UNL     1      10.385  16.569  15.311  0.00  0.00    +0.000 HD
ATOM     23  H   UNL     1      11.498  15.340  15.493  0.00  0.00    +0.000 HD
ATOM     24  H   UNL     1      11.731  14.253  17.336  0.00  0.00    +0.000 HD
ENDBRANCH  11  20
ENDBRANCH   7  15
ENDBRANCH   1   9
BRANCH   4  25
ATOM     25  C   UNL     1       6.808   6.058  17.313  0.00  0.00    +0.000 C 
BRANCH  25  26
ATOM     26  C   UNL     1       5.478   5.515  17.839  0.00  0.00    +0.000 A 
ATOM     27  C   UNL     1       4.245   5.899  17.293  0.00  0.00    +0.000 A 
ATOM     28  C   UNL     1       3.047   5.361  17.769  0.00  0.00    +0.000 A 
ATOM     29  C   UNL     1       3.043   4.409  18.787  0.00  0.00    +0.000 A 
ATOM     30  C   UNL     1       4.253   4.040  19.366  0.00  0.00    +0.000 A 
ATOM     31  C   UNL     1       5.458   4.566  18.878  0.00  0.00    +0.000 A 
BRANCH  29  32
ATOM     32  O   UNL     1       1.811   3.982  19.170  0.00  0.00    +0.000 OA
BRANCH  32  33
ATOM     33  C   UNL     1       1.423   2.639  18.919  0.00  0.00    +0.000 C 
ATOM     34  F   UNL     1       0.093   2.450  18.797  0.00  0.00    +0.000 F 
ATOM     35  F   UNL     1       2.022   2.213  17.785  0.00  0.00    +0.000 F 
ATOM     36  F   UNL     1       1.859   1.865  19.939  0.00  0.00    +0.000 F 
ENDBRANCH  32  33
ENDBRANCH  29  32
ENDBRANCH  25  26
BRANCH  25  37
ATOM     37  C   UNL     1       7.640   5.011  16.542  0.00  0.00    +0.000 C 
BRANCH  37  38
ATOM     38  C   UNL     1       7.083   4.732  15.170  0.00  0.00    +0.000 C 
ATOM     39  O   UNL     1       6.241   3.884  14.917  0.00  0.00    +0.000 OA
BRANCH  38  40
ATOM     40  O   UNL     1       7.659   5.479  14.201  0.00  0.00    +0.000 OA
ATOM     41  H   UNL     1       7.335   6.398  14.151  0.00  0.00    +0.000 HD
ENDBRANCH  38  40
ENDBRANCH  37  38
ENDBRANCH  25  37
ENDBRANCH   4  25
TORSDOF 10
ENDMDL
MODEL 6
REMARK VINA RESULT:      -8.5      1.228      1.516
REMARK  Name = 
REMARK  10 active torsions:
REMARK  status: ('A' for Active; 'I' for Inactive)
REMARK    1  A    between atoms: N_4  and  C_5
REMARK    2  A    between atoms: C_9  and  C_10
REMARK    3  A    between atoms: N_12  and  N_13
REMARK    4  A    between atoms: N_16  and  C_17
REMARK    5  A    between atoms: C_17  and  C_18
REMARK    6  A    between atoms: C_17  and  C_22
REMARK    7  A    between atoms: C_18  and  C_19
REMARK    8  A    between atoms: C_19  and  O_21
REMARK    9  A    between atoms: C_25  and  O_26
REMARK   10  A    between atoms: O_26  and  C_27
REMARK                            x       y       z     vdW  Elec       q    Type
REMARK                         _______ _______ _______ _____ _____    ______ ____
ROOT
ATOM      1  N   UNL     1       8.305   8.208  18.424  0.00  0.00    +0.000 N 
ATOM      2  C   UNL     1       7.436   7.526  17.595  0.00  0.00    +0.000 C 
ATOM      3  O   UNL     1       7.022   7.973  16.530  0.00  0.00    +0.000 OA
ATOM      4  N   UNL     1       7.123   6.278  18.067  0.00  0.00    +0.000 N 
ATOM      5  H   UNL     1       8.247   8.062  19.428  0.00  0.00    +0.000 HD
ATOM      6  H   UNL     1       7.846   5.844  18.633  0.00  0.00    +0.000 HD
ENDROOT
BRANCH   1   9
ATOM      7  C   UNL     1       9.193  10.380  18.965  0.00  0.00    +0.000 C 
ATOM      8  O   UNL     1       9.398  10.058  20.133  0.00  0.00    +0.000 OA
ATOM      9  N   UNL     1       8.644   9.518  18.038  0.00  0.00    +0.000 N 
ATOM     10  H   UNL     1       8.494   9.749  17.058  0.00  0.00    +0.000 HD
BRANCH   7  15
ATOM     11  C   UNL     1       9.198  14.153  18.342  0.00  0.00    +0.000 A 
ATOM     12  C   UNL     1      10.327  14.245  17.511  0.00  0.00    +0.000 A 
ATOM     13  C   UNL     1      11.072  13.114  17.174  0.00  0.00    +0.000 A 
ATOM     14  C   UNL     1      10.697  11.865  17.662  0.00  0.00    +0.000 A 
ATOM     15  C   UNL     1       9.561  11.740  18.470  0.00  0.00    +0.000 A 
ATOM     16  C   UNL     1       8.818  12.885  18.800  0.00  0.00    +0.000 A 
BRANCH  11  20
ATOM     17  N   UNL     1       6.372  14.891  17.596  0.00  0.00    +0.000 NA
ATOM     18  C   UNL     1       7.163  15.596  18.324  0.00  0.00    +0.000 C 
ATOM     19  N   UNL     1       6.736  16.750  18.892  0.00  0.00    +0.000 N 
ATOM     20  N   UNL     1       8.467  15.328  18.601  0.00  0.00    +0.000 N 
ATOM     21  H   UNL     1       5.447  15.318  17.565  0.00  0.00    +0.000 HD
ATOM     22  H   UNL     1       5.865  17.114  18.528  0.00  0.00    +0.000 HD
ATOM     23  H   UNL     1       7.427  17.482  18.982  0.00  0.00    +0.000 HD
ATOM     24  H   UNL     1       8.955  15.982  19.193  0.00  0.00    +0.000 HD
ENDBRANCH  11  20
ENDBRANCH   7  15
ENDBRANCH   1   9
BRANCH   4  25
ATOM     25  C   UNL     1       6.328   5.349  17.260  0.00  0.00    +0.000 C 
BRANCH  25  26
ATOM     26  C   UNL     1       5.307   4.563  18.085  0.00  0.00    +0.000 A 
ATOM     27  C   UNL     1       5.147   4.763  19.463  0.00  0.00    +0.000 A 
ATOM     28  C   UNL     1       4.181   4.057  20.187  0.00  0.00    +0.000 A 
ATOM     29  C   UNL     1       3.335   3.147  19.555  0.00  0.00    +0.000 A 
ATOM     30  C   UNL     1       3.501   2.909  18.194  0.00  0.00    +0.000 A 
ATOM     31  C   UNL     1       4.458   3.630  17.463  0.00  0.00    +0.000 A 
BRANCH  29  32
ATOM     32  O   UNL     1       2.456   2.514  20.375  0.00  0.00    +0.000 OA
BRANCH  32  33
ATOM     33  C   UNL     1       1.564   3.279  21.173  0.00  0.00    +0.000 C 
ATOM     34  F   UNL     1       2.162   4.062  22.095  0.00  0.00    +0.000 F 
ATOM     35  F   UNL     1       0.816   4.063  20.366  0.00  0.00    +0.000 F 
ATOM     36  F   UNL     1       0.733   2.434  21.824  0.00  0.00    +0.000 F 
ENDBRANCH  32  33
ENDBRANCH  29  32
ENDBRANCH  25  26
BRANCH  25  37
ATOM     37  C   UNL     1       7.224   4.458  16.375  0.00  0.00    +0.000 C 
BRANCH  37  38
ATOM     38  C   UNL     1       7.026   4.725  14.904  0.00  0.00    +0.000 C 
ATOM     39  O   UNL     1       6.193   4.176  14.200  0.00  0.00    +0.000 OA
BRANCH  38  40
ATOM     40  O   UNL     1       7.919   5.607  14.400  0.00  0.00    +0.000 OA
ATOM     41  H   UNL     1       7.584   6.518  14.311  0.00  0.00    +0.000 HD
ENDBRANCH  38  40
ENDBRANCH  37  38
ENDBRANCH  25  37
ENDBRANCH   4  25
TORSDOF 10
ENDMDL
MODEL 7
REMARK VINA RESULT:      -8.5      6.343      8.574
REMARK  Name = 
REMARK  10 active torsions:
REMARK  status: ('A' for Active; 'I' for Inactive)
REMARK    1  A    between atoms: N_4  and  C_5
REMARK    2  A    between atoms: C_9  and  C_10
REMARK    3  A    between atoms: N_12  and  N_13
REMARK    4  A    between atoms: N_16  and  C_17
REMARK    5  A    between atoms: C_17  and  C_18
REMARK    6  A    between atoms: C_17  and  C_22
REMARK    7  A    between atoms: C_18  and  C_19
REMARK    8  A    between atoms: C_19  and  O_21
REMARK    9  A    between atoms: C_25  and  O_26
REMARK   10  A    between atoms: O_26  and  C_27
REMARK                            x       y       z     vdW  Elec       q    Type
REMARK                         _______ _______ _______ _____ _____    ______ ____
ROOT
ATOM      1  N   UNL     1       1.947   7.601  20.658  0.00  0.00    +0.000 N 
ATOM      2  C   UNL     1       2.356   6.550  19.862  0.00  0.00    +0.000 C 
ATOM      3  O   UNL     1       2.248   6.543  18.639  0.00  0.00    +0.000 OA
ATOM      4  N   UNL     1       2.939   5.537  20.578  0.00  0.00    +0.000 N 
ATOM      5  H   UNL     1       1.612   7.407  21.598  0.00  0.00    +0.000 HD
ATOM      6  H   UNL     1       3.402   5.833  21.432  0.00  0.00    +0.000 HD
ENDROOT
BRANCH   1   9
ATOM      7  C   UNL     1       1.004   9.816  20.714  0.00  0.00    +0.000 C 
ATOM      8  O   UNL     1       1.281   9.956  21.902  0.00  0.00    +0.000 OA
ATOM      9  N   UNL     1       1.297   8.666  20.009  0.00  0.00    +0.000 N 
ATOM     10  H   UNL     1       1.108   8.537  19.017  0.00  0.00    +0.000 HD
BRANCH   7  15
ATOM     11  C   UNL     1      -1.571  11.872  18.771  0.00  0.00    +0.000 A 
ATOM     12  C   UNL     1      -0.806  13.024  18.530  0.00  0.00    +0.000 A 
ATOM     13  C   UNL     1       0.505  13.135  18.996  0.00  0.00    +0.000 A 
ATOM     14  C   UNL     1       1.077  12.087  19.714  0.00  0.00    +0.000 A 
ATOM     15  C   UNL     1       0.347  10.916  19.946  0.00  0.00    +0.000 A 
ATOM     16  C   UNL     1      -0.970  10.815  19.469  0.00  0.00    +0.000 A 
BRANCH  11  20
ATOM     17  N   UNL     1      -2.481  11.263  15.963  0.00  0.00    +0.000 NA
ATOM     18  C   UNL     1      -3.250  11.448  16.976  0.00  0.00    +0.000 C 
ATOM     19  N   UNL     1      -4.594  11.311  16.860  0.00  0.00    +0.000 N 
ATOM     20  N   UNL     1      -2.869  11.810  18.230  0.00  0.00    +0.000 N 
ATOM     21  H   UNL     1      -3.030  10.987  15.149  0.00  0.00    +0.000 HD
ATOM     22  H   UNL     1      -4.944  11.281  15.910  0.00  0.00    +0.000 HD
ATOM     23  H   UNL     1      -5.154  11.924  17.435  0.00  0.00    +0.000 HD
ATOM     24  H   UNL     1      -3.596  11.915  18.920  0.00  0.00    +0.000 HD
ENDBRANCH  11  20
ENDBRANCH   7  15
ENDBRANCH   1   9
BRANCH   4  25
ATOM     25  C   UNL     1       3.562   4.400  19.897  0.00  0.00    +0.000 C 
BRANCH  25  26
ATOM     26  C   UNL     1       4.219   4.785  18.570  0.00  0.00    +0.000 A 
ATOM     27  C   UNL     1       5.288   5.690  18.501  0.00  0.00    +0.000 A 
ATOM     28  C   UNL     1       5.893   5.997  17.279  0.00  0.00    +0.000 A 
ATOM     29  C   UNL     1       5.466   5.396  16.096  0.00  0.00    +0.000 A 
ATOM     30  C   UNL     1       4.385   4.521  16.139  0.00  0.00    +0.000 A 
ATOM     31  C   UNL     1       3.787   4.199  17.366  0.00  0.00    +0.000 A 
BRANCH  29  32
ATOM     32  O   UNL     1       6.126   5.797  14.978  0.00  0.00    +0.000 OA
BRANCH  32  33
ATOM     33  C   UNL     1       6.928   4.867  14.263  0.00  0.00    +0.000 C 
ATOM     34  F   UNL     1       7.895   5.424  13.504  0.00  0.00    +0.000 F 
ATOM     35  F   UNL     1       7.507   4.020  15.142  0.00  0.00    +0.000 F 
ATOM     36  F   UNL     1       6.129   4.143  13.448  0.00  0.00    +0.000 F 
ENDBRANCH  32  33
ENDBRANCH  29  32
ENDBRANCH  25  26
BRANCH  25  37
ATOM     37  C   UNL     1       2.590   3.207  19.781  0.00  0.00    +0.000 C 
BRANCH  37  38
ATOM     38  C   UNL     1       1.548   3.206  20.870  0.00  0.00    +0.000 C 
ATOM     39  O   UNL     1       1.733   2.819  22.014  0.00  0.00    +0.000 OA
BRANCH  38  40
ATOM     40  O   UNL     1       0.334   3.624  20.444  0.00  0.00    +0.000 OA
ATOM     41  H   UNL     1       0.040   3.224  19.604  0.00  0.00    +0.000 HD
ENDBRANCH  38  40
ENDBRANCH  37  38
ENDBRANCH  25  37
ENDBRANCH   4  25
TORSDOF 10
ENDMDL
MODEL 8
REMARK VINA RESULT:      -8.5      6.408      8.673
REMARK  Name = 
REMARK  10 active torsions:
REMARK  status: ('A' for Active; 'I' for Inactive)
REMARK    1  A    between atoms: N_4  and  C_5
REMARK    2  A    between atoms: C_9  and  C_10
REMARK    3  A    between atoms: N_12  and  N_13
REMARK    4  A    between atoms: N_16  and  C_17
REMARK    5  A    between atoms: C_17  and  C_18
REMARK    6  A    between atoms: C_17  and  C_22
REMARK    7  A    between atoms: C_18  and  C_19
REMARK    8  A    between atoms: C_19  and  O_21
REMARK    9  A    between atoms: C_25  and  O_26
REMARK   10  A    between atoms: O_26  and  C_27
REMARK                            x       y       z     vdW  Elec       q    Type
REMARK                         _______ _______ _______ _____ _____    ______ ____
ROOT
ATOM      1  N   UNL     1       2.328   7.333  20.480  0.00  0.00    +0.000 N 
ATOM      2  C   UNL     1       2.566   6.184  19.751  0.00  0.00    +0.000 C 
ATOM      3  O   UNL     1       2.327   6.080  18.552  0.00  0.00    +0.000 OA
ATOM      4  N   UNL     1       3.141   5.190  20.499  0.00  0.00    +0.000 N 
ATOM      5  H   UNL     1       2.082   7.251  21.463  0.00  0.00    +0.000 HD
ATOM      6  H   UNL     1       3.715   5.518  21.270  0.00  0.00    +0.000 HD
ENDROOT
BRANCH   1   9
ATOM      7  C   UNL     1       0.786   9.182  20.468  0.00  0.00    +0.000 C 
ATOM      8  O   UNL     1       0.489   9.004  21.647  0.00  0.00    +0.000 OA
ATOM      9  N   UNL     1       1.697   8.390  19.799  0.00  0.00    +0.000 N 
ATOM     10  H   UNL     1       1.984   8.536  18.834  0.00  0.00    +0.000 HD
BRANCH   7  15
ATOM     11  C   UNL     1      -1.665  11.328  18.466  0.00  0.00    +0.000 A 
ATOM     12  C   UNL     1      -0.859  12.459  18.256  0.00  0.00    +0.000 A 
ATOM     13  C   UNL     1       0.440  12.526  18.762  0.00  0.00    +0.000 A 
ATOM     14  C   UNL     1       0.958  11.457  19.488  0.00  0.00    +0.000 A 
ATOM     15  C   UNL     1       0.187  10.307  19.690  0.00  0.00    +0.000 A 
ATOM     16  C   UNL     1      -1.118  10.249  19.173  0.00  0.00    +0.000 A 
BRANCH  11  20
ATOM     17  N   UNL     1      -2.489  11.195  15.569  0.00  0.00    +0.000 NA
ATOM     18  C   UNL     1      -3.287  11.163  16.577  0.00  0.00    +0.000 C 
ATOM     19  N   UNL     1      -4.619  10.992  16.400  0.00  0.00    +0.000 N 
ATOM     20  N   UNL     1      -2.948  11.310  17.886  0.00  0.00    +0.000 N 
ATOM     21  H   UNL     1      -3.009  11.047  14.704  0.00  0.00    +0.000 HD
ATOM     22  H   UNL     1      -4.949  11.118  15.451  0.00  0.00    +0.000 HD
ATOM     23  H   UNL     1      -5.220  11.468  17.059  0.00  0.00    +0.000 HD
ATOM     24  H   UNL     1      -3.693  11.259  18.563  0.00  0.00    +0.000 HD
ENDBRANCH  11  20
ENDBRANCH   7  15
ENDBRANCH   1   9
BRANCH   4  25
ATOM     25  C   UNL     1       3.597   3.948  19.871  0.00  0.00    +0.000 C 
BRANCH  25  26
ATOM     26  C   UNL     1       4.584   4.184  18.726  0.00  0.00    +0.000 A 
ATOM     27  C   UNL     1       5.775   4.901  18.903  0.00  0.00    +0.000 A 
ATOM     28  C   UNL     1       6.677   5.071  17.848  0.00  0.00    +0.000 A 
ATOM     29  C   UNL     1       6.427   4.515  16.595  0.00  0.00    +0.000 A 
ATOM     30  C   UNL     1       5.234   3.828  16.390  0.00  0.00    +0.000 A 
ATOM     31  C   UNL     1       4.336   3.642  17.452  0.00  0.00    +0.000 A 
BRANCH  29  32
ATOM     32  O   UNL     1       7.373   4.771  15.654  0.00  0.00    +0.000 OA
BRANCH  32  33
ATOM     33  C   UNL     1       7.004   4.833  14.284  0.00  0.00    +0.000 C 
ATOM     34  F   UNL     1       6.732   3.637  13.719  0.00  0.00    +0.000 F 
ATOM     35  F   UNL     1       5.915   5.623  14.158  0.00  0.00    +0.000 F 
ATOM     36  F   UNL     1       8.015   5.398  13.587  0.00  0.00    +0.000 F 
ENDBRANCH  32  33
ENDBRANCH  29  32
ENDBRANCH  25  26
BRANCH  25  37
ATOM     37  C   UNL     1       2.410   3.040  19.486  0.00  0.00    +0.000 C 
BRANCH  37  38
ATOM     38  C   UNL     1       1.375   2.951  20.579  0.00  0.00    +0.000 C 
ATOM     39  O   UNL     1       0.179   3.141  20.426  0.00  0.00    +0.000 OA
BRANCH  38  40
ATOM     40  O   UNL     1       1.910   2.699  21.796  0.00  0.00    +0.000 OA
ATOM     41  H   UNL     1       2.694   3.237  22.013  0.00  0.00    +0.000 HD
ENDBRANCH  38  40
ENDBRANCH  37  38
ENDBRANCH  25  37
ENDBRANCH   4  25
TORSDOF 10
ENDMDL
MODEL 9
REMARK VINA RESULT:      -8.5      6.309      8.502
REMARK  Name = 
REMARK  10 active torsions:
REMARK  status: ('A' for Active; 'I' for Inactive)
REMARK    1  A    between atoms: N_4  and  C_5
REMARK    2  A    between atoms: C_9  and  C_10
REMARK    3  A    between atoms: N_12  and  N_13
REMARK    4  A    between atoms: N_16  and  C_17
REMARK    5  A    between atoms: C_17  and  C_18
REMARK    6  A    between atoms: C_17  and  C_22
REMARK    7  A    between atoms: C_18  and  C_19
REMARK    8  A    between atoms: C_19  and  O_21
REMARK    9  A    between atoms: C_25  and  O_26
REMARK   10  A    between atoms: O_26  and  C_27
REMARK                            x       y       z     vdW  Elec       q    Type
REMARK                         _______ _______ _______ _____ _____    ______ ____
ROOT
ATOM      1  N   UNL     1       1.949   7.542  20.686  0.00  0.00    +0.000 N 
ATOM      2  C   UNL     1       2.350   6.483  19.896  0.00  0.00    +0.000 C 
ATOM      3  O   UNL     1       2.245   6.471  18.674  0.00  0.00    +0.000 OA
ATOM      4  N   UNL     1       2.920   5.468  20.620  0.00  0.00    +0.000 N 
ATOM      5  H   UNL     1       1.609   7.356  21.626  0.00  0.00    +0.000 HD
ATOM      6  H   UNL     1       3.384   5.764  21.474  0.00  0.00    +0.000 HD
ENDROOT
BRANCH   1   9
ATOM      7  C   UNL     1       0.994   9.752  20.736  0.00  0.00    +0.000 C 
ATOM      8  O   UNL     1       1.241   9.884  21.932  0.00  0.00    +0.000 OA
ATOM      9  N   UNL     1       1.311   8.610  20.029  0.00  0.00    +0.000 N 
ATOM     10  H   UNL     1       1.147   8.489  19.032  0.00  0.00    +0.000 HD
BRANCH   7  15
ATOM     11  C   UNL     1      -1.549  11.827  18.773  0.00  0.00    +0.000 A 
ATOM     12  C   UNL     1      -0.772  12.971  18.531  0.00  0.00    +0.000 A 
ATOM     13  C   UNL     1       0.538  13.070  19.004  0.00  0.00    +0.000 A 
ATOM     14  C   UNL     1       1.096  12.019  19.728  0.00  0.00    +0.000 A 
ATOM     15  C   UNL     1       0.353  10.856  19.961  0.00  0.00    +0.000 A 
ATOM     16  C   UNL     1      -0.962  10.767  19.478  0.00  0.00    +0.000 A 
BRANCH  11  20
ATOM     17  N   UNL     1      -2.449  11.257  15.953  0.00  0.00    +0.000 NA
ATOM     18  C   UNL     1      -3.222  11.432  16.965  0.00  0.00    +0.000 C 
ATOM     19  N   UNL     1      -4.565  11.301  16.841  0.00  0.00    +0.000 N 
ATOM     20  N   UNL     1      -2.845  11.777  18.225  0.00  0.00    +0.000 N 
ATOM     21  H   UNL     1      -2.996  10.994  15.133  0.00  0.00    +0.000 HD
ATOM     22  H   UNL     1      -4.911  11.284  15.890  0.00  0.00    +0.000 HD
ATOM     23  H   UNL     1      -5.126  11.909  17.422  0.00  0.00    +0.000 HD
ATOM     24  H   UNL     1      -3.575  11.876  18.913  0.00  0.00    +0.000 HD
ENDBRANCH  11  20
ENDBRANCH   7  15
ENDBRANCH   1   9
BRANCH   4  25
ATOM     25  C   UNL     1       3.534   4.321  19.947  0.00  0.00    +0.000 C 
BRANCH  25  26
ATOM     26  C   UNL     1       4.252   4.703  18.650  0.00  0.00    +0.000 A 
ATOM     27  C   UNL     1       3.820   4.252  17.396  0.00  0.00    +0.000 A 
ATOM     28  C   UNL     1       4.473   4.645  16.224  0.00  0.00    +0.000 A 
ATOM     29  C   UNL     1       5.561   5.515  16.268  0.00  0.00    +0.000 A 
ATOM     30  C   UNL     1       6.026   5.947  17.505  0.00  0.00    +0.000 A 
ATOM     31  C   UNL     1       5.362   5.567  18.681  0.00  0.00    +0.000 A 
BRANCH  29  32
ATOM     32  O   UNL     1       6.115   5.801  15.060  0.00  0.00    +0.000 OA
BRANCH  32  33
ATOM     33  C   UNL     1       6.766   4.775  14.324  0.00  0.00    +0.000 C 
ATOM     34  F   UNL     1       7.242   3.760  15.074  0.00  0.00    +0.000 F 
ATOM     35  F   UNL     1       5.900   4.270  13.418  0.00  0.00    +0.000 F 
ATOM     36  F   UNL     1       7.806   5.317  13.652  0.00  0.00    +0.000 F 
ENDBRANCH  32  33
ENDBRANCH  29  32
ENDBRANCH  25  26
BRANCH  25  37
ATOM     37  C   UNL     1       2.532   3.160  19.778  0.00  0.00    +0.000 C 
BRANCH  37  38
ATOM     38  C   UNL     1       1.474   3.154  20.851  0.00  0.00    +0.000 C 
ATOM     39  O   UNL     1       1.637   2.751  21.992  0.00  0.00    +0.000 OA
BRANCH  38  40
ATOM     40  O   UNL     1       0.270   3.588  20.411  0.00  0.00    +0.000 OA
ATOM     41  H   UNL     1      -0.461   2.955  20.539  0.00  0.00    +0.000 HD
ENDBRANCH  38  40
ENDBRANCH  37  38
ENDBRANCH  25  37
ENDBRANCH   4  25
TORSDOF 10
ENDMDL
