MODEL 1
REMARK VINA RESULT:      -7.8      0.000      0.000
REMARK  Name = 
REMARK  7 active torsions:
REMARK  status: ('A' for Active; 'I' for Inactive)
REMARK    1  A    between atoms: N_5  and  C_6
REMARK    2  A    between atoms: N_22  and  C_23
REMARK    3  A    between atoms: C_23  and  C_24
REMARK    4  A    between atoms: C_24  and  C_25
REMARK    5  A    between atoms: C_25  and  C_26
REMARK    6  A    between atoms: C_26  and  C_27
REMARK    7  A    between atoms: C_27  and  S_28
REMARK                            x       y       z     vdW  Elec       q    Type
REMARK                         _______ _______ _______ _____ _____    ______ ____
ROOT
ATOM      1  O   UNL     1       2.617   9.960  17.550  0.00  0.00    +0.000 OA
ATOM      2  C   UNL     1       2.284   8.999  18.238  0.00  0.00    +0.000 A 
ATOM      3  N   UNL     1       2.915   7.808  18.049  0.00  0.00    +0.000 NA
ATOM      4  C   UNL     1       2.843   6.780  18.837  0.00  0.00    +0.000 A 
ATOM      5  N   UNL     1       3.594   5.590  18.671  0.00  0.00    +0.000 N 
ATOM      6  C   UNL     1       3.381   4.544  19.643  0.00  0.00    +0.000 A 
ATOM      7  C   UNL     1       4.118   3.343  19.671  0.00  0.00    +0.000 A 
ATOM      8  C   UNL     1       3.830   2.319  20.581  0.00  0.00    +0.000 A 
ATOM      9  C   UNL     1       2.844   2.500  21.540  0.00  0.00    +0.000 A 
ATOM     10  C   UNL     1       2.158   3.708  21.589  0.00  0.00    +0.000 A 
ATOM     11  C   UNL     1       2.411   4.724  20.656  0.00  0.00    +0.000 A 
ATOM     12  N   UNL     1       1.678   5.906  20.810  0.00  0.00    +0.000 NA
ATOM     13  C   UNL     1       1.875   6.883  19.982  0.00  0.00    +0.000 A 
ATOM     14  C   UNL     1       1.086   8.151  20.164  0.00  0.00    +0.000 A 
ATOM     15  O   UNL     1       0.333   8.267  21.126  0.00  0.00    +0.000 OA
ATOM     16  N   UNL     1       1.315   9.122  19.215  0.00  0.00    +0.000 N 
ENDROOT
BRANCH   5  17
ATOM     17  C   UNL     1       4.466   5.482  17.521  0.00  0.00    +0.000 A 
ATOM     18  C   UNL     1       4.200   4.569  16.479  0.00  0.00    +0.000 A 
ATOM     19  C   UNL     1       5.079   4.390  15.406  0.00  0.00    +0.000 A 
ATOM     20  C   UNL     1       6.216   5.178  15.303  0.00  0.00    +0.000 A 
ATOM     21  C   UNL     1       6.487   6.122  16.287  0.00  0.00    +0.000 A 
ATOM     22  C   UNL     1       5.645   6.240  17.401  0.00  0.00    +0.000 A 
ENDBRANCH   5  17
BRANCH  16  23
ATOM     23  C   UNL     1       0.678  10.426  19.391  0.00  0.00    +0.000 C 
BRANCH  23  24
ATOM     24  C   UNL     1      -0.830  10.436  19.119  0.00  0.00    +0.000 C 
BRANCH  24  25
ATOM     25  C   UNL     1      -1.197  10.089  17.674  0.00  0.00    +0.000 C 
BRANCH  25  26
ATOM     26  C   UNL     1      -2.718   9.962  17.539  0.00  0.00    +0.000 C 
BRANCH  26  27
ATOM     27  C   UNL     1      -3.273  10.919  16.491  0.00  0.00    +0.000 C 
BRANCH  27  28
ATOM     28  S   UNL     1      -3.112  10.196  14.832  0.00  0.00    +0.000 S 
ATOM     29  H   UNL     1      -4.227  10.737  14.317  0.00  0.00    +0.000 HD
ENDBRANCH  27  28
ENDBRANCH  26  27
ENDBRANCH  25  26
ENDBRANCH  24  25
ENDBRANCH  23  24
ENDBRANCH  16  23
TORSDOF 7
ENDMDL
MODEL 2
REMARK VINA RESULT:      -7.5      0.457      1.058
REMARK  Name = 
REMARK  7 active torsions:
REMARK  status: ('A' for Active; 'I' for Inactive)
REMARK    1  A    between atoms: N_5  and  C_6
REMARK    2  A    between atoms: N_22  and  C_23
REMARK    3  A    between atoms: C_23  and  C_24
REMARK    4  A    between atoms: C_24  and  C_25
REMARK    5  A    between atoms: C_25  and  C_26
REMARK    6  A    between atoms: C_26  and  C_27
REMARK    7  A    between atoms: C_27  and  S_28
REMARK                            x       y       z     vdW  Elec       q    Type
REMARK                         _______ _______ _______ _____ _____    ______ ____
ROOT
ATOM      1  O   UNL     1       2.817   9.770  17.443  0.00  0.00    +0.000 OA
ATOM      2  C   UNL     1       2.455   8.822  18.134  0.00  0.00    +0.000 A 
ATOM      3  N   UNL     1       3.093   7.628  17.992  0.00  0.00    +0.000 NA
ATOM      4  C   UNL     1       2.987   6.615  18.795  0.00  0.00    +0.000 A 
ATOM      5  N   UNL     1       3.743   5.421  18.681  0.00  0.00    +0.000 N 
ATOM      6  C   UNL     1       3.489   4.393  19.663  0.00  0.00    +0.000 A 
ATOM      7  C   UNL     1       4.223   3.193  19.743  0.00  0.00    +0.000 A 
ATOM      8  C   UNL     1       3.897   2.185  20.658  0.00  0.00    +0.000 A 
ATOM      9  C   UNL     1       2.873   2.383  21.572  0.00  0.00    +0.000 A 
ATOM     10  C   UNL     1       2.186   3.592  21.572  0.00  0.00    +0.000 A 
ATOM     11  C   UNL     1       2.479   4.592  20.631  0.00  0.00    +0.000 A 
ATOM     12  N   UNL     1       1.742   5.776  20.734  0.00  0.00    +0.000 NA
ATOM     13  C   UNL     1       1.973   6.738  19.898  0.00  0.00    +0.000 A 
ATOM     14  C   UNL     1       1.178   8.010  20.025  0.00  0.00    +0.000 A 
ATOM     15  O   UNL     1       0.387   8.143  20.953  0.00  0.00    +0.000 OA
ATOM     16  N   UNL     1       1.447   8.963  19.068  0.00  0.00    +0.000 N 
ENDROOT
BRANCH   5  17
ATOM     17  C   UNL     1       4.661   5.292  17.570  0.00  0.00    +0.000 A 
ATOM     18  C   UNL     1       5.916   5.937  17.575  0.00  0.00    +0.000 A 
ATOM     19  C   UNL     1       6.776   5.894  16.473  0.00  0.00    +0.000 A 
ATOM     20  C   UNL     1       6.440   5.138  15.360  0.00  0.00    +0.000 A 
ATOM     21  C   UNL     1       5.231   4.451  15.338  0.00  0.00    +0.000 A 
ATOM     22  C   UNL     1       4.338   4.563  16.412  0.00  0.00    +0.000 A 
ENDBRANCH   5  17
BRANCH  16  23
ATOM     23  C   UNL     1       0.805  10.270  19.194  0.00  0.00    +0.000 C 
BRANCH  23  24
ATOM     24  C   UNL     1      -0.401  10.476  18.271  0.00  0.00    +0.000 C 
BRANCH  24  25
ATOM     25  C   UNL     1      -1.589  11.159  18.955  0.00  0.00    +0.000 C 
BRANCH  25  26
ATOM     26  C   UNL     1      -2.861  10.939  18.130  0.00  0.00    +0.000 C 
BRANCH  26  27
ATOM     27  C   UNL     1      -2.637   9.935  17.006  0.00  0.00    +0.000 C 
BRANCH  27  28
ATOM     28  S   UNL     1      -3.141  10.651  15.414  0.00  0.00    +0.000 S 
ATOM     29  H   UNL     1      -4.435  10.828  15.725  0.00  0.00    +0.000 HD
ENDBRANCH  27  28
ENDBRANCH  26  27
ENDBRANCH  25  26
ENDBRANCH  24  25
ENDBRANCH  23  24
ENDBRANCH  16  23
TORSDOF 7
ENDMDL
MODEL 3
REMARK VINA RESULT:      -7.3      1.777      2.083
REMARK  Name = 
REMARK  7 active torsions:
REMARK  status: ('A' for Active; 'I' for Inactive)
REMARK    1  A    between atoms: N_5  and  C_6
REMARK    2  A    between atoms: N_22  and  C_23
REMARK    3  A    between atoms: C_23  and  C_24
REMARK    4  A    between atoms: C_24  and  C_25
REMARK    5  A    between atoms: C_25  and  C_26
REMARK    6  A    between atoms: C_26  and  C_27
REMARK    7  A    between atoms: C_27  and  S_28
REMARK                            x       y       z     vdW  Elec       q    Type
REMARK                         _______ _______ _______ _____ _____    ______ ____
ROOT
ATOM      1  O   UNL     1       2.735   9.897  17.522  0.00  0.00    +0.000 OA
ATOM      2  C   UNL     1       2.384   8.939  18.205  0.00  0.00    +0.000 A 
ATOM      3  N   UNL     1       3.020   7.748  18.037  0.00  0.00    +0.000 NA
ATOM      4  C   UNL     1       2.927   6.723  18.827  0.00  0.00    +0.000 A 
ATOM      5  N   UNL     1       3.682   5.532  18.686  0.00  0.00    +0.000 N 
ATOM      6  C   UNL     1       3.442   4.490  19.656  0.00  0.00    +0.000 A 
ATOM      7  C   UNL     1       4.178   3.289  19.709  0.00  0.00    +0.000 A 
ATOM      8  C   UNL     1       3.865   2.269  20.614  0.00  0.00    +0.000 A 
ATOM      9  C   UNL     1       2.853   2.453  21.545  0.00  0.00    +0.000 A 
ATOM     10  C   UNL     1       2.166   3.660  21.571  0.00  0.00    +0.000 A 
ATOM     11  C   UNL     1       2.444   4.673  20.641  0.00  0.00    +0.000 A 
ATOM     12  N   UNL     1       1.708   5.855  20.770  0.00  0.00    +0.000 NA
ATOM     13  C   UNL     1       1.927   6.829  19.945  0.00  0.00    +0.000 A 
ATOM     14  C   UNL     1       1.133   8.098  20.100  0.00  0.00    +0.000 A 
ATOM     15  O   UNL     1       0.354   8.218  21.041  0.00  0.00    +0.000 OA
ATOM     16  N   UNL     1       1.388   9.065  19.153  0.00  0.00    +0.000 N 
ENDROOT
BRANCH   5  17
ATOM     17  C   UNL     1       4.585   5.420  17.562  0.00  0.00    +0.000 A 
ATOM     18  C   UNL     1       4.273   4.618  16.443  0.00  0.00    +0.000 A 
ATOM     19  C   UNL     1       5.173   4.429  15.390  0.00  0.00    +0.000 A 
ATOM     20  C   UNL     1       6.386   5.102  15.386  0.00  0.00    +0.000 A 
ATOM     21  C   UNL     1       6.709   5.938  16.449  0.00  0.00    +0.000 A 
ATOM     22  C   UNL     1       5.838   6.060  17.540  0.00  0.00    +0.000 A 
ENDBRANCH   5  17
BRANCH  16  23
ATOM     23  C   UNL     1       0.746  10.369  19.307  0.00  0.00    +0.000 C 
BRANCH  23  24
ATOM     24  C   UNL     1      -0.571  10.522  18.539  0.00  0.00    +0.000 C 
BRANCH  24  25
ATOM     25  C   UNL     1      -1.634  11.324  19.295  0.00  0.00    +0.000 C 
BRANCH  25  26
ATOM     26  C   UNL     1      -0.969  12.175  20.382  0.00  0.00    +0.000 C 
BRANCH  26  27
ATOM     27  C   UNL     1      -1.782  12.181  21.670  0.00  0.00    +0.000 C 
BRANCH  27  28
ATOM     28  S   UNL     1      -1.056  11.033  22.877  0.00  0.00    +0.000 S 
ATOM     29  H   UNL     1      -1.996  10.082  22.774  0.00  0.00    +0.000 HD
ENDBRANCH  27  28
ENDBRANCH  26  27
ENDBRANCH  25  26
ENDBRANCH  24  25
ENDBRANCH  23  24
ENDBRANCH  16  23
TORSDOF 7
ENDMDL
MODEL 4
REMARK VINA RESULT:      -7.2      3.240      7.122
REMARK  Name = 
REMARK  7 active torsions:
REMARK  status: ('A' for Active; 'I' for Inactive)
REMARK    1  A    between atoms: N_5  and  C_6
REMARK    2  A    between atoms: N_22  and  C_23
REMARK    3  A    between atoms: C_23  and  C_24
REMARK    4  A    between atoms: C_24  and  C_25
REMARK    5  A    between atoms: C_25  and  C_26
REMARK    6  A    between atoms: C_26  and  C_27
REMARK    7  A    between atoms: C_27  and  S_28
REMARK                            x       y       z     vdW  Elec       q    Type
REMARK                         _______ _______ _______ _____ _____    ______ ____
ROOT
ATOM      1  O   UNL     1       5.655   3.010  16.688  0.00  0.00    +0.000 OA
ATOM      2  C   UNL     1       5.106   4.107  16.644  0.00  0.00    +0.000 A 
ATOM      3  N   UNL     1       4.146   4.395  17.565  0.00  0.00    +0.000 NA
ATOM      4  C   UNL     1       3.646   5.570  17.793  0.00  0.00    +0.000 A 
ATOM      5  N   UNL     1       2.724   5.861  18.829  0.00  0.00    +0.000 N 
ATOM      6  C   UNL     1       2.268   7.227  18.932  0.00  0.00    +0.000 A 
ATOM      7  C   UNL     1       1.429   7.694  19.963  0.00  0.00    +0.000 A 
ATOM      8  C   UNL     1       0.944   9.006  19.986  0.00  0.00    +0.000 A 
ATOM      9  C   UNL     1       1.347   9.912  19.016  0.00  0.00    +0.000 A 
ATOM     10  C   UNL     1       2.241   9.502  18.033  0.00  0.00    +0.000 A 
ATOM     11  C   UNL     1       2.700   8.177  17.978  0.00  0.00    +0.000 A 
ATOM     12  N   UNL     1       3.613   7.877  16.962  0.00  0.00    +0.000 NA
ATOM     13  C   UNL     1       4.078   6.672  16.866  0.00  0.00    +0.000 A 
ATOM     14  C   UNL     1       5.065   6.365  15.772  0.00  0.00    +0.000 A 
ATOM     15  O   UNL     1       5.467   7.268  15.044  0.00  0.00    +0.000 OA
ATOM     16  N   UNL     1       5.473   5.052  15.706  0.00  0.00    +0.000 N 
ENDROOT
BRANCH   5  17
ATOM     17  C   UNL     1       2.264   4.773  19.665  0.00  0.00    +0.000 A 
ATOM     18  C   UNL     1       1.257   3.885  19.229  0.00  0.00    +0.000 A 
ATOM     19  C   UNL     1       0.739   2.885  20.058  0.00  0.00    +0.000 A 
ATOM     20  C   UNL     1       1.271   2.691  21.324  0.00  0.00    +0.000 A 
ATOM     21  C   UNL     1       2.297   3.516  21.771  0.00  0.00    +0.000 A 
ATOM     22  C   UNL     1       2.755   4.568  20.967  0.00  0.00    +0.000 A 
ENDBRANCH   5  17
BRANCH  16  23
ATOM     23  C   UNL     1       6.520   4.700  14.750  0.00  0.00    +0.000 C 
BRANCH  23  24
ATOM     24  C   UNL     1       6.116   3.628  13.732  0.00  0.00    +0.000 C 
BRANCH  24  25
ATOM     25  C   UNL     1       4.944   4.042  12.836  0.00  0.00    +0.000 C 
BRANCH  25  26
ATOM     26  C   UNL     1       4.957   3.213  11.548  0.00  0.00    +0.000 C 
BRANCH  26  27
ATOM     27  C   UNL     1       3.547   2.945  11.036  0.00  0.00    +0.000 C 
BRANCH  27  28
ATOM     28  S   UNL     1       3.127   4.114   9.710  0.00  0.00    +0.000 S 
ATOM     29  H   UNL     1       1.804   3.891   9.719  0.00  0.00    +0.000 HD
ENDBRANCH  27  28
ENDBRANCH  26  27
ENDBRANCH  25  26
ENDBRANCH  24  25
ENDBRANCH  23  24
ENDBRANCH  16  23
TORSDOF 7
ENDMDL
MODEL 5
REMARK VINA RESULT:      -7.2      1.152      4.101
REMARK  Name = 
REMARK  7 active torsions:
REMARK  status: ('A' for Active; 'I' for Inactive)
REMARK    1  A    between atoms: N_5  and  C_6
REMARK    2  A    between atoms: N_22  and  C_23
REMARK    3  A    between atoms: C_23  and  C_24
REMARK    4  A    between atoms: C_24  and  C_25
REMARK    5  A    between atoms: C_25  and  C_26
REMARK    6  A    between atoms: C_26  and  C_27
REMARK    7  A    between atoms: C_27  and  S_28
REMARK                            x       y       z     vdW  Elec       q    Type
REMARK                         _______ _______ _______ _____ _____    ______ ____
ROOT
ATOM      1  O   UNL     1      -0.151   8.731  20.935  0.00  0.00    +0.000 OA
ATOM      2  C   UNL     1       0.794   8.640  20.156  0.00  0.00    +0.000 A 
ATOM      3  N   UNL     1       1.358   7.418  19.951  0.00  0.00    +0.000 NA
ATOM      4  C   UNL     1       2.194   7.121  19.005  0.00  0.00    +0.000 A 
ATOM      5  N   UNL     1       2.685   5.816  18.752  0.00  0.00    +0.000 N 
ATOM      6  C   UNL     1       3.616   5.671  17.657  0.00  0.00    +0.000 A 
ATOM      7  C   UNL     1       4.118   4.430  17.220  0.00  0.00    +0.000 A 
ATOM      8  C   UNL     1       5.079   4.335  16.207  0.00  0.00    +0.000 A 
ATOM      9  C   UNL     1       5.510   5.479  15.550  0.00  0.00    +0.000 A 
ATOM     10  C   UNL     1       4.970   6.710  15.905  0.00  0.00    +0.000 A 
ATOM     11  C   UNL     1       4.036   6.819  16.946  0.00  0.00    +0.000 A 
ATOM     12  N   UNL     1       3.542   8.101  17.206  0.00  0.00    +0.000 NA
ATOM     13  C   UNL     1       2.671   8.263  18.151  0.00  0.00    +0.000 A 
ATOM     14  C   UNL     1       2.141   9.647  18.415  0.00  0.00    +0.000 A 
ATOM     15  O   UNL     1       2.481  10.577  17.689  0.00  0.00    +0.000 OA
ATOM     16  N   UNL     1       1.259   9.743  19.468  0.00  0.00    +0.000 N 
ENDROOT
BRANCH   5  17
ATOM     17  C   UNL     1       2.271   4.743  19.630  0.00  0.00    +0.000 A 
ATOM     18  C   UNL     1       1.243   3.848  19.265  0.00  0.00    +0.000 A 
ATOM     19  C   UNL     1       0.772   2.863  20.138  0.00  0.00    +0.000 A 
ATOM     20  C   UNL     1       1.371   2.691  21.377  0.00  0.00    +0.000 A 
ATOM     21  C   UNL     1       2.419   3.525  21.754  0.00  0.00    +0.000 A 
ATOM     22  C   UNL     1       2.832   4.562  20.907  0.00  0.00    +0.000 A 
ENDBRANCH   5  17
BRANCH  16  23
ATOM     23  C   UNL     1       0.609  11.029  19.710  0.00  0.00    +0.000 C 
BRANCH  23  24
ATOM     24  C   UNL     1      -0.270  11.522  18.556  0.00  0.00    +0.000 C 
BRANCH  24  25
ATOM     25  C   UNL     1      -1.524  10.671  18.331  0.00  0.00    +0.000 C 
BRANCH  25  26
ATOM     26  C   UNL     1      -2.775  11.547  18.448  0.00  0.00    +0.000 C 
BRANCH  26  27
ATOM     27  C   UNL     1      -3.700  11.373  17.250  0.00  0.00    +0.000 C 
BRANCH  27  28
ATOM     28  S   UNL     1      -2.799  10.617  15.866  0.00  0.00    +0.000 S 
ATOM     29  H   UNL     1      -2.691  11.730  15.123  0.00  0.00    +0.000 HD
ENDBRANCH  27  28
ENDBRANCH  26  27
ENDBRANCH  25  26
ENDBRANCH  24  25
ENDBRANCH  23  24
ENDBRANCH  16  23
TORSDOF 7
ENDMDL
MODEL 6
REMARK VINA RESULT:      -7.1      1.228      4.197
REMARK  Name = 
REMARK  7 active torsions:
REMARK  status: ('A' for Active; 'I' for Inactive)
REMARK    1  A    between atoms: N_5  and  C_6
REMARK    2  A    between atoms: N_22  and  C_23
REMARK    3  A    between atoms: C_23  and  C_24
REMARK    4  A    between atoms: C_24  and  C_25
REMARK    5  A    between atoms: C_25  and  C_26
REMARK    6  A    between atoms: C_26  and  C_27
REMARK    7  A    between atoms: C_27  and  S_28
REMARK                            x       y       z     vdW  Elec       q    Type
REMARK                         _______ _______ _______ _____ _____    ______ ____
ROOT
ATOM      1  O   UNL     1      -0.297   8.755  21.165  0.00  0.00    +0.000 OA
ATOM      2  C   UNL     1       0.647   8.684  20.384  0.00  0.00    +0.000 A 
ATOM      3  N   UNL     1       1.218   7.470  20.155  0.00  0.00    +0.000 NA
ATOM      4  C   UNL     1       2.054   7.195  19.202  0.00  0.00    +0.000 A 
ATOM      5  N   UNL     1       2.552   5.898  18.923  0.00  0.00    +0.000 N 
ATOM      6  C   UNL     1       3.482   5.780  17.825  0.00  0.00    +0.000 A 
ATOM      7  C   UNL     1       3.990   4.549  17.362  0.00  0.00    +0.000 A 
ATOM      8  C   UNL     1       4.950   4.480  16.347  0.00  0.00    +0.000 A 
ATOM      9  C   UNL     1       5.374   5.638  15.711  0.00  0.00    +0.000 A 
ATOM     10  C   UNL     1       4.827   6.859  16.090  0.00  0.00    +0.000 A 
ATOM     11  C   UNL     1       3.895   6.943  17.135  0.00  0.00    +0.000 A 
ATOM     12  N   UNL     1       3.394   8.217  17.420  0.00  0.00    +0.000 NA
ATOM     13  C   UNL     1       2.523   8.356  18.369  0.00  0.00    +0.000 A 
ATOM     14  C   UNL     1       1.987   9.732  18.660  0.00  0.00    +0.000 A 
ATOM     15  O   UNL     1       2.321  10.677  17.952  0.00  0.00    +0.000 OA
ATOM     16  N   UNL     1       1.106   9.803  19.716  0.00  0.00    +0.000 N 
ENDROOT
BRANCH   5  17
ATOM     17  C   UNL     1       2.145   4.807  19.781  0.00  0.00    +0.000 A 
ATOM     18  C   UNL     1       2.777   4.570  21.020  0.00  0.00    +0.000 A 
ATOM     19  C   UNL     1       2.456   3.468  21.819  0.00  0.00    +0.000 A 
ATOM     20  C   UNL     1       1.435   2.610  21.438  0.00  0.00    +0.000 A 
ATOM     21  C   UNL     1       0.758   2.838  20.245  0.00  0.00    +0.000 A 
ATOM     22  C   UNL     1       1.138   3.897  19.410  0.00  0.00    +0.000 A 
ENDBRANCH   5  17
BRANCH  16  23
ATOM     23  C   UNL     1       0.449  11.081  19.983  0.00  0.00    +0.000 C 
BRANCH  23  24
ATOM     24  C   UNL     1      -1.016  11.147  19.538  0.00  0.00    +0.000 C 
BRANCH  24  25
ATOM     25  C   UNL     1      -1.200  11.089  18.018  0.00  0.00    +0.000 C 
BRANCH  25  26
ATOM     26  C   UNL     1      -2.303  10.086  17.666  0.00  0.00    +0.000 C 
BRANCH  26  27
ATOM     27  C   UNL     1      -3.066  10.505  16.416  0.00  0.00    +0.000 C 
BRANCH  27  28
ATOM     28  S   UNL     1      -4.571  11.415  16.873  0.00  0.00    +0.000 S 
ATOM     29  H   UNL     1      -4.088  11.958  18.001  0.00  0.00    +0.000 HD
ENDBRANCH  27  28
ENDBRANCH  26  27
ENDBRANCH  25  26
ENDBRANCH  24  25
ENDBRANCH  23  24
ENDBRANCH  16  23
TORSDOF 7
ENDMDL
MODEL 7
REMARK VINA RESULT:      -7.1      1.652      1.876
REMARK  Name = 
REMARK  7 active torsions:
REMARK  status: ('A' for Active; 'I' for Inactive)
REMARK    1  A    between atoms: N_5  and  C_6
REMARK    2  A    between atoms: N_22  and  C_23
REMARK    3  A    between atoms: C_23  and  C_24
REMARK    4  A    between atoms: C_24  and  C_25
REMARK    5  A    between atoms: C_25  and  C_26
REMARK    6  A    between atoms: C_26  and  C_27
REMARK    7  A    between atoms: C_27  and  S_28
REMARK                            x       y       z     vdW  Elec       q    Type
REMARK                         _______ _______ _______ _____ _____    ______ ____
ROOT
ATOM      1  O   UNL     1       2.720   9.913  17.499  0.00  0.00    +0.000 OA
ATOM      2  C   UNL     1       2.373   8.956  18.185  0.00  0.00    +0.000 A 
ATOM      3  N   UNL     1       3.007   7.764  18.015  0.00  0.00    +0.000 NA
ATOM      4  C   UNL     1       2.920   6.741  18.807  0.00  0.00    +0.000 A 
ATOM      5  N   UNL     1       3.672   5.549  18.661  0.00  0.00    +0.000 N 
ATOM      6  C   UNL     1       3.440   4.509  19.636  0.00  0.00    +0.000 A 
ATOM      7  C   UNL     1       4.176   3.307  19.684  0.00  0.00    +0.000 A 
ATOM      8  C   UNL     1       3.870   2.289  20.594  0.00  0.00    +0.000 A 
ATOM      9  C   UNL     1       2.867   2.475  21.533  0.00  0.00    +0.000 A 
ATOM     10  C   UNL     1       2.180   3.684  21.563  0.00  0.00    +0.000 A 
ATOM     11  C   UNL     1       2.451   4.695  20.628  0.00  0.00    +0.000 A 
ATOM     12  N   UNL     1       1.717   5.878  20.762  0.00  0.00    +0.000 NA
ATOM     13  C   UNL     1       1.930   6.850  19.933  0.00  0.00    +0.000 A 
ATOM     14  C   UNL     1       1.138   8.120  20.093  0.00  0.00    +0.000 A 
ATOM     15  O   UNL     1       0.368   8.242  21.040  0.00  0.00    +0.000 OA
ATOM     16  N   UNL     1       1.386   9.085  19.143  0.00  0.00    +0.000 N 
ENDROOT
BRANCH   5  17
ATOM     17  C   UNL     1       4.566   5.434  17.529  0.00  0.00    +0.000 A 
ATOM     18  C   UNL     1       4.264   4.596  16.435  0.00  0.00    +0.000 A 
ATOM     19  C   UNL     1       5.157   4.406  15.376  0.00  0.00    +0.000 A 
ATOM     20  C   UNL     1       6.350   5.112  15.341  0.00  0.00    +0.000 A 
ATOM     21  C   UNL     1       6.662   5.983  16.379  0.00  0.00    +0.000 A 
ATOM     22  C   UNL     1       5.800   6.108  17.477  0.00  0.00    +0.000 A 
ENDBRANCH   5  17
BRANCH  16  23
ATOM     23  C   UNL     1       0.747  10.390  19.300  0.00  0.00    +0.000 C 
BRANCH  23  24
ATOM     24  C   UNL     1      -0.593  10.531  18.570  0.00  0.00    +0.000 C 
BRANCH  24  25
ATOM     25  C   UNL     1      -1.329  11.838  18.883  0.00  0.00    +0.000 C 
BRANCH  25  26
ATOM     26  C   UNL     1      -0.621  13.010  18.198  0.00  0.00    +0.000 C 
BRANCH  26  27
ATOM     27  C   UNL     1      -0.182  14.068  19.201  0.00  0.00    +0.000 C 
BRANCH  27  28
ATOM     28  S   UNL     1      -1.199  13.971  20.703  0.00  0.00    +0.000 S 
ATOM     29  H   UNL     1      -0.640  12.856  21.199  0.00  0.00    +0.000 HD
ENDBRANCH  27  28
ENDBRANCH  26  27
ENDBRANCH  25  26
ENDBRANCH  24  25
ENDBRANCH  23  24
ENDBRANCH  16  23
TORSDOF 7
ENDMDL
MODEL 8
REMARK VINA RESULT:      -7.1      3.757      7.662
REMARK  Name = 
REMARK  7 active torsions:
REMARK  status: ('A' for Active; 'I' for Inactive)
REMARK    1  A    between atoms: N_5  and  C_6
REMARK    2  A    between atoms: N_22  and  C_23
REMARK    3  A    between atoms: C_23  and  C_24
REMARK    4  A    between atoms: C_24  and  C_25
REMARK    5  A    between atoms: C_25  and  C_26
REMARK    6  A    between atoms: C_26  and  C_27
REMARK    7  A    between atoms: C_27  and  S_28
REMARK                            x       y       z     vdW  Elec       q    Type
REMARK                         _______ _______ _______ _____ _____    ______ ____
ROOT
ATOM      1  O   UNL     1       5.581   2.889  16.696  0.00  0.00    +0.000 OA
ATOM      2  C   UNL     1       5.054   3.996  16.648  0.00  0.00    +0.000 A 
ATOM      3  N   UNL     1       4.109   4.312  17.576  0.00  0.00    +0.000 NA
ATOM      4  C   UNL     1       3.635   5.498  17.800  0.00  0.00    +0.000 A 
ATOM      5  N   UNL     1       2.730   5.816  18.843  0.00  0.00    +0.000 N 
ATOM      6  C   UNL     1       2.302   7.191  18.938  0.00  0.00    +0.000 A 
ATOM      7  C   UNL     1       1.483   7.683  19.974  0.00  0.00    +0.000 A 
ATOM      8  C   UNL     1       1.025   9.006  19.991  0.00  0.00    +0.000 A 
ATOM      9  C   UNL     1       1.437   9.895  19.009  0.00  0.00    +0.000 A 
ATOM     10  C   UNL     1       2.312   9.459  18.021  0.00  0.00    +0.000 A 
ATOM     11  C   UNL     1       2.744   8.125  17.973  0.00  0.00    +0.000 A 
ATOM     12  N   UNL     1       3.640   7.799  16.950  0.00  0.00    +0.000 NA
ATOM     13  C   UNL     1       4.080   6.584  16.860  0.00  0.00    +0.000 A 
ATOM     14  C   UNL     1       5.050   6.248  15.758  0.00  0.00    +0.000 A 
ATOM     15  O   UNL     1       5.462   7.137  15.018  0.00  0.00    +0.000 OA
ATOM     16  N   UNL     1       5.430   4.926  15.699  0.00  0.00    +0.000 N 
ENDROOT
BRANCH   5  17
ATOM     17  C   UNL     1       2.257   4.744  19.692  0.00  0.00    +0.000 A 
ATOM     18  C   UNL     1       1.212   3.887  19.283  0.00  0.00    +0.000 A 
ATOM     19  C   UNL     1       0.684   2.905  20.127  0.00  0.00    +0.000 A 
ATOM     20  C   UNL     1       1.240   2.697  21.380  0.00  0.00    +0.000 A 
ATOM     21  C   UNL     1       2.302   3.491  21.800  0.00  0.00    +0.000 A 
ATOM     22  C   UNL     1       2.773   4.526  20.982  0.00  0.00    +0.000 A 
ENDBRANCH   5  17
BRANCH  16  23
ATOM     23  C   UNL     1       6.460   4.546  14.735  0.00  0.00    +0.000 C 
BRANCH  23  24
ATOM     24  C   UNL     1       5.926   3.862  13.472  0.00  0.00    +0.000 C 
BRANCH  24  25
ATOM     25  C   UNL     1       6.812   4.066  12.240  0.00  0.00    +0.000 C 
BRANCH  25  26
ATOM     26  C   UNL     1       7.018   2.730  11.520  0.00  0.00    +0.000 C 
BRANCH  26  27
ATOM     27  C   UNL     1       5.738   1.905  11.484  0.00  0.00    +0.000 C 
BRANCH  27  28
ATOM     28  S   UNL     1       6.131   0.145  11.267  0.00  0.00    +0.000 S 
ATOM     29  H   UNL     1       6.434  -0.107  12.550  0.00  0.00    +0.000 HD
ENDBRANCH  27  28
ENDBRANCH  26  27
ENDBRANCH  25  26
ENDBRANCH  24  25
ENDBRANCH  23  24
ENDBRANCH  16  23
TORSDOF 7
ENDMDL
MODEL 9
REMARK VINA RESULT:      -7.0      1.523      2.073
REMARK  Name = 
REMARK  7 active torsions:
REMARK  status: ('A' for Active; 'I' for Inactive)
REMARK    1  A    between atoms: N_5  and  C_6
REMARK    2  A    between atoms: N_22  and  C_23
REMARK    3  A    between atoms: C_23  and  C_24
REMARK    4  A    between atoms: C_24  and  C_25
REMARK    5  A    between atoms: C_25  and  C_26
REMARK    6  A    between atoms: C_26  and  C_27
REMARK    7  A    between atoms: C_27  and  S_28
REMARK                            x       y       z     vdW  Elec       q    Type
REMARK                         _______ _______ _______ _____ _____    ______ ____
ROOT
ATOM      1  O   UNL     1       2.798   9.847  17.454  0.00  0.00    +0.000 OA
ATOM      2  C   UNL     1       2.435   8.902  18.148  0.00  0.00    +0.000 A 
ATOM      3  N   UNL     1       3.058   7.702  17.998  0.00  0.00    +0.000 NA
ATOM      4  C   UNL     1       2.952   6.689  18.801  0.00  0.00    +0.000 A 
ATOM      5  N   UNL     1       3.695   5.488  18.678  0.00  0.00    +0.000 N 
ATOM      6  C   UNL     1       3.442   4.461  19.661  0.00  0.00    +0.000 A 
ATOM      7  C   UNL     1       4.165   3.254  19.732  0.00  0.00    +0.000 A 
ATOM      8  C   UNL     1       3.839   2.249  20.650  0.00  0.00    +0.000 A 
ATOM      9  C   UNL     1       2.828   2.456  21.576  0.00  0.00    +0.000 A 
ATOM     10  C   UNL     1       2.153   3.672  21.584  0.00  0.00    +0.000 A 
ATOM     11  C   UNL     1       2.444   4.669  20.641  0.00  0.00    +0.000 A 
ATOM     12  N   UNL     1       1.720   5.860  20.753  0.00  0.00    +0.000 NA
ATOM     13  C   UNL     1       1.952   6.821  19.915  0.00  0.00    +0.000 A 
ATOM     14  C   UNL     1       1.171   8.100  20.052  0.00  0.00    +0.000 A 
ATOM     15  O   UNL     1       0.391   8.241  20.989  0.00  0.00    +0.000 OA
ATOM     16  N   UNL     1       1.439   9.052  19.093  0.00  0.00    +0.000 N 
ENDROOT
BRANCH   5  17
ATOM     17  C   UNL     1       4.599   5.351  17.557  0.00  0.00    +0.000 A 
ATOM     18  C   UNL     1       5.845   6.012  17.531  0.00  0.00    +0.000 A 
ATOM     19  C   UNL     1       6.690   5.961  16.418  0.00  0.00    +0.000 A 
ATOM     20  C   UNL     1       6.349   5.180  15.324  0.00  0.00    +0.000 A 
ATOM     21  C   UNL     1       5.150   4.477  15.332  0.00  0.00    +0.000 A 
ATOM     22  C   UNL     1       4.270   4.596  16.416  0.00  0.00    +0.000 A 
ENDBRANCH   5  17
BRANCH  16  23
ATOM     23  C   UNL     1       0.811  10.365  19.228  0.00  0.00    +0.000 C 
BRANCH  23  24
ATOM     24  C   UNL     1      -0.555  10.487  18.544  0.00  0.00    +0.000 C 
BRANCH  24  25
ATOM     25  C   UNL     1      -1.474  11.530  19.189  0.00  0.00    +0.000 C 
BRANCH  25  26
ATOM     26  C   UNL     1      -1.178  11.627  20.689  0.00  0.00    +0.000 C 
BRANCH  26  27
ATOM     27  C   UNL     1      -1.027  13.074  21.140  0.00  0.00    +0.000 C 
BRANCH  27  28
ATOM     28  S   UNL     1      -0.613  14.135  19.725  0.00  0.00    +0.000 S 
ATOM     29  H   UNL     1      -1.523  13.628  18.878  0.00  0.00    +0.000 HD
ENDBRANCH  27  28
ENDBRANCH  26  27
ENDBRANCH  25  26
ENDBRANCH  24  25
ENDBRANCH  23  24
ENDBRANCH  16  23
TORSDOF 7
ENDMDL
