MODEL 1
REMARK VINA RESULT:      -8.2      0.000      0.000
REMARK  Name = 
REMARK  6 active torsions:
REMARK  status: ('A' for Active; 'I' for Inactive)
REMARK    1  A    between atoms: C_1  and  C_2
REMARK    2  A    between atoms: C_8  and  C_10
REMARK    3  A    between atoms: C_10  and  C_11
REMARK    4  A    between atoms: C_19  and  C_20
REMARK    5  A    between atoms: C_20  and  N_21
REMARK    6  A    between atoms: C_24  and  O_25
REMARK                            x       y       z     vdW  Elec       q    Type
REMARK                         _______ _______ _______ _____ _____    ______ ____
ROOT
ATOM      1  C   UNL     1       2.938   1.798  17.839  0.00  0.00    +0.000 C 
ATOM      2  C   UNL     1       1.995   2.321  18.893  0.00  0.00    +0.000 C 
ATOM      3  O   UNL     1       1.496   1.544  19.707  0.00  0.00    +0.000 OA
ATOM      4  N   UNL     1       1.747   3.686  18.916  0.00  0.00    +0.000 N 
ATOM      5  C   UNL     1       1.027   4.247  20.061  0.00  0.00    +0.000 C 
ATOM      6  C   UNL     1       1.950   5.207  20.837  0.00  0.00    +0.000 C 
ATOM      7  N   UNL     1       2.504   6.250  19.940  0.00  0.00    +0.000 N 
ATOM      8  C   UNL     1       2.013   7.565  19.930  0.00  0.00    +0.000 C 
ATOM      9  O   UNL     1       2.279   8.379  19.049  0.00  0.00    +0.000 OA
ATOM     10  C   UNL     1       3.273   5.651  18.801  0.00  0.00    +0.000 C 
ATOM     11  C   UNL     1       2.328   4.693  18.013  0.00  0.00    +0.000 C 
ENDROOT
BRANCH   8  12
ATOM     12  C   UNL     1       1.063   7.932  21.077  0.00  0.00    +0.000 C 
BRANCH  12  13
ATOM     13  C   UNL     1       0.364   9.273  21.008  0.00  0.00    +0.000 A 
ATOM     14  C   UNL     1      -0.143   9.752  19.789  0.00  0.00    +0.000 A 
ATOM     15  C   UNL     1      -0.889  10.929  19.751  0.00  0.00    +0.000 A 
ATOM     16  F   UNL     1      -1.385  11.356  18.582  0.00  0.00    +0.000 F 
ATOM     17  C   UNL     1      -1.150  11.651  20.906  0.00  0.00    +0.000 A 
ATOM     18  C   UNL     1      -0.644  11.183  22.110  0.00  0.00    +0.000 A 
ATOM     19  F   UNL     1      -0.904  11.857  23.238  0.00  0.00    +0.000 F 
ATOM     20  C   UNL     1       0.110  10.011  22.173  0.00  0.00    +0.000 A 
ENDBRANCH  12  13
ENDBRANCH   8  12
BRANCH  10  21
ATOM     21  C   UNL     1       4.030   6.556  17.777  0.00  0.00    +0.000 C 
BRANCH  21  22
ATOM     22  N   UNL     1       5.271   6.039  17.153  0.00  0.00    +0.000 NA
ATOM     23  C   UNL     1       6.298   7.068  16.938  0.00  0.00    +0.000 C 
ATOM     24  C   UNL     1       7.466   6.783  17.883  0.00  0.00    +0.000 C 
ATOM     25  C   UNL     1       6.884   5.825  18.901  0.00  0.00    +0.000 C 
ATOM     26  C   UNL     1       5.894   5.037  18.047  0.00  0.00    +0.000 C 
BRANCH  25  27
ATOM     27  O   UNL     1       7.883   5.027  19.509  0.00  0.00    +0.000 OA
ATOM     28  H   UNL     1       8.661   5.585  19.677  0.00  0.00    +0.000 HD
ENDBRANCH  25  27
ENDBRANCH  21  22
ENDBRANCH  10  21
TORSDOF 5
ENDMDL
MODEL 2
REMARK VINA RESULT:      -8.2      1.854      1.949
REMARK  Name = 
REMARK  6 active torsions:
REMARK  status: ('A' for Active; 'I' for Inactive)
REMARK    1  A    between atoms: C_1  and  C_2
REMARK    2  A    between atoms: C_8  and  C_10
REMARK    3  A    between atoms: C_10  and  C_11
REMARK    4  A    between atoms: C_19  and  C_20
REMARK    5  A    between atoms: C_20  and  N_21
REMARK    6  A    between atoms: C_24  and  O_25
REMARK                            x       y       z     vdW  Elec       q    Type
REMARK                         _______ _______ _______ _____ _____    ______ ____
ROOT
ATOM      1  C   UNL     1       2.544   1.828  19.004  0.00  0.00    +0.000 C 
ATOM      2  C   UNL     1       1.710   2.790  19.811  0.00  0.00    +0.000 C 
ATOM      3  O   UNL     1       1.190   2.416  20.862  0.00  0.00    +0.000 OA
ATOM      4  N   UNL     1       1.584   4.089  19.337  0.00  0.00    +0.000 N 
ATOM      5  C   UNL     1       0.979   5.097  20.210  0.00  0.00    +0.000 C 
ATOM      6  C   UNL     1       2.023   6.174  20.563  0.00  0.00    +0.000 C 
ATOM      7  N   UNL     1       2.616   6.758  19.336  0.00  0.00    +0.000 N 
ATOM      8  C   UNL     1       2.242   8.024  18.854  0.00  0.00    +0.000 C 
ATOM      9  O   UNL     1       2.530   8.431  17.731  0.00  0.00    +0.000 OA
ATOM     10  C   UNL     1       3.266   5.713  18.482  0.00  0.00    +0.000 C 
ATOM     11  C   UNL     1       2.200   4.635  18.117  0.00  0.00    +0.000 C 
ENDROOT
BRANCH   8  12
ATOM     12  C   UNL     1       1.391   8.875  19.804  0.00  0.00    +0.000 C 
BRANCH  12  13
ATOM     13  C   UNL     1       0.644  10.051  19.214  0.00  0.00    +0.000 A 
ATOM     14  C   UNL     1      -0.633   9.879  18.657  0.00  0.00    +0.000 A 
ATOM     15  C   UNL     1      -1.366  10.983  18.223  0.00  0.00    +0.000 A 
ATOM     16  F   UNL     1      -2.594  10.799  17.717  0.00  0.00    +0.000 F 
ATOM     17  C   UNL     1      -0.860  12.269  18.331  0.00  0.00    +0.000 A 
ATOM     18  C   UNL     1       0.405  12.440  18.874  0.00  0.00    +0.000 A 
ATOM     19  F   UNL     1       0.901  13.678  19.005  0.00  0.00    +0.000 F 
ATOM     20  C   UNL     1       1.161  11.352  19.311  0.00  0.00    +0.000 A 
ENDBRANCH  12  13
ENDBRANCH   8  12
BRANCH  10  21
ATOM     21  C   UNL     1       4.043   6.104  17.183  0.00  0.00    +0.000 C 
BRANCH  21  22
ATOM     22  N   UNL     1       4.745   5.039  16.427  0.00  0.00    +0.000 NA
ATOM     23  C   UNL     1       5.662   5.550  15.399  0.00  0.00    +0.000 C 
ATOM     24  C   UNL     1       7.093   5.237  15.838  0.00  0.00    +0.000 C 
ATOM     25  C   UNL     1       6.959   4.912  17.311  0.00  0.00    +0.000 C 
ATOM     26  C   UNL     1       5.586   4.247  17.353  0.00  0.00    +0.000 C 
BRANCH  25  27
ATOM     27  O   UNL     1       8.014   4.086  17.770  0.00  0.00    +0.000 OA
ATOM     28  H   UNL     1       8.534   4.586  18.422  0.00  0.00    +0.000 HD
ENDBRANCH  25  27
ENDBRANCH  21  22
ENDBRANCH  10  21
TORSDOF 5
ENDMDL
MODEL 3
REMARK VINA RESULT:      -8.1      4.462      8.065
REMARK  Name = 
REMARK  6 active torsions:
REMARK  status: ('A' for Active; 'I' for Inactive)
REMARK    1  A    between atoms: C_1  and  C_2
REMARK    2  A    between atoms: C_8  and  C_10
REMARK    3  A    between atoms: C_10  and  C_11
REMARK    4  A    between atoms: C_19  and  C_20
REMARK    5  A    between atoms: C_20  and  N_21
REMARK    6  A    between atoms: C_24  and  O_25
REMARK                            x       y       z     vdW  Elec       q    Type
REMARK                         _______ _______ _______ _____ _____    ______ ____
ROOT
ATOM      1  C   UNL     1       0.722   3.680  20.380  0.00  0.00    +0.000 C 
ATOM      2  C   UNL     1       1.876   2.910  19.790  0.00  0.00    +0.000 C 
ATOM      3  O   UNL     1       1.809   1.685  19.695  0.00  0.00    +0.000 OA
ATOM      4  N   UNL     1       2.975   3.634  19.348  0.00  0.00    +0.000 N 
ATOM      5  C   UNL     1       4.000   2.941  18.567  0.00  0.00    +0.000 C 
ATOM      6  C   UNL     1       4.046   3.520  17.139  0.00  0.00    +0.000 C 
ATOM      7  N   UNL     1       4.242   4.989  17.168  0.00  0.00    +0.000 N 
ATOM      8  C   UNL     1       5.483   5.583  16.888  0.00  0.00    +0.000 C 
ATOM      9  O   UNL     1       5.739   6.760  17.132  0.00  0.00    +0.000 OA
ATOM     10  C   UNL     1       3.156   5.678  17.938  0.00  0.00    +0.000 C 
ATOM     11  C   UNL     1       3.127   5.098  19.385  0.00  0.00    +0.000 C 
ENDROOT
BRANCH   8  12
ATOM     12  C   UNL     1       6.548   4.656  16.290  0.00  0.00    +0.000 C 
BRANCH  12  13
ATOM     13  C   UNL     1       6.679   4.618  14.783  0.00  0.00    +0.000 A 
ATOM     14  C   UNL     1       7.551   5.496  14.120  0.00  0.00    +0.000 A 
ATOM     15  C   UNL     1       7.759   5.378  12.746  0.00  0.00    +0.000 A 
ATOM     16  F   UNL     1       8.615   6.210  12.137  0.00  0.00    +0.000 F 
ATOM     17  C   UNL     1       7.117   4.398  12.004  0.00  0.00    +0.000 A 
ATOM     18  C   UNL     1       6.249   3.534  12.657  0.00  0.00    +0.000 A 
ATOM     19  F   UNL     1       5.637   2.568  11.959  0.00  0.00    +0.000 F 
ATOM     20  C   UNL     1       6.021   3.635  14.029  0.00  0.00    +0.000 A 
ENDBRANCH  12  13
ENDBRANCH   8  12
BRANCH  10  21
ATOM     21  C   UNL     1       3.098   7.237  18.026  0.00  0.00    +0.000 C 
BRANCH  21  22
ATOM     22  N   UNL     1       1.786   7.887  18.258  0.00  0.00    +0.000 NA
ATOM     23  C   UNL     1       1.585   8.336  19.643  0.00  0.00    +0.000 C 
ATOM     24  C   UNL     1       1.576   9.865  19.652  0.00  0.00    +0.000 C 
ATOM     25  C   UNL     1       2.182  10.241  18.316  0.00  0.00    +0.000 C 
ATOM     26  C   UNL     1       1.683   9.106  17.426  0.00  0.00    +0.000 C 
BRANCH  25  27
ATOM     27  O   UNL     1       1.776  11.529  17.892  0.00  0.00    +0.000 OA
ATOM     28  H   UNL     1       1.935  11.602  16.936  0.00  0.00    +0.000 HD
ENDBRANCH  25  27
ENDBRANCH  21  22
ENDBRANCH  10  21
TORSDOF 5
ENDMDL
MODEL 4
REMARK VINA RESULT:      -8.1      1.513      2.130
REMARK  Name = 
REMARK  6 active torsions:
REMARK  status: ('A' for Active; 'I' for Inactive)
REMARK    1  A    between atoms: C_1  and  C_2
REMARK    2  A    between atoms: C_8  and  C_10
REMARK    3  A    between atoms: C_10  and  C_11
REMARK    4  A    between atoms: C_19  and  C_20
REMARK    5  A    between atoms: C_20  and  N_21
REMARK    6  A    between atoms: C_24  and  O_25
REMARK                            x       y       z     vdW  Elec       q    Type
REMARK                         _______ _______ _______ _____ _____    ______ ____
ROOT
ATOM      1  C   UNL     1       2.786   2.078  17.552  0.00  0.00    +0.000 C 
ATOM      2  C   UNL     1       1.951   2.501  18.734  0.00  0.00    +0.000 C 
ATOM      3  O   UNL     1       1.582   1.662  19.555  0.00  0.00    +0.000 OA
ATOM      4  N   UNL     1       1.649   3.850  18.861  0.00  0.00    +0.000 N 
ATOM      5  C   UNL     1       1.044   4.318  20.109  0.00  0.00    +0.000 C 
ATOM      6  C   UNL     1       2.009   5.282  20.827  0.00  0.00    +0.000 C 
ATOM      7  N   UNL     1       2.411   6.393  19.932  0.00  0.00    +0.000 N 
ATOM      8  C   UNL     1       1.866   7.683  20.051  0.00  0.00    +0.000 C 
ATOM      9  O   UNL     1       1.994   8.551  19.191  0.00  0.00    +0.000 OA
ATOM     10  C   UNL     1       3.067   5.890  18.682  0.00  0.00    +0.000 C 
ATOM     11  C   UNL     1       2.078   4.928  17.954  0.00  0.00    +0.000 C 
ENDROOT
BRANCH   8  12
ATOM     12  C   UNL     1       1.041   7.945  21.316  0.00  0.00    +0.000 C 
BRANCH  12  13
ATOM     13  C   UNL     1       0.440   9.323  21.488  0.00  0.00    +0.000 A 
ATOM     14  C   UNL     1      -0.555   9.553  22.453  0.00  0.00    +0.000 A 
ATOM     15  C   UNL     1      -1.020  10.846  22.690  0.00  0.00    +0.000 A 
ATOM     16  F   UNL     1      -1.951  11.047  23.632  0.00  0.00    +0.000 F 
ATOM     17  C   UNL     1      -0.517  11.930  21.987  0.00  0.00    +0.000 A 
ATOM     18  C   UNL     1       0.460  11.704  21.029  0.00  0.00    +0.000 A 
ATOM     19  F   UNL     1       0.973  12.743  20.355  0.00  0.00    +0.000 F 
ATOM     20  C   UNL     1       0.939  10.419  20.769  0.00  0.00    +0.000 A 
ENDBRANCH  12  13
ENDBRANCH   8  12
BRANCH  10  21
ATOM     21  C   UNL     1       3.661   6.881  17.630  0.00  0.00    +0.000 C 
BRANCH  21  22
ATOM     22  N   UNL     1       5.084   6.734  17.240  0.00  0.00    +0.000 NA
ATOM     23  C   UNL     1       5.807   5.715  18.012  0.00  0.00    +0.000 C 
ATOM     24  C   UNL     1       6.138   4.552  17.076  0.00  0.00    +0.000 C 
ATOM     25  C   UNL     1       5.229   4.773  15.886  0.00  0.00    +0.000 C 
ATOM     26  C   UNL     1       5.167   6.297  15.828  0.00  0.00    +0.000 C 
BRANCH  25  27
ATOM     27  O   UNL     1       5.738   4.172  14.710  0.00  0.00    +0.000 OA
ATOM     28  H   UNL     1       6.687   4.374  14.648  0.00  0.00    +0.000 HD
ENDBRANCH  25  27
ENDBRANCH  21  22
ENDBRANCH  10  21
TORSDOF 5
ENDMDL
MODEL 5
REMARK VINA RESULT:      -8.1      1.954      2.054
REMARK  Name = 
REMARK  6 active torsions:
REMARK  status: ('A' for Active; 'I' for Inactive)
REMARK    1  A    between atoms: C_1  and  C_2
REMARK    2  A    between atoms: C_8  and  C_10
REMARK    3  A    between atoms: C_10  and  C_11
REMARK    4  A    between atoms: C_19  and  C_20
REMARK    5  A    between atoms: C_20  and  N_21
REMARK    6  A    between atoms: C_24  and  O_25
REMARK                            x       y       z     vdW  Elec       q    Type
REMARK                         _______ _______ _______ _____ _____    ______ ____
ROOT
ATOM      1  C   UNL     1       3.923   1.979  18.065  0.00  0.00    +0.000 C 
ATOM      2  C   UNL     1       2.994   2.751  18.968  0.00  0.00    +0.000 C 
ATOM      3  O   UNL     1       2.613   2.250  20.025  0.00  0.00    +0.000 OA
ATOM      4  N   UNL     1       2.623   4.028  18.571  0.00  0.00    +0.000 N 
ATOM      5  C   UNL     1       1.917   4.881  19.528  0.00  0.00    +0.000 C 
ATOM      6  C   UNL     1       2.787   6.103  19.878  0.00  0.00    +0.000 C 
ATOM      7  N   UNL     1       3.195   6.832  18.653  0.00  0.00    +0.000 N 
ATOM      8  C   UNL     1       2.584   8.034  18.260  0.00  0.00    +0.000 C 
ATOM      9  O   UNL     1       2.728   8.532  17.146  0.00  0.00    +0.000 OA
ATOM     10  C   UNL     1       3.953   5.948  17.709  0.00  0.00    +0.000 C 
ATOM     11  C   UNL     1       3.060   4.722  17.348  0.00  0.00    +0.000 C 
ENDROOT
BRANCH   8  12
ATOM     12  C   UNL     1       1.668   8.688  19.300  0.00  0.00    +0.000 C 
BRANCH  12  13
ATOM     13  C   UNL     1       0.891   9.917  18.878  0.00  0.00    +0.000 A 
ATOM     14  C   UNL     1      -0.426   9.802  18.406  0.00  0.00    +0.000 A 
ATOM     15  C   UNL     1      -1.177  10.944  18.131  0.00  0.00    +0.000 A 
ATOM     16  F   UNL     1      -2.441  10.813  17.706  0.00  0.00    +0.000 F 
ATOM     17  C   UNL     1      -0.649  12.213  18.317  0.00  0.00    +0.000 A 
ATOM     18  C   UNL     1       0.655  12.328  18.776  0.00  0.00    +0.000 A 
ATOM     19  F   UNL     1       1.174  13.547  18.981  0.00  0.00    +0.000 F 
ATOM     20  C   UNL     1       1.429  11.201  19.053  0.00  0.00    +0.000 A 
ENDBRANCH  12  13
ENDBRANCH   8  12
BRANCH  10  21
ATOM     21  C   UNL     1       4.568   6.520  16.391  0.00  0.00    +0.000 C 
BRANCH  21  22
ATOM     22  N   UNL     1       6.029   6.767  16.337  0.00  0.00    +0.000 NA
ATOM     23  C   UNL     1       6.578   7.340  17.574  0.00  0.00    +0.000 C 
ATOM     24  C   UNL     1       7.470   6.287  18.233  0.00  0.00    +0.000 C 
ATOM     25  C   UNL     1       7.074   4.996  17.549  0.00  0.00    +0.000 C 
ATOM     26  C   UNL     1       6.742   5.485  16.142  0.00  0.00    +0.000 C 
BRANCH  25  27
ATOM     27  O   UNL     1       8.110   4.032  17.595  0.00  0.00    +0.000 OA
ATOM     28  H   UNL     1       8.412   3.862  16.686  0.00  0.00    +0.000 HD
ENDBRANCH  25  27
ENDBRANCH  21  22
ENDBRANCH  10  21
TORSDOF 5
ENDMDL
MODEL 6
REMARK VINA RESULT:      -8.1      1.652      1.765
REMARK  Name = 
REMARK  6 active torsions:
REMARK  status: ('A' for Active; 'I' for Inactive)
REMARK    1  A    between atoms: C_1  and  C_2
REMARK    2  A    between atoms: C_8  and  C_10
REMARK    3  A    between atoms: C_10  and  C_11
REMARK    4  A    between atoms: C_19  and  C_20
REMARK    5  A    between atoms: C_20  and  N_21
REMARK    6  A    between atoms: C_24  and  O_25
REMARK                            x       y       z     vdW  Elec       q    Type
REMARK                         _______ _______ _______ _____ _____    ______ ____
ROOT
ATOM      1  C   UNL     1       2.780   1.872  19.131  0.00  0.00    +0.000 C 
ATOM      2  C   UNL     1       1.835   2.784  19.871  0.00  0.00    +0.000 C 
ATOM      3  O   UNL     1       1.243   2.373  20.868  0.00  0.00    +0.000 OA
ATOM      4  N   UNL     1       1.692   4.082  19.400  0.00  0.00    +0.000 N 
ATOM      5  C   UNL     1       0.968   5.050  20.226  0.00  0.00    +0.000 C 
ATOM      6  C   UNL     1       1.926   6.168  20.680  0.00  0.00    +0.000 C 
ATOM      7  N   UNL     1       2.597   6.795  19.516  0.00  0.00    +0.000 N 
ATOM      8  C   UNL     1       2.208   8.049  19.015  0.00  0.00    +0.000 C 
ATOM      9  O   UNL     1       2.574   8.484  17.926  0.00  0.00    +0.000 OA
ATOM     10  C   UNL     1       3.367   5.791  18.712  0.00  0.00    +0.000 C 
ATOM     11  C   UNL     1       2.386   4.672  18.244  0.00  0.00    +0.000 C 
ENDROOT
BRANCH   8  12
ATOM     12  C   UNL     1       1.241   8.848  19.895  0.00  0.00    +0.000 C 
BRANCH  12  13
ATOM     13  C   UNL     1       0.566  10.055  19.280  0.00  0.00    +0.000 A 
ATOM     14  C   UNL     1      -0.771   9.987  18.856  0.00  0.00    +0.000 A 
ATOM     15  C   UNL     1      -1.424  11.132  18.401  0.00  0.00    +0.000 A 
ATOM     16  F   UNL     1      -2.707  11.051  18.025  0.00  0.00    +0.000 F 
ATOM     17  C   UNL     1      -0.776  12.358  18.356  0.00  0.00    +0.000 A 
ATOM     18  C   UNL     1       0.547  12.425  18.766  0.00  0.00    +0.000 A 
ATOM     19  F   UNL     1       1.181  13.606  18.749  0.00  0.00    +0.000 F 
ATOM     20  C   UNL     1       1.224  11.293  19.222  0.00  0.00    +0.000 A 
ENDBRANCH  12  13
ENDBRANCH   8  12
BRANCH  10  21
ATOM     21  C   UNL     1       4.234   6.234  17.490  0.00  0.00    +0.000 C 
BRANCH  21  22
ATOM     22  N   UNL     1       5.536   5.562  17.262  0.00  0.00    +0.000 NA
ATOM     23  C   UNL     1       6.622   6.484  16.901  0.00  0.00    +0.000 C 
ATOM     24  C   UNL     1       7.620   6.524  18.059  0.00  0.00    +0.000 C 
ATOM     25  C   UNL     1       6.853   5.927  19.220  0.00  0.00    +0.000 C 
ATOM     26  C   UNL     1       5.976   4.899  18.510  0.00  0.00    +0.000 C 
BRANCH  25  27
ATOM     27  O   UNL     1       7.715   5.372  20.197  0.00  0.00    +0.000 OA
ATOM     28  H   UNL     1       8.566   5.165  19.773  0.00  0.00    +0.000 HD
ENDBRANCH  25  27
ENDBRANCH  21  22
ENDBRANCH  10  21
TORSDOF 5
ENDMDL
MODEL 7
REMARK VINA RESULT:      -8.1      1.068      1.332
REMARK  Name = 
REMARK  6 active torsions:
REMARK  status: ('A' for Active; 'I' for Inactive)
REMARK    1  A    between atoms: C_1  and  C_2
REMARK    2  A    between atoms: C_8  and  C_10
REMARK    3  A    between atoms: C_10  and  C_11
REMARK    4  A    between atoms: C_19  and  C_20
REMARK    5  A    between atoms: C_20  and  N_21
REMARK    6  A    between atoms: C_24  and  O_25
REMARK                            x       y       z     vdW  Elec       q    Type
REMARK                         _______ _______ _______ _____ _____    ______ ____
ROOT
ATOM      1  C   UNL     1       3.330   1.642  18.075  0.00  0.00    +0.000 C 
ATOM      2  C   UNL     1       2.293   2.198  19.017  0.00  0.00    +0.000 C 
ATOM      3  O   UNL     1       1.744   1.455  19.830  0.00  0.00    +0.000 OA
ATOM      4  N   UNL     1       2.016   3.556  18.942  0.00  0.00    +0.000 N 
ATOM      5  C   UNL     1       1.192   4.162  19.990  0.00  0.00    +0.000 C 
ATOM      6  C   UNL     1       2.028   5.186  20.783  0.00  0.00    +0.000 C 
ATOM      7  N   UNL     1       2.633   6.191  19.876  0.00  0.00    +0.000 N 
ATOM      8  C   UNL     1       2.117   7.491  19.751  0.00  0.00    +0.000 C 
ATOM      9  O   UNL     1       2.439   8.262  18.850  0.00  0.00    +0.000 OA
ATOM     10  C   UNL     1       3.506   5.549  18.840  0.00  0.00    +0.000 C 
ATOM     11  C   UNL     1       2.649   4.526  18.033  0.00  0.00    +0.000 C 
ENDROOT
BRANCH   8  12
ATOM     12  C   UNL     1       1.068   7.896  20.793  0.00  0.00    +0.000 C 
BRANCH  12  13
ATOM     13  C   UNL     1       0.467   9.281  20.682  0.00  0.00    +0.000 A 
ATOM     14  C   UNL     1      -0.025   9.749  19.453  0.00  0.00    +0.000 A 
ATOM     15  C   UNL     1      -0.685  10.975  19.380  0.00  0.00    +0.000 A 
ATOM     16  F   UNL     1      -1.169  11.392  18.202  0.00  0.00    +0.000 F 
ATOM     17  C   UNL     1      -0.874  11.757  20.510  0.00  0.00    +0.000 A 
ATOM     18  C   UNL     1      -0.382  11.300  21.723  0.00  0.00    +0.000 A 
ATOM     19  F   UNL     1      -0.574  12.033  22.828  0.00  0.00    +0.000 F 
ATOM     20  C   UNL     1       0.286  10.079  21.822  0.00  0.00    +0.000 A 
ENDBRANCH  12  13
ENDBRANCH   8  12
BRANCH  10  21
ATOM     21  C   UNL     1       4.326   6.416  17.831  0.00  0.00    +0.000 C 
BRANCH  21  22
ATOM     22  N   UNL     1       5.800   6.479  17.983  0.00  0.00    +0.000 NA
ATOM     23  C   UNL     1       6.401   5.220  18.447  0.00  0.00    +0.000 C 
ATOM     24  C   UNL     1       7.227   4.635  17.302  0.00  0.00    +0.000 C 
ATOM     25  C   UNL     1       6.737   5.384  16.080  0.00  0.00    +0.000 C 
ATOM     26  C   UNL     1       6.422   6.756  16.669  0.00  0.00    +0.000 C 
BRANCH  25  27
ATOM     27  O   UNL     1       7.706   5.408  15.048  0.00  0.00    +0.000 OA
ATOM     28  H   UNL     1       7.947   6.334  14.874  0.00  0.00    +0.000 HD
ENDBRANCH  25  27
ENDBRANCH  21  22
ENDBRANCH  10  21
TORSDOF 5
ENDMDL
MODEL 8
REMARK VINA RESULT:      -8.1      1.974      4.311
REMARK  Name = 
REMARK  6 active torsions:
REMARK  status: ('A' for Active; 'I' for Inactive)
REMARK    1  A    between atoms: C_1  and  C_2
REMARK    2  A    between atoms: C_8  and  C_10
REMARK    3  A    between atoms: C_10  and  C_11
REMARK    4  A    between atoms: C_19  and  C_20
REMARK    5  A    between atoms: C_20  and  N_21
REMARK    6  A    between atoms: C_24  and  O_25
REMARK                            x       y       z     vdW  Elec       q    Type
REMARK                         _______ _______ _______ _____ _____    ______ ____
ROOT
ATOM      1  C   UNL     1       5.543   4.248  16.541  0.00  0.00    +0.000 C 
ATOM      2  C   UNL     1       5.309   5.732  16.420  0.00  0.00    +0.000 C 
ATOM      3  O   UNL     1       5.652   6.324  15.397  0.00  0.00    +0.000 OA
ATOM      4  N   UNL     1       4.682   6.375  17.478  0.00  0.00    +0.000 N 
ATOM      5  C   UNL     1       4.238   7.757  17.293  0.00  0.00    +0.000 C 
ATOM      6  C   UNL     1       2.700   7.826  17.380  0.00  0.00    +0.000 C 
ATOM      7  N   UNL     1       2.214   7.232  18.648  0.00  0.00    +0.000 N 
ATOM      8  C   UNL     1       1.789   8.022  19.729  0.00  0.00    +0.000 C 
ATOM      9  O   UNL     1       1.609   7.577  20.860  0.00  0.00    +0.000 OA
ATOM     10  C   UNL     1       2.646   5.804  18.793  0.00  0.00    +0.000 C 
ATOM     11  C   UNL     1       4.203   5.745  18.720  0.00  0.00    +0.000 C 
ENDROOT
BRANCH   8  12
ATOM     12  C   UNL     1       1.601   9.514  19.432  0.00  0.00    +0.000 C 
BRANCH  12  13
ATOM     13  C   UNL     1       0.205   9.993  19.097  0.00  0.00    +0.000 A 
ATOM     14  C   UNL     1      -0.475  10.869  19.957  0.00  0.00    +0.000 A 
ATOM     15  C   UNL     1      -1.710  11.401  19.588  0.00  0.00    +0.000 A 
ATOM     16  F   UNL     1      -2.331  12.255  20.413  0.00  0.00    +0.000 F 
ATOM     17  C   UNL     1      -2.294  11.083  18.371  0.00  0.00    +0.000 A 
ATOM     18  C   UNL     1      -1.627  10.212  17.523  0.00  0.00    +0.000 A 
ATOM     19  F   UNL     1      -2.167   9.910  16.334  0.00  0.00    +0.000 F 
ATOM     20  C   UNL     1      -0.393   9.662  17.871  0.00  0.00    +0.000 A 
ENDBRANCH  12  13
ENDBRANCH   8  12
BRANCH  10  21
ATOM     21  C   UNL     1       2.173   4.940  20.006  0.00  0.00    +0.000 C 
BRANCH  21  22
ATOM     22  N   UNL     1       1.640   3.581  19.745  0.00  0.00    +0.000 NA
ATOM     23  C   UNL     1       1.323   3.331  18.332  0.00  0.00    +0.000 C 
ATOM     24  C   UNL     1       2.319   2.302  17.795  0.00  0.00    +0.000 C 
ATOM     25  C   UNL     1       3.432   2.302  18.821  0.00  0.00    +0.000 C 
ATOM     26  C   UNL     1       2.659   2.571  20.110  0.00  0.00    +0.000 C 
BRANCH  25  27
ATOM     27  O   UNL     1       4.151   1.083  18.824  0.00  0.00    +0.000 OA
ATOM     28  H   UNL     1       3.648   0.428  18.311  0.00  0.00    +0.000 HD
ENDBRANCH  25  27
ENDBRANCH  21  22
ENDBRANCH  10  21
TORSDOF 5
ENDMDL
MODEL 9
REMARK VINA RESULT:      -8.1      2.078      4.345
REMARK  Name = 
REMARK  6 active torsions:
REMARK  status: ('A' for Active; 'I' for Inactive)
REMARK    1  A    between atoms: C_1  and  C_2
REMARK    2  A    between atoms: C_8  and  C_10
REMARK    3  A    between atoms: C_10  and  C_11
REMARK    4  A    between atoms: C_19  and  C_20
REMARK    5  A    between atoms: C_20  and  N_21
REMARK    6  A    between atoms: C_24  and  O_25
REMARK                            x       y       z     vdW  Elec       q    Type
REMARK                         _______ _______ _______ _____ _____    ______ ____
ROOT
ATOM      1  C   UNL     1       7.337   4.217  17.574  0.00  0.00    +0.000 C 
ATOM      2  C   UNL     1       6.956   5.559  17.004  0.00  0.00    +0.000 C 
ATOM      3  O   UNL     1       7.487   5.957  15.967  0.00  0.00    +0.000 OA
ATOM      4  N   UNL     1       5.986   6.292  17.673  0.00  0.00    +0.000 N 
ATOM      5  C   UNL     1       5.434   7.481  17.022  0.00  0.00    +0.000 C 
ATOM      6  C   UNL     1       3.936   7.267  16.728  0.00  0.00    +0.000 C 
ATOM      7  N   UNL     1       3.202   6.895  17.961  0.00  0.00    +0.000 N 
ATOM      8  C   UNL     1       2.399   7.813  18.658  0.00  0.00    +0.000 C 
ATOM      9  O   UNL     1       1.975   7.613  19.794  0.00  0.00    +0.000 OA
ATOM     10  C   UNL     1       3.759   5.651  18.585  0.00  0.00    +0.000 C 
ATOM     11  C   UNL     1       5.270   5.882  18.892  0.00  0.00    +0.000 C 
ENDROOT
BRANCH   8  12
ATOM     12  C   UNL     1       2.108   9.132  17.933  0.00  0.00    +0.000 C 
BRANCH  12  13
ATOM     13  C   UNL     1       0.873   9.903  18.346  0.00  0.00    +0.000 A 
ATOM     14  C   UNL     1       0.985  11.060  19.133  0.00  0.00    +0.000 A 
ATOM     15  C   UNL     1      -0.142  11.834  19.411  0.00  0.00    +0.000 A 
ATOM     16  F   UNL     1      -0.010  12.948  20.143  0.00  0.00    +0.000 F 
ATOM     17  C   UNL     1      -1.391  11.484  18.921  0.00  0.00    +0.000 A 
ATOM     18  C   UNL     1      -1.504  10.336  18.150  0.00  0.00    +0.000 A 
ATOM     19  F   UNL     1      -2.701   9.996  17.651  0.00  0.00    +0.000 F 
ATOM     20  C   UNL     1      -0.393   9.544  17.862  0.00  0.00    +0.000 A 
ENDBRANCH  12  13
ENDBRANCH   8  12
BRANCH  10  21
ATOM     21  C   UNL     1       3.087   5.012  19.842  0.00  0.00    +0.000 C 
BRANCH  21  22
ATOM     22  N   UNL     1       2.588   3.619  19.751  0.00  0.00    +0.000 NA
ATOM     23  C   UNL     1       2.590   3.079  18.384  0.00  0.00    +0.000 C 
ATOM     24  C   UNL     1       3.651   1.980  18.306  0.00  0.00    +0.000 C 
ATOM     25  C   UNL     1       4.505   2.212  19.535  0.00  0.00    +0.000 C 
ATOM     26  C   UNL     1       3.470   2.724  20.533  0.00  0.00    +0.000 C 
BRANCH  25  27
ATOM     27  O   UNL     1       5.170   1.032  19.948  0.00  0.00    +0.000 OA
ATOM     28  H   UNL     1       4.551   0.287  19.869  0.00  0.00    +0.000 HD
ENDBRANCH  25  27
ENDBRANCH  21  22
ENDBRANCH  10  21
TORSDOF 5
ENDMDL
