MODEL 1
REMARK VINA RESULT:      -5.3      0.000      0.000
REMARK  Name = 
REMARK  4 active torsions:
REMARK  status: ('A' for Active; 'I' for Inactive)
REMARK    1  A    between atoms: C_1  and  C_2
REMARK    2  A    between atoms: C_2  and  C_3
REMARK    3  A    between atoms: C_3  and  N_4
REMARK    4  A    between atoms: N_4  and  C_7
REMARK                            x       y       z     vdW  Elec       q    Type
REMARK                         _______ _______ _______ _____ _____    ______ ____
ROOT
ATOM      1  N   UNL     1       5.342   5.593  18.329  0.00  0.00    +0.000 N 
ATOM      2  C   UNL     1       6.621   5.749  18.860  0.00  0.00    +0.000 C 
ATOM      3  O   UNL     1       7.051   5.226  19.882  0.00  0.00    +0.000 OA
ENDROOT
BRANCH   1   4
ATOM      4  C   UNL     1       4.363   4.868  19.176  0.00  0.00    +0.000 C 
ATOM      5  C   UNL     1       2.957   5.488  19.144  0.00  0.00    +0.000 C 
ATOM      6  C   UNL     1       2.122   5.038  17.952  0.00  0.00    +0.000 C 
ATOM      7  C   UNL     1       2.018   3.522  17.870  0.00  0.00    +0.000 C 
ATOM      8  C   UNL     1       3.372   2.824  17.898  0.00  0.00    +0.000 C 
ATOM      9  C   UNL     1       4.311   3.337  18.992  0.00  0.00    +0.000 C 
ENDBRANCH   1   4
BRANCH   1  10
ATOM     10  C   UNL     1       4.899   6.491  17.262  0.00  0.00    +0.000 C 
BRANCH  10  12
ATOM     11  C   UNL     1       5.370   4.642  15.576  0.00  0.00    +0.000 C 
ATOM     12  C   UNL     1       5.350   6.138  15.838  0.00  0.00    +0.000 C 
ENDBRANCH  10  12
ENDBRANCH   1  10
TORSDOF 3
ENDMDL
MODEL 2
REMARK VINA RESULT:      -5.2      0.855      1.071
REMARK  Name = 
REMARK  4 active torsions:
REMARK  status: ('A' for Active; 'I' for Inactive)
REMARK    1  A    between atoms: C_1  and  C_2
REMARK    2  A    between atoms: C_2  and  C_3
REMARK    3  A    between atoms: C_3  and  N_4
REMARK    4  A    between atoms: N_4  and  C_7
REMARK                            x       y       z     vdW  Elec       q    Type
REMARK                         _______ _______ _______ _____ _____    ______ ____
ROOT
ATOM      1  N   UNL     1       5.605   4.851  18.031  0.00  0.00    +0.000 N 
ATOM      2  C   UNL     1       6.711   5.368  18.703  0.00  0.00    +0.000 C 
ATOM      3  O   UNL     1       6.915   5.316  19.910  0.00  0.00    +0.000 OA
ENDROOT
BRANCH   1   4
ATOM      4  C   UNL     1       4.497   4.347  18.880  0.00  0.00    +0.000 C 
ATOM      5  C   UNL     1       3.470   5.431  19.242  0.00  0.00    +0.000 C 
ATOM      6  C   UNL     1       2.418   5.656  18.163  0.00  0.00    +0.000 C 
ATOM      7  C   UNL     1       1.698   4.368  17.793  0.00  0.00    +0.000 C 
ATOM      8  C   UNL     1       2.645   3.235  17.420  0.00  0.00    +0.000 C 
ATOM      9  C   UNL     1       3.808   3.053  18.399  0.00  0.00    +0.000 C 
ENDBRANCH   1   4
BRANCH   1  10
ATOM     10  C   UNL     1       5.376   5.229  16.636  0.00  0.00    +0.000 C 
BRANCH  10  12
ATOM     11  C   UNL     1       6.793   4.742  14.577  0.00  0.00    +0.000 C 
ATOM     12  C   UNL     1       5.781   4.200  15.571  0.00  0.00    +0.000 C 
ENDBRANCH  10  12
ENDBRANCH   1  10
TORSDOF 3
ENDMDL
MODEL 3
REMARK VINA RESULT:      -5.1      2.537      3.768
REMARK  Name = 
REMARK  4 active torsions:
REMARK  status: ('A' for Active; 'I' for Inactive)
REMARK    1  A    between atoms: C_1  and  C_2
REMARK    2  A    between atoms: C_2  and  C_3
REMARK    3  A    between atoms: C_3  and  N_4
REMARK    4  A    between atoms: N_4  and  C_7
REMARK                            x       y       z     vdW  Elec       q    Type
REMARK                         _______ _______ _______ _____ _____    ______ ____
ROOT
ATOM      1  N   UNL     1       2.571   4.011  20.362  0.00  0.00    +0.000 N 
ATOM      2  C   UNL     1       2.166   3.564  21.618  0.00  0.00    +0.000 C 
ATOM      3  O   UNL     1       2.549   2.547  22.184  0.00  0.00    +0.000 OA
ENDROOT
BRANCH   1   4
ATOM      4  C   UNL     1       3.408   3.076  19.571  0.00  0.00    +0.000 C 
ATOM      5  C   UNL     1       2.693   2.528  18.325  0.00  0.00    +0.000 C 
ATOM      6  C   UNL     1       2.764   3.463  17.124  0.00  0.00    +0.000 C 
ATOM      7  C   UNL     1       4.197   3.831  16.774  0.00  0.00    +0.000 C 
ATOM      8  C   UNL     1       4.983   4.383  17.957  0.00  0.00    +0.000 C 
ATOM      9  C   UNL     1       4.834   3.558  19.237  0.00  0.00    +0.000 C 
ENDBRANCH   1   4
BRANCH   1  10
ATOM     10  C   UNL     1       1.826   5.091  19.715  0.00  0.00    +0.000 C 
BRANCH  10  12
ATOM     11  C   UNL     1       2.539   7.098  18.319  0.00  0.00    +0.000 C 
ATOM     12  C   UNL     1       2.492   6.474  19.703  0.00  0.00    +0.000 C 
ENDBRANCH  10  12
ENDBRANCH   1  10
TORSDOF 3
ENDMDL
MODEL 4
REMARK VINA RESULT:      -5.1      1.903      2.747
REMARK  Name = 
REMARK  4 active torsions:
REMARK  status: ('A' for Active; 'I' for Inactive)
REMARK    1  A    between atoms: C_1  and  C_2
REMARK    2  A    between atoms: C_2  and  C_3
REMARK    3  A    between atoms: C_3  and  N_4
REMARK    4  A    between atoms: N_4  and  C_7
REMARK                            x       y       z     vdW  Elec       q    Type
REMARK                         _______ _______ _______ _____ _____    ______ ____
ROOT
ATOM      1  N   UNL     1       4.100   5.003  19.032  0.00  0.00    +0.000 N 
ATOM      2  C   UNL     1       5.465   5.233  19.190  0.00  0.00    +0.000 C 
ATOM      3  O   UNL     1       6.347   4.382  19.206  0.00  0.00    +0.000 OA
ENDROOT
BRANCH   1   4
ATOM      4  C   UNL     1       3.665   3.585  19.062  0.00  0.00    +0.000 C 
ATOM      5  C   UNL     1       3.202   3.122  20.452  0.00  0.00    +0.000 C 
ATOM      6  C   UNL     1       1.752   3.477  20.759  0.00  0.00    +0.000 C 
ATOM      7  C   UNL     1       0.800   2.948  19.697  0.00  0.00    +0.000 C 
ATOM      8  C   UNL     1       1.188   3.360  18.282  0.00  0.00    +0.000 C 
ATOM      9  C   UNL     1       2.671   3.157  17.963  0.00  0.00    +0.000 C 
ENDBRANCH   1   4
BRANCH   1  10
ATOM     10  C   UNL     1       3.157   6.088  19.305  0.00  0.00    +0.000 C 
BRANCH  10  12
ATOM     11  C   UNL     1       2.289   8.250  18.277  0.00  0.00    +0.000 C 
ATOM     12  C   UNL     1       2.511   6.759  18.085  0.00  0.00    +0.000 C 
ENDBRANCH  10  12
ENDBRANCH   1  10
TORSDOF 3
ENDMDL
MODEL 5
REMARK VINA RESULT:      -5.0      1.878      3.376
REMARK  Name = 
REMARK  4 active torsions:
REMARK  status: ('A' for Active; 'I' for Inactive)
REMARK    1  A    between atoms: C_1  and  C_2
REMARK    2  A    between atoms: C_2  and  C_3
REMARK    3  A    between atoms: C_3  and  N_4
REMARK    4  A    between atoms: N_4  and  C_7
REMARK                            x       y       z     vdW  Elec       q    Type
REMARK                         _______ _______ _______ _____ _____    ______ ____
ROOT
ATOM      1  N   UNL     1       5.090   4.164  18.735  0.00  0.00    +0.000 N 
ATOM      2  C   UNL     1       4.690   3.105  19.547  0.00  0.00    +0.000 C 
ATOM      3  O   UNL     1       3.811   2.290  19.295  0.00  0.00    +0.000 OA
ENDROOT
BRANCH   1   4
ATOM      4  C   UNL     1       4.252   4.427  17.539  0.00  0.00    +0.000 C 
ATOM      5  C   UNL     1       3.556   5.797  17.575  0.00  0.00    +0.000 C 
ATOM      6  C   UNL     1       4.441   6.941  17.094  0.00  0.00    +0.000 C 
ATOM      7  C   UNL     1       4.996   6.683  15.701  0.00  0.00    +0.000 C 
ATOM      8  C   UNL     1       5.703   5.339  15.575  0.00  0.00    +0.000 C 
ATOM      9  C   UNL     1       4.920   4.169  16.173  0.00  0.00    +0.000 C 
ENDBRANCH   1   4
BRANCH   1  10
ATOM     10  C   UNL     1       5.959   5.201  19.291  0.00  0.00    +0.000 C 
BRANCH  10  12
ATOM     11  C   UNL     1       7.841   6.678  18.418  0.00  0.00    +0.000 C 
ATOM     12  C   UNL     1       7.391   5.264  18.741  0.00  0.00    +0.000 C 
ENDBRANCH  10  12
ENDBRANCH   1  10
TORSDOF 3
ENDMDL
MODEL 6
REMARK VINA RESULT:      -5.0      1.665      3.811
REMARK  Name = 
REMARK  4 active torsions:
REMARK  status: ('A' for Active; 'I' for Inactive)
REMARK    1  A    between atoms: C_1  and  C_2
REMARK    2  A    between atoms: C_2  and  C_3
REMARK    3  A    between atoms: C_3  and  N_4
REMARK    4  A    between atoms: N_4  and  C_7
REMARK                            x       y       z     vdW  Elec       q    Type
REMARK                         _______ _______ _______ _____ _____    ______ ____
ROOT
ATOM      1  N   UNL     1       3.978   3.286  18.559  0.00  0.00    +0.000 N 
ATOM      2  C   UNL     1       4.135   2.255  19.483  0.00  0.00    +0.000 C 
ATOM      3  O   UNL     1       5.071   2.115  20.261  0.00  0.00    +0.000 OA
ENDROOT
BRANCH   1   4
ATOM      4  C   UNL     1       5.137   4.196  18.387  0.00  0.00    +0.000 C 
ATOM      5  C   UNL     1       5.806   4.071  17.009  0.00  0.00    +0.000 C 
ATOM      6  C   UNL     1       5.119   4.889  15.923  0.00  0.00    +0.000 C 
ATOM      7  C   UNL     1       5.001   6.357  16.306  0.00  0.00    +0.000 C 
ATOM      8  C   UNL     1       4.348   6.573  17.665  0.00  0.00    +0.000 C 
ATOM      9  C   UNL     1       4.904   5.672  18.770  0.00  0.00    +0.000 C 
ENDBRANCH   1   4
BRANCH   1  10
ATOM     10  C   UNL     1       2.951   3.166  17.524  0.00  0.00    +0.000 C 
BRANCH  10  12
ATOM     11  C   UNL     1       1.419   4.382  19.154  0.00  0.00    +0.000 C 
ATOM     12  C   UNL     1       1.692   4.025  17.703  0.00  0.00    +0.000 C 
ENDBRANCH  10  12
ENDBRANCH   1  10
TORSDOF 3
ENDMDL
MODEL 7
REMARK VINA RESULT:      -5.0      2.402      3.925
REMARK  Name = 
REMARK  4 active torsions:
REMARK  status: ('A' for Active; 'I' for Inactive)
REMARK    1  A    between atoms: C_1  and  C_2
REMARK    2  A    between atoms: C_2  and  C_3
REMARK    3  A    between atoms: C_3  and  N_4
REMARK    4  A    between atoms: N_4  and  C_7
REMARK                            x       y       z     vdW  Elec       q    Type
REMARK                         _______ _______ _______ _____ _____    ______ ____
ROOT
ATOM      1  N   UNL     1       3.029   5.345  19.057  0.00  0.00    +0.000 N 
ATOM      2  C   UNL     1       3.001   6.689  18.689  0.00  0.00    +0.000 C 
ATOM      3  O   UNL     1       3.508   7.177  17.687  0.00  0.00    +0.000 OA
ENDROOT
BRANCH   1   4
ATOM      4  C   UNL     1       3.902   4.461  18.247  0.00  0.00    +0.000 C 
ATOM      5  C   UNL     1       4.855   3.606  19.098  0.00  0.00    +0.000 C 
ATOM      6  C   UNL     1       4.213   2.331  19.632  0.00  0.00    +0.000 C 
ATOM      7  C   UNL     1       3.619   1.483  18.518  0.00  0.00    +0.000 C 
ATOM      8  C   UNL     1       2.660   2.256  17.620  0.00  0.00    +0.000 C 
ATOM      9  C   UNL     1       3.197   3.616  17.167  0.00  0.00    +0.000 C 
ENDBRANCH   1   4
BRANCH   1  10
ATOM     10  C   UNL     1       2.614   4.967  20.408  0.00  0.00    +0.000 C 
BRANCH  10  12
ATOM     11  C   UNL     1       0.994   3.024  20.695  0.00  0.00    +0.000 C 
ATOM     12  C   UNL     1       1.153   4.530  20.581  0.00  0.00    +0.000 C 
ENDBRANCH  10  12
ENDBRANCH   1  10
TORSDOF 3
ENDMDL
MODEL 8
REMARK VINA RESULT:      -5.0      1.226      1.341
REMARK  Name = 
REMARK  4 active torsions:
REMARK  status: ('A' for Active; 'I' for Inactive)
REMARK    1  A    between atoms: C_1  and  C_2
REMARK    2  A    between atoms: C_2  and  C_3
REMARK    3  A    between atoms: C_3  and  N_4
REMARK    4  A    between atoms: N_4  and  C_7
REMARK                            x       y       z     vdW  Elec       q    Type
REMARK                         _______ _______ _______ _____ _____    ______ ____
ROOT
ATOM      1  N   UNL     1       5.623   4.325  18.103  0.00  0.00    +0.000 N 
ATOM      2  C   UNL     1       6.665   5.071  18.650  0.00  0.00    +0.000 C 
ATOM      3  O   UNL     1       6.779   5.405  19.824  0.00  0.00    +0.000 OA
ENDROOT
BRANCH   1   4
ATOM      4  C   UNL     1       4.464   4.065  18.992  0.00  0.00    +0.000 C 
ATOM      5  C   UNL     1       3.146   4.648  18.457  0.00  0.00    +0.000 C 
ATOM      6  C   UNL     1       2.453   3.748  17.441  0.00  0.00    +0.000 C 
ATOM      7  C   UNL     1       2.211   2.350  17.991  0.00  0.00    +0.000 C 
ATOM      8  C   UNL     1       3.470   1.697  18.547  0.00  0.00    +0.000 C 
ATOM      9  C   UNL     1       4.286   2.608  19.467  0.00  0.00    +0.000 C 
ENDBRANCH   1   4
BRANCH   1  10
ATOM     10  C   UNL     1       5.493   4.241  16.648  0.00  0.00    +0.000 C 
BRANCH  10  12
ATOM     11  C   UNL     1       6.615   4.539  14.382  0.00  0.00    +0.000 C 
ATOM     12  C   UNL     1       6.527   5.018  15.821  0.00  0.00    +0.000 C 
ENDBRANCH  10  12
ENDBRANCH   1  10
TORSDOF 3
ENDMDL
MODEL 9
REMARK VINA RESULT:      -5.0      2.302      3.508
REMARK  Name = 
REMARK  4 active torsions:
REMARK  status: ('A' for Active; 'I' for Inactive)
REMARK    1  A    between atoms: C_1  and  C_2
REMARK    2  A    between atoms: C_2  and  C_3
REMARK    3  A    between atoms: C_3  and  N_4
REMARK    4  A    between atoms: N_4  and  C_7
REMARK                            x       y       z     vdW  Elec       q    Type
REMARK                         _______ _______ _______ _____ _____    ______ ____
ROOT
ATOM      1  N   UNL     1       3.555   4.579  18.429  0.00  0.00    +0.000 N 
ATOM      2  C   UNL     1       4.471   4.637  17.381  0.00  0.00    +0.000 C 
ATOM      3  O   UNL     1       4.660   3.771  16.535  0.00  0.00    +0.000 OA
ENDROOT
BRANCH   1   4
ATOM      4  C   UNL     1       2.875   3.276  18.637  0.00  0.00    +0.000 C 
ATOM      5  C   UNL     1       3.453   2.471  19.811  0.00  0.00    +0.000 C 
ATOM      6  C   UNL     1       2.885   2.879  21.165  0.00  0.00    +0.000 C 
ATOM      7  C   UNL     1       1.365   2.806  21.189  0.00  0.00    +0.000 C 
ATOM      8  C   UNL     1       0.708   3.579  20.052  0.00  0.00    +0.000 C 
ATOM      9  C   UNL     1       1.334   3.315  18.681  0.00  0.00    +0.000 C 
ENDBRANCH   1   4
BRANCH   1  10
ATOM     10  C   UNL     1       3.638   5.567  19.505  0.00  0.00    +0.000 C 
BRANCH  10  12
ATOM     11  C   UNL     1       2.560   7.524  18.284  0.00  0.00    +0.000 C 
ATOM     12  C   UNL     1       2.552   6.651  19.527  0.00  0.00    +0.000 C 
ENDBRANCH  10  12
ENDBRANCH   1  10
TORSDOF 3
ENDMDL
