MODEL 1
REMARK VINA RESULT:      -8.1      0.000      0.000
REMARK  Name = 
REMARK  6 active torsions:
REMARK  status: ('A' for Active; 'I' for Inactive)
REMARK    1  A    between atoms: C_1  and  O_2
REMARK    2  A    between atoms: O_2  and  C_3
REMARK    3  A    between atoms: C_5  and  C_6
REMARK    4  A    between atoms: N_10  and  C_11
REMARK    5  A    between atoms: N_16  and  C_17
REMARK    6  A    between atoms: C_27  and  O_28
REMARK                            x       y       z     vdW  Elec       q    Type
REMARK                         _______ _______ _______ _____ _____    ______ ____
ROOT
ATOM      1  C   UNL     1       5.036   3.921  18.909  0.00  0.00    +0.000 C 
ATOM      2  N   UNL     1       4.752   2.492  18.910  0.00  0.00    +0.000 N 
ATOM      3  C   UNL     1       3.517   1.904  18.938  0.00  0.00    +0.000 C 
ATOM      4  O   UNL     1       3.432   0.688  18.783  0.00  0.00    +0.000 OA
ATOM      5  N   UNL     1       2.426   2.745  19.168  0.00  0.00    +0.000 N 
ATOM      6  C   UNL     1       1.095   2.164  19.230  0.00  0.00    +0.000 C 
ATOM      7  C   UNL     1       2.596   4.101  19.333  0.00  0.00    +0.000 C 
ATOM      8  C   UNL     1       3.802   4.651  19.218  0.00  0.00    +0.000 C 
ATOM      9  C   UNL     1       3.664   6.088  19.433  0.00  0.00    +0.000 C 
ATOM     10  O   UNL     1       4.620   6.844  19.420  0.00  0.00    +0.000 OA
ATOM     11  N   UNL     1       2.305   6.336  19.657  0.00  0.00    +0.000 N 
ATOM     12  C   UNL     1       1.539   5.106  19.625  0.00  0.00    +0.000 C 
ATOM     13  H   UNL     1       5.506   1.857  18.689  0.00  0.00    +0.000 HD
ENDROOT
BRANCH  11  14
ATOM     14  C   UNL     1       1.710   7.605  19.890  0.00  0.00    +0.000 A 
ATOM     15  C   UNL     1       1.648   8.582  18.887  0.00  0.00    +0.000 A 
ATOM     16  C   UNL     1       1.059   9.830  19.117  0.00  0.00    +0.000 A 
ATOM     17  C   UNL     1       0.527  10.128  20.365  0.00  0.00    +0.000 A 
ATOM     18  C   UNL     1       0.583   9.172  21.374  0.00  0.00    +0.000 A 
ATOM     19 CL   UNL     1      -0.060   9.538  22.929  0.00  0.00    +0.000 Cl
ATOM     20  C   UNL     1       1.161   7.920  21.143  0.00  0.00    +0.000 A 
ENDBRANCH  11  14
BRANCH   1  23
ATOM     21  C   UNL     1       7.111   5.820  16.291  0.00  0.00    +0.000 A 
ATOM     22  C   UNL     1       6.524   5.433  17.503  0.00  0.00    +0.000 A 
ATOM     23  C   UNL     1       5.665   4.323  17.590  0.00  0.00    +0.000 A 
ATOM     24  C   UNL     1       5.407   3.588  16.428  0.00  0.00    +0.000 A 
ATOM     25  C   UNL     1       5.978   3.967  15.212  0.00  0.00    +0.000 A 
ATOM     26  C   UNL     1       6.820   5.081  15.141  0.00  0.00    +0.000 A 
BRANCH  21  28
ATOM     27  C   UNL     1       7.696   7.780  17.529  0.00  0.00    +0.000 C 
ATOM     28  O   UNL     1       7.917   6.917  16.425  0.00  0.00    +0.000 OA
ENDBRANCH  21  28
BRANCH  26  29
ATOM     29  O   UNL     1       7.341   5.419  13.922  0.00  0.00    +0.000 OA
ATOM     30  H   UNL     1       7.221   6.371  13.780  0.00  0.00    +0.000 HD
ENDBRANCH  26  29
ENDBRANCH   1  23
TORSDOF 4
ENDMDL
MODEL 2
REMARK VINA RESULT:      -8.0      1.399      1.738
REMARK  Name = 
REMARK  6 active torsions:
REMARK  status: ('A' for Active; 'I' for Inactive)
REMARK    1  A    between atoms: C_1  and  O_2
REMARK    2  A    between atoms: O_2  and  C_3
REMARK    3  A    between atoms: C_5  and  C_6
REMARK    4  A    between atoms: N_10  and  C_11
REMARK    5  A    between atoms: N_16  and  C_17
REMARK    6  A    between atoms: C_27  and  O_28
REMARK                            x       y       z     vdW  Elec       q    Type
REMARK                         _______ _______ _______ _____ _____    ______ ____
ROOT
ATOM      1  C   UNL     1       5.612   4.667  18.492  0.00  0.00    +0.000 C 
ATOM      2  N   UNL     1       5.695   3.371  19.154  0.00  0.00    +0.000 N 
ATOM      3  C   UNL     1       4.700   2.745  19.852  0.00  0.00    +0.000 C 
ATOM      4  O   UNL     1       4.873   1.587  20.227  0.00  0.00    +0.000 OA
ATOM      5  N   UNL     1       3.548   3.491  20.111  0.00  0.00    +0.000 N 
ATOM      6  C   UNL     1       2.471   2.876  20.870  0.00  0.00    +0.000 C 
ATOM      7  C   UNL     1       3.423   4.786  19.659  0.00  0.00    +0.000 C 
ATOM      8  C   UNL     1       4.376   5.336  18.912  0.00  0.00    +0.000 C 
ATOM      9  C   UNL     1       3.960   6.696  18.582  0.00  0.00    +0.000 C 
ATOM     10  O   UNL     1       4.660   7.452  17.932  0.00  0.00    +0.000 OA
ATOM     11  N   UNL     1       2.701   6.887  19.163  0.00  0.00    +0.000 N 
ATOM     12  C   UNL     1       2.281   5.708  19.893  0.00  0.00    +0.000 C 
ATOM     13  H   UNL     1       6.487   2.781  18.944  0.00  0.00    +0.000 HD
ENDROOT
BRANCH  11  14
ATOM     14  C   UNL     1       1.908   8.063  19.079  0.00  0.00    +0.000 A 
ATOM     15  C   UNL     1       1.684   8.710  17.856  0.00  0.00    +0.000 A 
ATOM     16  C   UNL     1       0.898   9.866  17.774  0.00  0.00    +0.000 A 
ATOM     17  C   UNL     1       0.328  10.401  18.921  0.00  0.00    +0.000 A 
ATOM     18  C   UNL     1       0.541   9.773  20.144  0.00  0.00    +0.000 A 
ATOM     19 CL   UNL     1      -0.149  10.439  21.574  0.00  0.00    +0.000 Cl
ATOM     20  C   UNL     1       1.316   8.613  20.227  0.00  0.00    +0.000 A 
ENDBRANCH  11  14
BRANCH   1  23
ATOM     21  C   UNL     1       6.911   4.907  14.884  0.00  0.00    +0.000 A 
ATOM     22  C   UNL     1       6.792   5.058  16.271  0.00  0.00    +0.000 A 
ATOM     23  C   UNL     1       5.726   4.490  16.991  0.00  0.00    +0.000 A 
ATOM     24  C   UNL     1       4.771   3.746  16.290  0.00  0.00    +0.000 A 
ATOM     25  C   UNL     1       4.871   3.594  14.906  0.00  0.00    +0.000 A 
ATOM     26  C   UNL     1       5.931   4.177  14.205  0.00  0.00    +0.000 A 
BRANCH  21  28
ATOM     27  C   UNL     1       8.209   5.526  12.975  0.00  0.00    +0.000 C 
ATOM     28  O   UNL     1       8.020   5.529  14.380  0.00  0.00    +0.000 OA
ENDBRANCH  21  28
BRANCH  26  29
ATOM     29  O   UNL     1       5.974   4.011  12.847  0.00  0.00    +0.000 OA
ATOM     30  H   UNL     1       5.071   4.046  12.495  0.00  0.00    +0.000 HD
ENDBRANCH  26  29
ENDBRANCH   1  23
TORSDOF 4
ENDMDL
MODEL 3
REMARK VINA RESULT:      -7.9      1.182      2.065
REMARK  Name = 
REMARK  6 active torsions:
REMARK  status: ('A' for Active; 'I' for Inactive)
REMARK    1  A    between atoms: C_1  and  O_2
REMARK    2  A    between atoms: O_2  and  C_3
REMARK    3  A    between atoms: C_5  and  C_6
REMARK    4  A    between atoms: N_10  and  C_11
REMARK    5  A    between atoms: N_16  and  C_17
REMARK    6  A    between atoms: C_27  and  O_28
REMARK                            x       y       z     vdW  Elec       q    Type
REMARK                         _______ _______ _______ _____ _____    ______ ____
ROOT
ATOM      1  C   UNL     1       5.182   4.090  18.247  0.00  0.00    +0.000 C 
ATOM      2  N   UNL     1       4.872   2.669  18.339  0.00  0.00    +0.000 N 
ATOM      3  C   UNL     1       3.626   2.107  18.406  0.00  0.00    +0.000 C 
ATOM      4  O   UNL     1       3.519   0.886  18.329  0.00  0.00    +0.000 OA
ATOM      5  N   UNL     1       2.552   2.981  18.583  0.00  0.00    +0.000 N 
ATOM      6  C   UNL     1       1.210   2.430  18.683  0.00  0.00    +0.000 C 
ATOM      7  C   UNL     1       2.747   4.342  18.661  0.00  0.00    +0.000 C 
ATOM      8  C   UNL     1       3.962   4.861  18.509  0.00  0.00    +0.000 C 
ATOM      9  C   UNL     1       3.851   6.311  18.632  0.00  0.00    +0.000 C 
ATOM     10  O   UNL     1       4.820   7.047  18.570  0.00  0.00    +0.000 OA
ATOM     11  N   UNL     1       2.498   6.598  18.841  0.00  0.00    +0.000 N 
ATOM     12  C   UNL     1       1.709   5.382  18.889  0.00  0.00    +0.000 C 
ATOM     13  H   UNL     1       5.613   2.008  18.158  0.00  0.00    +0.000 HD
ENDROOT
BRANCH  11  14
ATOM     14  C   UNL     1       1.927   7.890  18.994  0.00  0.00    +0.000 A 
ATOM     15  C   UNL     1       1.819   8.776  17.913  0.00  0.00    +0.000 A 
ATOM     16  C   UNL     1       1.253  10.048  18.064  0.00  0.00    +0.000 A 
ATOM     17  C   UNL     1       0.791  10.459  19.307  0.00  0.00    +0.000 A 
ATOM     18  C   UNL     1       0.893   9.594  20.391  0.00  0.00    +0.000 A 
ATOM     19 CL   UNL     1       0.338  10.102  21.940  0.00  0.00    +0.000 Cl
ATOM     20  C   UNL     1       1.448   8.320  20.241  0.00  0.00    +0.000 A 
ENDBRANCH  11  14
BRANCH   1  23
ATOM     21  C   UNL     1       5.735   4.341  14.452  0.00  0.00    +0.000 A 
ATOM     22  C   UNL     1       5.162   4.071  15.702  0.00  0.00    +0.000 A 
ATOM     23  C   UNL     1       5.816   4.395  16.904  0.00  0.00    +0.000 A 
ATOM     24  C   UNL     1       7.067   5.016  16.834  0.00  0.00    +0.000 A 
ATOM     25  C   UNL     1       7.655   5.285  15.597  0.00  0.00    +0.000 A 
ATOM     26  C   UNL     1       6.995   4.943  14.411  0.00  0.00    +0.000 A 
BRANCH  21  28
ATOM     27  C   UNL     1       5.517   3.197  12.365  0.00  0.00    +0.000 C 
ATOM     28  O   UNL     1       4.934   3.956  13.412  0.00  0.00    +0.000 OA
ENDBRANCH  21  28
BRANCH  26  29
ATOM     29  O   UNL     1       7.621   5.215  13.225  0.00  0.00    +0.000 OA
ATOM     30  H   UNL     1       7.157   4.752  12.510  0.00  0.00    +0.000 HD
ENDBRANCH  26  29
ENDBRANCH   1  23
TORSDOF 4
ENDMDL
MODEL 4
REMARK VINA RESULT:      -7.6      0.982      1.335
REMARK  Name = 
REMARK  6 active torsions:
REMARK  status: ('A' for Active; 'I' for Inactive)
REMARK    1  A    between atoms: C_1  and  O_2
REMARK    2  A    between atoms: O_2  and  C_3
REMARK    3  A    between atoms: C_5  and  C_6
REMARK    4  A    between atoms: N_10  and  C_11
REMARK    5  A    between atoms: N_16  and  C_17
REMARK    6  A    between atoms: C_27  and  O_28
REMARK                            x       y       z     vdW  Elec       q    Type
REMARK                         _______ _______ _______ _____ _____    ______ ____
ROOT
ATOM      1  C   UNL     1       4.974   3.867  18.879  0.00  0.00    +0.000 C 
ATOM      2  N   UNL     1       4.681   2.440  18.841  0.00  0.00    +0.000 N 
ATOM      3  C   UNL     1       3.443   1.859  18.875  0.00  0.00    +0.000 C 
ATOM      4  O   UNL     1       3.348   0.648  18.685  0.00  0.00    +0.000 OA
ATOM      5  N   UNL     1       2.363   2.698  19.151  0.00  0.00    +0.000 N 
ATOM      6  C   UNL     1       1.029   2.123  19.221  0.00  0.00    +0.000 C 
ATOM      7  C   UNL     1       2.544   4.048  19.355  0.00  0.00    +0.000 C 
ATOM      8  C   UNL     1       3.751   4.594  19.233  0.00  0.00    +0.000 C 
ATOM      9  C   UNL     1       3.626   6.025  19.494  0.00  0.00    +0.000 C 
ATOM     10  O   UNL     1       4.586   6.775  19.487  0.00  0.00    +0.000 OA
ATOM     11  N   UNL     1       2.273   6.274  19.751  0.00  0.00    +0.000 N 
ATOM     12  C   UNL     1       1.499   5.049  19.696  0.00  0.00    +0.000 C 
ATOM     13  H   UNL     1       5.427   1.808  18.587  0.00  0.00    +0.000 HD
ENDROOT
BRANCH  11  14
ATOM     14  C   UNL     1       1.691   7.538  20.035  0.00  0.00    +0.000 A 
ATOM     15  C   UNL     1       1.055   7.795  21.257  0.00  0.00    +0.000 A 
ATOM     16  C   UNL     1       0.485   9.043  21.537  0.00  0.00    +0.000 A 
ATOM     17  C   UNL     1       0.534  10.057  20.590  0.00  0.00    +0.000 A 
ATOM     18  C   UNL     1       1.159   9.819  19.370  0.00  0.00    +0.000 A 
ATOM     19 CL   UNL     1       1.211  11.065  18.184  0.00  0.00    +0.000 Cl
ATOM     20  C   UNL     1       1.738   8.577  19.093  0.00  0.00    +0.000 A 
ENDBRANCH  11  14
BRANCH   1  23
ATOM     21  C   UNL     1       7.028   5.821  16.285  0.00  0.00    +0.000 A 
ATOM     22  C   UNL     1       6.462   5.399  17.495  0.00  0.00    +0.000 A 
ATOM     23  C   UNL     1       5.581   4.305  17.561  0.00  0.00    +0.000 A 
ATOM     24  C   UNL     1       5.280   3.620  16.379  0.00  0.00    +0.000 A 
ATOM     25  C   UNL     1       5.831   4.033  15.164  0.00  0.00    +0.000 A 
ATOM     26  C   UNL     1       6.695   5.132  15.115  0.00  0.00    +0.000 A 
BRANCH  21  28
ATOM     27  C   UNL     1       7.654   7.745  17.556  0.00  0.00    +0.000 C 
ATOM     28  O   UNL     1       7.861   6.895  16.440  0.00  0.00    +0.000 OA
ENDBRANCH  21  28
BRANCH  26  29
ATOM     29  O   UNL     1       7.194   5.505  13.898  0.00  0.00    +0.000 OA
ATOM     30  H   UNL     1       6.915   4.859  13.230  0.00  0.00    +0.000 HD
ENDBRANCH  26  29
ENDBRANCH   1  23
TORSDOF 4
ENDMDL
MODEL 5
REMARK VINA RESULT:      -7.4      4.480      8.333
REMARK  Name = 
REMARK  6 active torsions:
REMARK  status: ('A' for Active; 'I' for Inactive)
REMARK    1  A    between atoms: C_1  and  O_2
REMARK    2  A    between atoms: O_2  and  C_3
REMARK    3  A    between atoms: C_5  and  C_6
REMARK    4  A    between atoms: N_10  and  C_11
REMARK    5  A    between atoms: N_16  and  C_17
REMARK    6  A    between atoms: C_27  and  O_28
REMARK                            x       y       z     vdW  Elec       q    Type
REMARK                         _______ _______ _______ _____ _____    ______ ____
ROOT
ATOM      1  C   UNL     1       0.283  11.723  19.771  0.00  0.00    +0.000 C 
ATOM      2  N   UNL     1      -0.501  12.117  20.934  0.00  0.00    +0.000 N 
ATOM      3  C   UNL     1      -0.594  11.446  22.122  0.00  0.00    +0.000 C 
ATOM      4  O   UNL     1      -1.176  11.980  23.064  0.00  0.00    +0.000 OA
ATOM      5  N   UNL     1      -0.028  10.171  22.169  0.00  0.00    +0.000 N 
ATOM      6  C   UNL     1      -0.122   9.408  23.404  0.00  0.00    +0.000 C 
ATOM      7  C   UNL     1       0.610   9.635  21.073  0.00  0.00    +0.000 C 
ATOM      8  C   UNL     1       0.755  10.348  19.959  0.00  0.00    +0.000 C 
ATOM      9  C   UNL     1       1.472   9.526  18.989  0.00  0.00    +0.000 C 
ATOM     10  O   UNL     1       1.716   9.914  17.860  0.00  0.00    +0.000 OA
ATOM     11  N   UNL     1       1.752   8.307  19.617  0.00  0.00    +0.000 N 
ATOM     12  C   UNL     1       1.218   8.282  20.965  0.00  0.00    +0.000 C 
ATOM     13  H   UNL     1      -0.876  13.054  20.959  0.00  0.00    +0.000 HD
ENDROOT
BRANCH  11  14
ATOM     14  C   UNL     1       2.457   7.212  19.050  0.00  0.00    +0.000 A 
ATOM     15  C   UNL     1       2.344   5.917  19.573  0.00  0.00    +0.000 A 
ATOM     16  C   UNL     1       3.037   4.838  19.011  0.00  0.00    +0.000 A 
ATOM     17  C   UNL     1       3.865   5.040  17.916  0.00  0.00    +0.000 A 
ATOM     18  C   UNL     1       3.992   6.319  17.385  0.00  0.00    +0.000 A 
ATOM     19 CL   UNL     1       5.029   6.582  16.036  0.00  0.00    +0.000 Cl
ATOM     20  C   UNL     1       3.292   7.396  17.938  0.00  0.00    +0.000 A 
ENDBRANCH  11  14
BRANCH   1  23
ATOM     21  C   UNL     1       3.264  14.067  20.396  0.00  0.00    +0.000 A 
ATOM     22  C   UNL     1       2.230  13.142  20.592  0.00  0.00    +0.000 A 
ATOM     23  C   UNL     1       1.400  12.721  19.538  0.00  0.00    +0.000 A 
ATOM     24  C   UNL     1       1.633  13.240  18.260  0.00  0.00    +0.000 A 
ATOM     25  C   UNL     1       2.654  14.169  18.050  0.00  0.00    +0.000 A 
ATOM     26  C   UNL     1       3.462  14.586  19.113  0.00  0.00    +0.000 A 
BRANCH  21  28
ATOM     27  C   UNL     1       3.532  15.430  22.340  0.00  0.00    +0.000 C 
ATOM     28  O   UNL     1       3.955  14.335  21.546  0.00  0.00    +0.000 OA
ENDBRANCH  21  28
BRANCH  26  29
ATOM     29  O   UNL     1       4.438  15.509  18.857  0.00  0.00    +0.000 OA
ATOM     30  H   UNL     1       4.034  16.389  18.800  0.00  0.00    +0.000 HD
ENDBRANCH  26  29
ENDBRANCH   1  23
TORSDOF 4
ENDMDL
MODEL 6
REMARK VINA RESULT:      -7.3      5.249      9.784
REMARK  Name = 
REMARK  6 active torsions:
REMARK  status: ('A' for Active; 'I' for Inactive)
REMARK    1  A    between atoms: C_1  and  O_2
REMARK    2  A    between atoms: O_2  and  C_3
REMARK    3  A    between atoms: C_5  and  C_6
REMARK    4  A    between atoms: N_10  and  C_11
REMARK    5  A    between atoms: N_16  and  C_17
REMARK    6  A    between atoms: C_27  and  O_28
REMARK                            x       y       z     vdW  Elec       q    Type
REMARK                         _______ _______ _______ _____ _____    ______ ____
ROOT
ATOM      1  C   UNL     1      -1.078  12.472  19.858  0.00  0.00    +0.000 C 
ATOM      2  N   UNL     1      -0.743  13.883  19.716  0.00  0.00    +0.000 N 
ATOM      3  C   UNL     1       0.348  14.404  19.078  0.00  0.00    +0.000 C 
ATOM      4  O   UNL     1       0.417  15.620  18.912  0.00  0.00    +0.000 OA
ATOM      5  N   UNL     1       1.333  13.499  18.677  0.00  0.00    +0.000 N 
ATOM      6  C   UNL     1       2.524  14.008  18.015  0.00  0.00    +0.000 C 
ATOM      7  C   UNL     1       1.189  12.148  18.897  0.00  0.00    +0.000 C 
ATOM      8  C   UNL     1       0.077  11.666  19.446  0.00  0.00    +0.000 C 
ATOM      9  C   UNL     1       0.213  10.216  19.541  0.00  0.00    +0.000 C 
ATOM     10  O   UNL     1      -0.647   9.512  20.040  0.00  0.00    +0.000 OA
ATOM     11  N   UNL     1       1.459   9.889  18.994  0.00  0.00    +0.000 N 
ATOM     12  C   UNL     1       2.167  11.078  18.564  0.00  0.00    +0.000 C 
ATOM     13  H   UNL     1      -1.454  14.564  19.942  0.00  0.00    +0.000 HD
ENDROOT
BRANCH  11  14
ATOM     14  C   UNL     1       2.000   8.582  18.860  0.00  0.00    +0.000 A 
ATOM     15  C   UNL     1       2.720   8.200  17.720  0.00  0.00    +0.000 A 
ATOM     16  C   UNL     1       3.256   6.914  17.590  0.00  0.00    +0.000 A 
ATOM     17  C   UNL     1       3.072   5.980  18.601  0.00  0.00    +0.000 A 
ATOM     18  C   UNL     1       2.357   6.340  19.739  0.00  0.00    +0.000 A 
ATOM     19 CL   UNL     1       2.110   5.184  20.990  0.00  0.00    +0.000 Cl
ATOM     20  C   UNL     1       1.831   7.628  19.875  0.00  0.00    +0.000 A 
ENDBRANCH  11  14
BRANCH   1  23
ATOM     21  C   UNL     1      -3.449  11.470  17.005  0.00  0.00    +0.000 A 
ATOM     22  C   UNL     1      -2.290  11.758  17.737  0.00  0.00    +0.000 A 
ATOM     23  C   UNL     1      -2.343  12.159  19.083  0.00  0.00    +0.000 A 
ATOM     24  C   UNL     1      -3.595  12.258  19.700  0.00  0.00    +0.000 A 
ATOM     25  C   UNL     1      -4.759  11.982  18.981  0.00  0.00    +0.000 A 
ATOM     26  C   UNL     1      -4.688  11.596  17.639  0.00  0.00    +0.000 A 
BRANCH  21  28
ATOM     27  C   UNL     1      -2.992   9.711  15.453  0.00  0.00    +0.000 C 
ATOM     28  O   UNL     1      -3.178  11.091  15.718  0.00  0.00    +0.000 OA
ENDBRANCH  21  28
BRANCH  26  29
ATOM     29  O   UNL     1      -5.860  11.352  16.976  0.00  0.00    +0.000 OA
ATOM     30  H   UNL     1      -6.432  12.132  17.048  0.00  0.00    +0.000 HD
ENDBRANCH  26  29
ENDBRANCH   1  23
TORSDOF 4
ENDMDL
MODEL 7
REMARK VINA RESULT:      -7.3      4.702      8.244
REMARK  Name = 
REMARK  6 active torsions:
REMARK  status: ('A' for Active; 'I' for Inactive)
REMARK    1  A    between atoms: C_1  and  O_2
REMARK    2  A    between atoms: O_2  and  C_3
REMARK    3  A    between atoms: C_5  and  C_6
REMARK    4  A    between atoms: N_10  and  C_11
REMARK    5  A    between atoms: N_16  and  C_17
REMARK    6  A    between atoms: C_27  and  O_28
REMARK                            x       y       z     vdW  Elec       q    Type
REMARK                         _______ _______ _______ _____ _____    ______ ____
ROOT
ATOM      1  C   UNL     1       1.028  10.812  17.975  0.00  0.00    +0.000 C 
ATOM      2  N   UNL     1       2.215  11.649  17.848  0.00  0.00    +0.000 N 
ATOM      3  C   UNL     1       2.406  12.884  18.403  0.00  0.00    +0.000 C 
ATOM      4  O   UNL     1       3.518  13.403  18.332  0.00  0.00    +0.000 OA
ATOM      5  N   UNL     1       1.296  13.483  19.001  0.00  0.00    +0.000 N 
ATOM      6  C   UNL     1       1.444  14.807  19.585  0.00  0.00    +0.000 C 
ATOM      7  C   UNL     1       0.078  12.842  19.044  0.00  0.00    +0.000 C 
ATOM      8  C   UNL     1      -0.053  11.606  18.568  0.00  0.00    +0.000 C 
ATOM      9  C   UNL     1      -1.439  11.194  18.761  0.00  0.00    +0.000 C 
ATOM     10  O   UNL     1      -1.857  10.113  18.385  0.00  0.00    +0.000 OA
ATOM     11  N   UNL     1      -2.094  12.256  19.396  0.00  0.00    +0.000 N 
ATOM     12  C   UNL     1      -1.192  13.371  19.607  0.00  0.00    +0.000 C 
ATOM     13  H   UNL     1       3.054  11.230  17.474  0.00  0.00    +0.000 HD
ENDROOT
BRANCH  11  14
ATOM     14  C   UNL     1      -3.456  12.283  19.798  0.00  0.00    +0.000 A 
ATOM     15  C   UNL     1      -3.832  12.667  21.092  0.00  0.00    +0.000 A 
ATOM     16  C   UNL     1      -5.175  12.696  21.485  0.00  0.00    +0.000 A 
ATOM     17  C   UNL     1      -6.170  12.333  20.588  0.00  0.00    +0.000 A 
ATOM     18  C   UNL     1      -5.815  11.946  19.299  0.00  0.00    +0.000 A 
ATOM     19 CL   UNL     1      -7.041  11.478  18.184  0.00  0.00    +0.000 Cl
ATOM     20  C   UNL     1      -4.475  11.926  18.901  0.00  0.00    +0.000 A 
ENDBRANCH  11  14
BRANCH   1  23
ATOM     21  C   UNL     1       2.294   7.291  18.849  0.00  0.00    +0.000 A 
ATOM     22  C   UNL     1       1.983   8.459  18.141  0.00  0.00    +0.000 A 
ATOM     23  C   UNL     1       1.361   9.558  18.759  0.00  0.00    +0.000 A 
ATOM     24  C   UNL     1       1.060   9.473  20.122  0.00  0.00    +0.000 A 
ATOM     25  C   UNL     1       1.355   8.313  20.840  0.00  0.00    +0.000 A 
ATOM     26  C   UNL     1       1.963   7.224  20.206  0.00  0.00    +0.000 A 
BRANCH  21  28
ATOM     27  C   UNL     1       4.200   6.627  17.570  0.00  0.00    +0.000 C 
ATOM     28  O   UNL     1       2.902   6.347  18.067  0.00  0.00    +0.000 OA
ENDBRANCH  21  28
BRANCH  26  29
ATOM     29  O   UNL     1       2.218   6.105  20.951  0.00  0.00    +0.000 OA
ATOM     30  H   UNL     1       1.376   5.710  21.227  0.00  0.00    +0.000 HD
ENDBRANCH  26  29
ENDBRANCH   1  23
TORSDOF 4
ENDMDL
MODEL 8
REMARK VINA RESULT:      -7.3      4.380      8.249
REMARK  Name = 
REMARK  6 active torsions:
REMARK  status: ('A' for Active; 'I' for Inactive)
REMARK    1  A    between atoms: C_1  and  O_2
REMARK    2  A    between atoms: O_2  and  C_3
REMARK    3  A    between atoms: C_5  and  C_6
REMARK    4  A    between atoms: N_10  and  C_11
REMARK    5  A    between atoms: N_16  and  C_17
REMARK    6  A    between atoms: C_27  and  O_28
REMARK                            x       y       z     vdW  Elec       q    Type
REMARK                         _______ _______ _______ _____ _____    ______ ____
ROOT
ATOM      1  C   UNL     1       0.237  11.724  19.781  0.00  0.00    +0.000 C 
ATOM      2  N   UNL     1      -0.554  12.133  20.934  0.00  0.00    +0.000 N 
ATOM      3  C   UNL     1      -0.655  11.478  22.131  0.00  0.00    +0.000 C 
ATOM      4  O   UNL     1      -1.243  12.024  23.062  0.00  0.00    +0.000 OA
ATOM      5  N   UNL     1      -0.089  10.204  22.198  0.00  0.00    +0.000 N 
ATOM      6  C   UNL     1      -0.190   9.458  23.442  0.00  0.00    +0.000 C 
ATOM      7  C   UNL     1       0.556   9.653  21.114  0.00  0.00    +0.000 C 
ATOM      8  C   UNL     1       0.707  10.351  19.991  0.00  0.00    +0.000 C 
ATOM      9  C   UNL     1       1.430   9.516  19.037  0.00  0.00    +0.000 C 
ATOM     10  O   UNL     1       1.681   9.889  17.904  0.00  0.00    +0.000 OA
ATOM     11  N   UNL     1       1.706   8.306  19.683  0.00  0.00    +0.000 N 
ATOM     12  C   UNL     1       1.165   8.299  21.027  0.00  0.00    +0.000 C 
ATOM     13  H   UNL     1      -0.930  13.071  20.944  0.00  0.00    +0.000 HD
ENDROOT
BRANCH  11  14
ATOM     14  C   UNL     1       2.415   7.204  19.134  0.00  0.00    +0.000 A 
ATOM     15  C   UNL     1       3.212   7.341  17.990  0.00  0.00    +0.000 A 
ATOM     16  C   UNL     1       3.913   6.255  17.452  0.00  0.00    +0.000 A 
ATOM     17  C   UNL     1       3.821   5.005  18.050  0.00  0.00    +0.000 A 
ATOM     18  C   UNL     1       3.033   4.850  19.185  0.00  0.00    +0.000 A 
ATOM     19 CL   UNL     1       2.900   3.300  19.923  0.00  0.00    +0.000 Cl
ATOM     20  C   UNL     1       2.340   5.935  19.730  0.00  0.00    +0.000 A 
ENDBRANCH  11  14
BRANCH   1  23
ATOM     21  C   UNL     1       3.217  14.071  20.392  0.00  0.00    +0.000 A 
ATOM     22  C   UNL     1       2.182  13.149  20.594  0.00  0.00    +0.000 A 
ATOM     23  C   UNL     1       1.355  12.719  19.542  0.00  0.00    +0.000 A 
ATOM     24  C   UNL     1       1.592  13.225  18.259  0.00  0.00    +0.000 A 
ATOM     25  C   UNL     1       2.614  14.151  18.043  0.00  0.00    +0.000 A 
ATOM     26  C   UNL     1       3.419  14.578  19.105  0.00  0.00    +0.000 A 
BRANCH  21  28
ATOM     27  C   UNL     1       3.477  15.449  22.327  0.00  0.00    +0.000 C 
ATOM     28  O   UNL     1       3.906  14.350  21.540  0.00  0.00    +0.000 OA
ENDBRANCH  21  28
BRANCH  26  29
ATOM     29  O   UNL     1       4.397  15.497  18.842  0.00  0.00    +0.000 OA
ATOM     30  H   UNL     1       3.996  16.379  18.786  0.00  0.00    +0.000 HD
ENDBRANCH  26  29
ENDBRANCH   1  23
TORSDOF 4
ENDMDL
MODEL 9
REMARK VINA RESULT:      -7.1      1.270      2.228
REMARK  Name = 
REMARK  6 active torsions:
REMARK  status: ('A' for Active; 'I' for Inactive)
REMARK    1  A    between atoms: C_1  and  O_2
REMARK    2  A    between atoms: O_2  and  C_3
REMARK    3  A    between atoms: C_5  and  C_6
REMARK    4  A    between atoms: N_10  and  C_11
REMARK    5  A    between atoms: N_16  and  C_17
REMARK    6  A    between atoms: C_27  and  O_28
REMARK                            x       y       z     vdW  Elec       q    Type
REMARK                         _______ _______ _______ _____ _____    ______ ____
ROOT
ATOM      1  C   UNL     1       4.980   3.821  18.851  0.00  0.00    +0.000 C 
ATOM      2  N   UNL     1       4.638   2.408  18.749  0.00  0.00    +0.000 N 
ATOM      3  C   UNL     1       3.380   1.874  18.679  0.00  0.00    +0.000 C 
ATOM      4  O   UNL     1       3.254   0.674  18.445  0.00  0.00    +0.000 OA
ATOM      5  N   UNL     1       2.314   2.747  18.906  0.00  0.00    +0.000 N 
ATOM      6  C   UNL     1       0.959   2.223  18.865  0.00  0.00    +0.000 C 
ATOM      7  C   UNL     1       2.530   4.083  19.162  0.00  0.00    +0.000 C 
ATOM      8  C   UNL     1       3.762   4.584  19.142  0.00  0.00    +0.000 C 
ATOM      9  C   UNL     1       3.671   6.011  19.437  0.00  0.00    +0.000 C 
ATOM     10  O   UNL     1       4.657   6.724  19.519  0.00  0.00    +0.000 OA
ATOM     11  N   UNL     1       2.314   6.305  19.608  0.00  0.00    +0.000 N 
ATOM     12  C   UNL     1       1.502   5.114  19.462  0.00  0.00    +0.000 C 
ATOM     13  H   UNL     1       5.376   1.755  18.527  0.00  0.00    +0.000 HD
ENDROOT
BRANCH  11  14
ATOM     14  C   UNL     1       1.761   7.583  19.889  0.00  0.00    +0.000 A 
ATOM     15  C   UNL     1       1.121   7.853  21.107  0.00  0.00    +0.000 A 
ATOM     16  C   UNL     1       0.579   9.113  21.384  0.00  0.00    +0.000 A 
ATOM     17  C   UNL     1       0.661  10.128  20.440  0.00  0.00    +0.000 A 
ATOM     18  C   UNL     1       1.289   9.877  19.225  0.00  0.00    +0.000 A 
ATOM     19 CL   UNL     1       1.382  11.124  18.042  0.00  0.00    +0.000 Cl
ATOM     20  C   UNL     1       1.841   8.622  18.950  0.00  0.00    +0.000 A 
ENDBRANCH  11  14
BRANCH   1  23
ATOM     21  C   UNL     1       5.793   4.437  15.146  0.00  0.00    +0.000 A 
ATOM     22  C   UNL     1       5.145   4.031  16.320  0.00  0.00    +0.000 A 
ATOM     23  C   UNL     1       5.693   4.272  17.592  0.00  0.00    +0.000 A 
ATOM     24  C   UNL     1       6.916   4.948  17.673  0.00  0.00    +0.000 A 
ATOM     25  C   UNL     1       7.577   5.352  16.512  0.00  0.00    +0.000 A 
ATOM     26  C   UNL     1       7.023   5.092  15.254  0.00  0.00    +0.000 A 
BRANCH  21  28
ATOM     27  C   UNL     1       5.791   3.516  12.941  0.00  0.00    +0.000 C 
ATOM     28  O   UNL     1       5.089   4.114  14.018  0.00  0.00    +0.000 OA
ENDBRANCH  21  28
BRANCH  26  29
ATOM     29  O   UNL     1       7.719   5.496  14.148  0.00  0.00    +0.000 OA
ATOM     30  H   UNL     1       8.669   5.466  14.343  0.00  0.00    +0.000 HD
ENDBRANCH  26  29
ENDBRANCH   1  23
TORSDOF 4
ENDMDL
