MODEL 1
REMARK VINA RESULT:      -7.1      0.000      0.000
REMARK  Name = 
REMARK  5 active torsions:
REMARK  status: ('A' for Active; 'I' for Inactive)
REMARK    1  A    between atoms: C_1  and  O_2
REMARK    2  A    between atoms: O_2  and  C_3
REMARK    3  A    between atoms: C_6  and  N_7
REMARK    4  A    between atoms: C_11  and  N_12
REMARK    5  A    between atoms: C_13  and  C_15
REMARK                            x       y       z     vdW  Elec       q    Type
REMARK                         _______ _______ _______ _____ _____    ______ ____
ROOT
ATOM      1  N   UNL     1       5.125   4.972  18.419  0.00  0.00    +0.000 N 
ATOM      2  N   UNL     1       4.379   4.869  19.555  0.00  0.00    +0.000 NA
ATOM      3  C   UNL     1       3.405   4.039  19.209  0.00  0.00    +0.000 A 
ATOM      4  C   UNL     1       3.574   3.478  17.938  0.00  0.00    +0.000 A 
ATOM      5  C   UNL     1       4.754   4.006  17.458  0.00  0.00    +0.000 A 
ATOM      6  C   UNL     1       2.533   2.513  17.543  0.00  0.00    +0.000 C 
ATOM      7  S   UNL     1       1.135   2.788  18.754  0.00  0.00    +0.000 S 
ATOM      8  O   UNL     1       0.739   1.387  19.343  0.00  0.00    +0.000 OA
ATOM      9  C   UNL     1       2.220   3.651  19.996  0.00  0.00    +0.000 C 
ENDROOT
BRANCH   1  13
ATOM     10  C   UNL     1       8.040   8.010  18.036  0.00  0.00    +0.000 A 
ATOM     11  C   UNL     1       6.819   8.109  17.365  0.00  0.00    +0.000 A 
ATOM     12  C   UNL     1       5.856   7.102  17.485  0.00  0.00    +0.000 A 
ATOM     13  C   UNL     1       6.105   5.992  18.301  0.00  0.00    +0.000 A 
ATOM     14  C   UNL     1       7.348   5.869  18.937  0.00  0.00    +0.000 A 
ATOM     15  C   UNL     1       8.310   6.875  18.802  0.00  0.00    +0.000 A 
BRANCH  10  17
ATOM     16  C   UNL     1       8.958  10.034  18.851  0.00  0.00    +0.000 C 
ATOM     17  O   UNL     1       8.909   9.044  17.830  0.00  0.00    +0.000 OA
ENDBRANCH  10  17
ENDBRANCH   1  13
BRANCH   5  18
ATOM     18  N   UNL     1       5.487   3.685  16.308  0.00  0.00    +0.000 N 
ATOM     19  C   UNL     1       5.562   4.484  15.118  0.00  0.00    +0.000 C 
ATOM     20  O   UNL     1       4.848   5.462  14.979  0.00  0.00    +0.000 OA
ATOM     21  H   UNL     1       5.960   2.788  16.305  0.00  0.00    +0.000 HD
BRANCH  19  22
ATOM     22  C   UNL     1       6.515   4.001  14.043  0.00  0.00    +0.000 C 
ATOM     23  C   UNL     1       5.726   3.419  12.870  0.00  0.00    +0.000 C 
ATOM     24  C   UNL     1       6.708   3.417  11.713  0.00  0.00    +0.000 C 
ATOM     25  C   UNL     1       7.655   4.583  11.975  0.00  0.00    +0.000 C 
ATOM     26  C   UNL     1       7.335   5.101  13.376  0.00  0.00    +0.000 C 
ENDBRANCH  19  22
ENDBRANCH   5  18
TORSDOF 4
ENDMDL
MODEL 2
REMARK VINA RESULT:      -6.7      3.848      6.827
REMARK  Name = 
REMARK  5 active torsions:
REMARK  status: ('A' for Active; 'I' for Inactive)
REMARK    1  A    between atoms: C_1  and  O_2
REMARK    2  A    between atoms: O_2  and  C_3
REMARK    3  A    between atoms: C_6  and  N_7
REMARK    4  A    between atoms: C_11  and  N_12
REMARK    5  A    between atoms: C_13  and  C_15
REMARK                            x       y       z     vdW  Elec       q    Type
REMARK                         _______ _______ _______ _____ _____    ______ ____
ROOT
ATOM      1  N   UNL     1       3.414   6.872  17.551  0.00  0.00    +0.000 N 
ATOM      2  N   UNL     1       3.955   7.360  16.399  0.00  0.00    +0.000 NA
ATOM      3  C   UNL     1       4.843   6.434  16.061  0.00  0.00    +0.000 A 
ATOM      4  C   UNL     1       4.794   5.292  16.867  0.00  0.00    +0.000 A 
ATOM      5  C   UNL     1       3.788   5.529  17.780  0.00  0.00    +0.000 A 
ATOM      6  C   UNL     1       5.736   4.225  16.488  0.00  0.00    +0.000 C 
ATOM      7  S   UNL     1       6.956   5.045  15.333  0.00  0.00    +0.000 S 
ATOM      8  O   UNL     1       7.055   4.158  14.041  0.00  0.00    +0.000 OA
ATOM      9  C   UNL     1       5.827   6.478  14.963  0.00  0.00    +0.000 C 
ENDROOT
BRANCH   1  13
ATOM     10  C   UNL     1       1.027   9.346  20.011  0.00  0.00    +0.000 A 
ATOM     11  C   UNL     1       1.533   8.138  20.497  0.00  0.00    +0.000 A 
ATOM     12  C   UNL     1       2.318   7.315  19.684  0.00  0.00    +0.000 A 
ATOM     13  C   UNL     1       2.618   7.711  18.374  0.00  0.00    +0.000 A 
ATOM     14  C   UNL     1       2.072   8.899  17.870  0.00  0.00    +0.000 A 
ATOM     15  C   UNL     1       1.278   9.711  18.688  0.00  0.00    +0.000 A 
BRANCH  10  17
ATOM     16  C   UNL     1       0.361   9.678  22.258  0.00  0.00    +0.000 C 
ATOM     17  O   UNL     1       0.259  10.057  20.890  0.00  0.00    +0.000 OA
ENDBRANCH  10  17
ENDBRANCH   1  13
BRANCH   5  18
ATOM     18  N   UNL     1       3.202   4.676  18.723  0.00  0.00    +0.000 N 
ATOM     19  C   UNL     1       2.285   3.612  18.428  0.00  0.00    +0.000 C 
ATOM     20  O   UNL     1       1.833   3.473  17.304  0.00  0.00    +0.000 OA
ATOM     21  H   UNL     1       3.408   4.864  19.698  0.00  0.00    +0.000 HD
BRANCH  19  22
ATOM     22  C   UNL     1       1.871   2.737  19.595  0.00  0.00    +0.000 C 
ATOM     23  C   UNL     1       3.077   2.461  20.493  0.00  0.00    +0.000 C 
ATOM     24  C   UNL     1       2.476   2.012  21.812  0.00  0.00    +0.000 C 
ATOM     25  C   UNL     1       1.127   2.716  21.910  0.00  0.00    +0.000 C 
ATOM     26  C   UNL     1       0.883   3.387  20.559  0.00  0.00    +0.000 C 
ENDBRANCH  19  22
ENDBRANCH   5  18
TORSDOF 4
ENDMDL
MODEL 3
REMARK VINA RESULT:      -6.6      0.740      1.088
REMARK  Name = 
REMARK  5 active torsions:
REMARK  status: ('A' for Active; 'I' for Inactive)
REMARK    1  A    between atoms: C_1  and  O_2
REMARK    2  A    between atoms: O_2  and  C_3
REMARK    3  A    between atoms: C_6  and  N_7
REMARK    4  A    between atoms: C_11  and  N_12
REMARK    5  A    between atoms: C_13  and  C_15
REMARK                            x       y       z     vdW  Elec       q    Type
REMARK                         _______ _______ _______ _____ _____    ______ ____
ROOT
ATOM      1  N   UNL     1       5.224   5.167  18.254  0.00  0.00    +0.000 N 
ATOM      2  N   UNL     1       4.860   4.623  19.450  0.00  0.00    +0.000 NA
ATOM      3  C   UNL     1       3.769   3.931  19.152  0.00  0.00    +0.000 A 
ATOM      4  C   UNL     1       3.495   3.880  17.781  0.00  0.00    +0.000 A 
ATOM      5  C   UNL     1       4.505   4.601  17.178  0.00  0.00    +0.000 A 
ATOM      6  C   UNL     1       2.315   3.078  17.414  0.00  0.00    +0.000 C 
ATOM      7  S   UNL     1       1.384   2.827  19.015  0.00  0.00    +0.000 S 
ATOM      8  O   UNL     1       1.088   1.291  19.154  0.00  0.00    +0.000 OA
ATOM      9  C   UNL     1       2.860   3.228  20.077  0.00  0.00    +0.000 C 
ENDROOT
BRANCH   1  13
ATOM     10  C   UNL     1       8.103   8.259  18.090  0.00  0.00    +0.000 A 
ATOM     11  C   UNL     1       6.908   8.363  17.374  0.00  0.00    +0.000 A 
ATOM     12  C   UNL     1       5.957   7.339  17.421  0.00  0.00    +0.000 A 
ATOM     13  C   UNL     1       6.192   6.205  18.209  0.00  0.00    +0.000 A 
ATOM     14  C   UNL     1       7.410   6.078  18.890  0.00  0.00    +0.000 A 
ATOM     15  C   UNL     1       8.361   7.103  18.827  0.00  0.00    +0.000 A 
BRANCH  10  17
ATOM     16  C   UNL     1       9.221  10.066  19.132  0.00  0.00    +0.000 C 
ATOM     17  O   UNL     1       8.963   9.312  17.953  0.00  0.00    +0.000 OA
ENDBRANCH  10  17
ENDBRANCH   1  13
BRANCH   5  18
ATOM     18  N   UNL     1       4.822   4.755  15.822  0.00  0.00    +0.000 N 
ATOM     19  C   UNL     1       6.035   4.313  15.195  0.00  0.00    +0.000 C 
ATOM     20  O   UNL     1       6.961   3.886  15.863  0.00  0.00    +0.000 OA
ATOM     21  H   UNL     1       4.156   5.268  15.255  0.00  0.00    +0.000 HD
BRANCH  19  22
ATOM     22  C   UNL     1       6.111   4.477  13.690  0.00  0.00    +0.000 C 
ATOM     23  C   UNL     1       7.482   5.027  13.295  0.00  0.00    +0.000 C 
ATOM     24  C   UNL     1       7.610   4.705  11.817  0.00  0.00    +0.000 C 
ATOM     25  C   UNL     1       6.792   3.437  11.600  0.00  0.00    +0.000 C 
ATOM     26  C   UNL     1       6.039   3.172  12.903  0.00  0.00    +0.000 C 
ENDBRANCH  19  22
ENDBRANCH   5  18
TORSDOF 4
ENDMDL
MODEL 4
REMARK VINA RESULT:      -6.4      3.111      5.588
REMARK  Name = 
REMARK  5 active torsions:
REMARK  status: ('A' for Active; 'I' for Inactive)
REMARK    1  A    between atoms: C_1  and  O_2
REMARK    2  A    between atoms: O_2  and  C_3
REMARK    3  A    between atoms: C_6  and  N_7
REMARK    4  A    between atoms: C_11  and  N_12
REMARK    5  A    between atoms: C_13  and  C_15
REMARK                            x       y       z     vdW  Elec       q    Type
REMARK                         _______ _______ _______ _____ _____    ______ ____
ROOT
ATOM      1  N   UNL     1       4.294   5.232  18.274  0.00  0.00    +0.000 N 
ATOM      2  N   UNL     1       4.208   4.100  17.518  0.00  0.00    +0.000 NA
ATOM      3  C   UNL     1       3.130   3.493  17.997  0.00  0.00    +0.000 A 
ATOM      4  C   UNL     1       2.425   4.260  18.930  0.00  0.00    +0.000 A 
ATOM      5  C   UNL     1       3.125   5.443  19.039  0.00  0.00    +0.000 A 
ATOM      6  C   UNL     1       1.195   3.633  19.445  0.00  0.00    +0.000 C 
ATOM      7  S   UNL     1       1.332   1.832  18.962  0.00  0.00    +0.000 S 
ATOM      8  O   UNL     1      -0.007   1.431  18.246  0.00  0.00    +0.000 OA
ATOM      9  C   UNL     1       2.612   2.157  17.649  0.00  0.00    +0.000 C 
ENDROOT
BRANCH   1  13
ATOM     10  C   UNL     1       7.823   7.557  18.186  0.00  0.00    +0.000 A 
ATOM     11  C   UNL     1       6.703   7.939  17.445  0.00  0.00    +0.000 A 
ATOM     12  C   UNL     1       5.537   7.169  17.467  0.00  0.00    +0.000 A 
ATOM     13  C   UNL     1       5.480   6.012  18.255  0.00  0.00    +0.000 A 
ATOM     14  C   UNL     1       6.619   5.603  18.962  0.00  0.00    +0.000 A 
ATOM     15  C   UNL     1       7.785   6.374  18.925  0.00  0.00    +0.000 A 
BRANCH  10  17
ATOM     16  C   UNL     1       8.661   9.771  18.225  0.00  0.00    +0.000 C 
ATOM     17  O   UNL     1       8.910   8.378  18.072  0.00  0.00    +0.000 OA
ENDBRANCH  10  17
ENDBRANCH   1  13
BRANCH   5  18
ATOM     18  N   UNL     1       2.800   6.629  19.709  0.00  0.00    +0.000 N 
ATOM     19  C   UNL     1       2.161   7.771  19.118  0.00  0.00    +0.000 C 
ATOM     20  O   UNL     1       1.985   7.832  17.913  0.00  0.00    +0.000 OA
ATOM     21  H   UNL     1       3.089   6.699  20.678  0.00  0.00    +0.000 HD
BRANCH  19  22
ATOM     22  C   UNL     1       1.795   8.899  20.062  0.00  0.00    +0.000 C 
ATOM     23  C   UNL     1       0.696   9.762  19.440  0.00  0.00    +0.000 C 
ATOM     24  C   UNL     1       0.101  10.523  20.611  0.00  0.00    +0.000 C 
ATOM     25  C   UNL     1       0.280   9.617  21.824  0.00  0.00    +0.000 C 
ATOM     26  C   UNL     1       1.160   8.451  21.374  0.00  0.00    +0.000 C 
ENDBRANCH  19  22
ENDBRANCH   5  18
TORSDOF 4
ENDMDL
MODEL 5
REMARK VINA RESULT:      -6.3     10.127     12.329
REMARK  Name = 
REMARK  5 active torsions:
REMARK  status: ('A' for Active; 'I' for Inactive)
REMARK    1  A    between atoms: C_1  and  O_2
REMARK    2  A    between atoms: O_2  and  C_3
REMARK    3  A    between atoms: C_6  and  N_7
REMARK    4  A    between atoms: C_11  and  N_12
REMARK    5  A    between atoms: C_13  and  C_15
REMARK                            x       y       z     vdW  Elec       q    Type
REMARK                         _______ _______ _______ _____ _____    ______ ____
ROOT
ATOM      1  N   UNL     1      -0.680  13.775  20.781  0.00  0.00    +0.000 N 
ATOM      2  N   UNL     1       0.273  14.664  21.184  0.00  0.00    +0.000 NA
ATOM      3  C   UNL     1       1.214  14.545  20.257  0.00  0.00    +0.000 A 
ATOM      4  C   UNL     1       0.843  13.725  19.186  0.00  0.00    +0.000 A 
ATOM      5  C   UNL     1      -0.437  13.301  19.474  0.00  0.00    +0.000 A 
ATOM      6  C   UNL     1       1.849  13.611  18.115  0.00  0.00    +0.000 C 
ATOM      7  S   UNL     1       3.431  14.267  18.867  0.00  0.00    +0.000 S 
ATOM      8  O   UNL     1       4.018  15.334  17.875  0.00  0.00    +0.000 OA
ATOM      9  C   UNL     1       2.548  15.173  20.233  0.00  0.00    +0.000 C 
ENDROOT
BRANCH   1  13
ATOM     10  C   UNL     1      -3.793  12.643  23.408  0.00  0.00    +0.000 A 
ATOM     11  C   UNL     1      -2.587  11.939  23.391  0.00  0.00    +0.000 A 
ATOM     12  C   UNL     1      -1.558  12.307  22.519  0.00  0.00    +0.000 A 
ATOM     13  C   UNL     1      -1.726  13.405  21.666  0.00  0.00    +0.000 A 
ATOM     14  C   UNL     1      -2.953  14.084  21.649  0.00  0.00    +0.000 A 
ATOM     15  C   UNL     1      -3.981  13.701  22.516  0.00  0.00    +0.000 A 
BRANCH  10  17
ATOM     16  C   UNL     1      -6.046  12.704  24.133  0.00  0.00    +0.000 C 
ATOM     17  O   UNL     1      -4.731  12.182  24.288  0.00  0.00    +0.000 OA
ENDBRANCH  10  17
ENDBRANCH   1  13
BRANCH   5  18
ATOM     18  N   UNL     1      -1.353  12.589  18.688  0.00  0.00    +0.000 N 
ATOM     19  C   UNL     1      -1.526  11.164  18.696  0.00  0.00    +0.000 C 
ATOM     20  O   UNL     1      -0.754  10.447  19.309  0.00  0.00    +0.000 OA
ATOM     21  H   UNL     1      -1.899  13.127  18.025  0.00  0.00    +0.000 HD
BRANCH  19  22
ATOM     22  C   UNL     1      -2.662  10.620  17.852  0.00  0.00    +0.000 C 
ATOM     23  C   UNL     1      -3.825  11.613  17.843  0.00  0.00    +0.000 C 
ATOM     24  C   UNL     1      -4.660  11.210  16.641  0.00  0.00    +0.000 C 
ATOM     25  C   UNL     1      -3.679  10.603  15.643  0.00  0.00    +0.000 C 
ATOM     26  C   UNL     1      -2.340  10.473  16.369  0.00  0.00    +0.000 C 
ENDBRANCH  19  22
ENDBRANCH   5  18
TORSDOF 4
ENDMDL
MODEL 6
REMARK VINA RESULT:      -6.3      8.142      9.898
REMARK  Name = 
REMARK  5 active torsions:
REMARK  status: ('A' for Active; 'I' for Inactive)
REMARK    1  A    between atoms: C_1  and  O_2
REMARK    2  A    between atoms: O_2  and  C_3
REMARK    3  A    between atoms: C_6  and  N_7
REMARK    4  A    between atoms: C_11  and  N_12
REMARK    5  A    between atoms: C_13  and  C_15
REMARK                            x       y       z     vdW  Elec       q    Type
REMARK                         _______ _______ _______ _____ _____    ______ ____
ROOT
ATOM      1  N   UNL     1       0.885  10.900  19.968  0.00  0.00    +0.000 N 
ATOM      2  N   UNL     1       1.395  11.724  20.927  0.00  0.00    +0.000 NA
ATOM      3  C   UNL     1       1.000  12.928  20.538  0.00  0.00    +0.000 A 
ATOM      4  C   UNL     1       0.124  12.905  19.447  0.00  0.00    +0.000 A 
ATOM      5  C   UNL     1      -0.037  11.571  19.135  0.00  0.00    +0.000 A 
ATOM      6  C   UNL     1      -0.371  14.225  19.021  0.00  0.00    +0.000 C 
ATOM      7  S   UNL     1       0.762  15.458  19.852  0.00  0.00    +0.000 S 
ATOM      8  O   UNL     1      -0.142  16.513  20.583  0.00  0.00    +0.000 OA
ATOM      9  C   UNL     1       1.361  14.234  21.121  0.00  0.00    +0.000 C 
ENDROOT
BRANCH   1  13
ATOM     10  C   UNL     1       2.187   6.889  19.670  0.00  0.00    +0.000 A 
ATOM     11  C   UNL     1       2.327   7.763  18.589  0.00  0.00    +0.000 A 
ATOM     12  C   UNL     1       1.891   9.088  18.683  0.00  0.00    +0.000 A 
ATOM     13  C   UNL     1       1.327   9.554  19.877  0.00  0.00    +0.000 A 
ATOM     14  C   UNL     1       1.143   8.666  20.946  0.00  0.00    +0.000 A 
ATOM     15  C   UNL     1       1.571   7.338  20.839  0.00  0.00    +0.000 A 
BRANCH  10  17
ATOM     16  C   UNL     1       4.041   5.458  19.325  0.00  0.00    +0.000 C 
ATOM     17  O   UNL     1       2.632   5.615  19.456  0.00  0.00    +0.000 OA
ENDBRANCH  10  17
ENDBRANCH   1  13
BRANCH   5  18
ATOM     18  N   UNL     1      -0.914  10.952  18.234  0.00  0.00    +0.000 N 
ATOM     19  C   UNL     1      -2.346  11.034  18.276  0.00  0.00    +0.000 C 
ATOM     20  O   UNL     1      -2.912  11.554  19.223  0.00  0.00    +0.000 OA
ATOM     21  H   UNL     1      -0.496  10.357  17.528  0.00  0.00    +0.000 HD
BRANCH  19  22
ATOM     22  C   UNL     1      -3.091  10.384  17.127  0.00  0.00    +0.000 C 
ATOM     23  C   UNL     1      -3.853  11.445  16.333  0.00  0.00    +0.000 C 
ATOM     24  C   UNL     1      -4.146  10.785  14.998  0.00  0.00    +0.000 C 
ATOM     25  C   UNL     1      -3.006   9.798  14.768  0.00  0.00    +0.000 C 
ATOM     26  C   UNL     1      -2.197   9.754  16.064  0.00  0.00    +0.000 C 
ENDBRANCH  19  22
ENDBRANCH   5  18
TORSDOF 4
ENDMDL
MODEL 7
REMARK VINA RESULT:      -6.2      3.160      5.321
REMARK  Name = 
REMARK  5 active torsions:
REMARK  status: ('A' for Active; 'I' for Inactive)
REMARK    1  A    between atoms: C_1  and  O_2
REMARK    2  A    between atoms: O_2  and  C_3
REMARK    3  A    between atoms: C_6  and  N_7
REMARK    4  A    between atoms: C_11  and  N_12
REMARK    5  A    between atoms: C_13  and  C_15
REMARK                            x       y       z     vdW  Elec       q    Type
REMARK                         _______ _______ _______ _____ _____    ______ ____
ROOT
ATOM      1  N   UNL     1       4.413   5.195  18.060  0.00  0.00    +0.000 N 
ATOM      2  N   UNL     1       4.509   3.875  17.734  0.00  0.00    +0.000 NA
ATOM      3  C   UNL     1       3.330   3.384  18.095  0.00  0.00    +0.000 A 
ATOM      4  C   UNL     1       2.418   4.363  18.502  0.00  0.00    +0.000 A 
ATOM      5  C   UNL     1       3.088   5.562  18.382  0.00  0.00    +0.000 A 
ATOM      6  C   UNL     1       1.083   3.855  18.863  0.00  0.00    +0.000 C 
ATOM      7  S   UNL     1       1.308   2.010  19.067  0.00  0.00    +0.000 S 
ATOM      8  O   UNL     1       0.199   1.302  18.209  0.00  0.00    +0.000 OA
ATOM      9  C   UNL     1       2.897   1.975  18.097  0.00  0.00    +0.000 C 
ENDROOT
BRANCH   1  13
ATOM     10  C   UNL     1       7.879   7.615  18.101  0.00  0.00    +0.000 A 
ATOM     11  C   UNL     1       6.811   7.920  17.255  0.00  0.00    +0.000 A 
ATOM     12  C   UNL     1       5.666   7.118  17.235  0.00  0.00    +0.000 A 
ATOM     13  C   UNL     1       5.577   6.008  18.084  0.00  0.00    +0.000 A 
ATOM     14  C   UNL     1       6.667   5.674  18.899  0.00  0.00    +0.000 A 
ATOM     15  C   UNL     1       7.813   6.476  18.904  0.00  0.00    +0.000 A 
BRANCH  10  17
ATOM     16  C   UNL     1       8.710   9.813  18.393  0.00  0.00    +0.000 C 
ATOM     17  O   UNL     1       8.951   8.460  18.022  0.00  0.00    +0.000 OA
ENDBRANCH  10  17
ENDBRANCH   1  13
BRANCH   5  18
ATOM     18  N   UNL     1       2.621   6.877  18.506  0.00  0.00    +0.000 N 
ATOM     19  C   UNL     1       2.074   7.457  19.699  0.00  0.00    +0.000 C 
ATOM     20  O   UNL     1       1.843   6.768  20.678  0.00  0.00    +0.000 OA
ATOM     21  H   UNL     1       2.625   7.443  17.665  0.00  0.00    +0.000 HD
BRANCH  19  22
ATOM     22  C   UNL     1       1.744   8.936  19.638  0.00  0.00    +0.000 C 
ATOM     23  C   UNL     1       1.294   9.311  18.226  0.00  0.00    +0.000 C 
ATOM     24  C   UNL     1       0.564  10.631  18.396  0.00  0.00    +0.000 C 
ATOM     25  C   UNL     1      -0.026  10.597  19.802  0.00  0.00    +0.000 C 
ATOM     26  C   UNL     1       0.550   9.358  20.489  0.00  0.00    +0.000 C 
ENDBRANCH  19  22
ENDBRANCH   5  18
TORSDOF 4
ENDMDL
MODEL 8
REMARK VINA RESULT:      -6.2      9.171     10.984
REMARK  Name = 
REMARK  5 active torsions:
REMARK  status: ('A' for Active; 'I' for Inactive)
REMARK    1  A    between atoms: C_1  and  O_2
REMARK    2  A    between atoms: O_2  and  C_3
REMARK    3  A    between atoms: C_6  and  N_7
REMARK    4  A    between atoms: C_11  and  N_12
REMARK    5  A    between atoms: C_13  and  C_15
REMARK                            x       y       z     vdW  Elec       q    Type
REMARK                         _______ _______ _______ _____ _____    ______ ____
ROOT
ATOM      1  N   UNL     1      -2.636  11.872  19.369  0.00  0.00    +0.000 N 
ATOM      2  N   UNL     1      -3.567  12.733  19.868  0.00  0.00    +0.000 NA
ATOM      3  C   UNL     1      -3.231  12.842  21.146  0.00  0.00    +0.000 A 
ATOM      4  C   UNL     1      -2.028  12.203  21.464  0.00  0.00    +0.000 A 
ATOM      5  C   UNL     1      -1.579  11.654  20.281  0.00  0.00    +0.000 A 
ATOM      6  C   UNL     1      -1.602  12.346  22.867  0.00  0.00    +0.000 C 
ATOM      7  S   UNL     1      -3.119  12.957  23.773  0.00  0.00    +0.000 S 
ATOM      8  O   UNL     1      -2.696  14.218  24.606  0.00  0.00    +0.000 OA
ATOM      9  C   UNL     1      -3.957  13.547  22.218  0.00  0.00    +0.000 C 
ENDROOT
BRANCH   1  13
ATOM     10  C   UNL     1      -3.162  10.128  15.554  0.00  0.00    +0.000 A 
ATOM     11  C   UNL     1      -2.054   9.799  16.338  0.00  0.00    +0.000 A 
ATOM     12  C   UNL     1      -1.874  10.379  17.597  0.00  0.00    +0.000 A 
ATOM     13  C   UNL     1      -2.822  11.284  18.090  0.00  0.00    +0.000 A 
ATOM     14  C   UNL     1      -3.910  11.650  17.286  0.00  0.00    +0.000 A 
ATOM     15  C   UNL     1      -4.075  11.073  16.022  0.00  0.00    +0.000 A 
BRANCH  10  17
ATOM     16  C   UNL     1      -4.204  10.008  13.432  0.00  0.00    +0.000 C 
ATOM     17  O   UNL     1      -3.223   9.512  14.336  0.00  0.00    +0.000 OA
ENDBRANCH  10  17
ENDBRANCH   1  13
BRANCH   5  18
ATOM     18  N   UNL     1      -0.360  11.037  19.974  0.00  0.00    +0.000 N 
ATOM     19  C   UNL     1       0.091   9.779  20.497  0.00  0.00    +0.000 C 
ATOM     20  O   UNL     1      -0.525   9.217  21.387  0.00  0.00    +0.000 OA
ATOM     21  H   UNL     1       0.273  11.552  19.372  0.00  0.00    +0.000 HD
BRANCH  19  22
ATOM     22  C   UNL     1       1.392   9.243  19.932  0.00  0.00    +0.000 C 
ATOM     23  C   UNL     1       1.556   7.770  20.307  0.00  0.00    +0.000 C 
ATOM     24  C   UNL     1       2.591   7.241  19.332  0.00  0.00    +0.000 C 
ATOM     25  C   UNL     1       2.430   8.078  18.067  0.00  0.00    +0.000 C 
ATOM     26  C   UNL     1       1.457   9.206  18.409  0.00  0.00    +0.000 C 
ENDBRANCH  19  22
ENDBRANCH   5  18
TORSDOF 4
ENDMDL
MODEL 9
REMARK VINA RESULT:      -6.2      9.007     10.432
REMARK  Name = 
REMARK  5 active torsions:
REMARK  status: ('A' for Active; 'I' for Inactive)
REMARK    1  A    between atoms: C_1  and  O_2
REMARK    2  A    between atoms: O_2  and  C_3
REMARK    3  A    between atoms: C_6  and  N_7
REMARK    4  A    between atoms: C_11  and  N_12
REMARK    5  A    between atoms: C_13  and  C_15
REMARK                            x       y       z     vdW  Elec       q    Type
REMARK                         _______ _______ _______ _____ _____    ______ ____
ROOT
ATOM      1  N   UNL     1      -0.337  11.092  21.098  0.00  0.00    +0.000 N 
ATOM      2  N   UNL     1      -0.413  11.511  22.394  0.00  0.00    +0.000 NA
ATOM      3  C   UNL     1      -0.922  12.731  22.292  0.00  0.00    +0.000 A 
ATOM      4  C   UNL     1      -1.323  13.063  20.994  0.00  0.00    +0.000 A 
ATOM      5  C   UNL     1      -1.038  11.953  20.226  0.00  0.00    +0.000 A 
ATOM      6  C   UNL     1      -1.937  14.395  20.856  0.00  0.00    +0.000 C 
ATOM      7  S   UNL     1      -1.502  15.293  22.437  0.00  0.00    +0.000 S 
ATOM      8  O   UNL     1      -2.831  15.889  23.023  0.00  0.00    +0.000 OA
ATOM      9  C   UNL     1      -1.115  13.726  23.363  0.00  0.00    +0.000 C 
ENDROOT
BRANCH   1  13
ATOM     10  C   UNL     1       1.897   7.649  20.084  0.00  0.00    +0.000 A 
ATOM     11  C   UNL     1       1.758   8.699  19.173  0.00  0.00    +0.000 A 
ATOM     12  C   UNL     1       1.014   9.836  19.504  0.00  0.00    +0.000 A 
ATOM     13  C   UNL     1       0.418   9.936  20.767  0.00  0.00    +0.000 A 
ATOM     14  C   UNL     1       0.517   8.864  21.664  0.00  0.00    +0.000 A 
ATOM     15  C   UNL     1       1.254   7.725  21.320  0.00  0.00    +0.000 A 
BRANCH  10  17
ATOM     16  C   UNL     1       2.760   6.452  18.233  0.00  0.00    +0.000 C 
ATOM     17  O   UNL     1       2.631   6.584  19.644  0.00  0.00    +0.000 OA
ENDBRANCH  10  17
ENDBRANCH   1  13
BRANCH   5  18
ATOM     18  N   UNL     1      -1.364  11.666  18.894  0.00  0.00    +0.000 N 
ATOM     19  C   UNL     1      -2.691  11.638  18.349  0.00  0.00    +0.000 C 
ATOM     20  O   UNL     1      -3.665  11.728  19.076  0.00  0.00    +0.000 OA
ATOM     21  H   UNL     1      -0.597  11.407  18.284  0.00  0.00    +0.000 HD
BRANCH  19  22
ATOM     22  C   UNL     1      -2.799  11.423  16.852  0.00  0.00    +0.000 C 
ATOM     23  C   UNL     1      -2.154  10.091  16.469  0.00  0.00    +0.000 C 
ATOM     24  C   UNL     1      -2.722   9.772  15.099  0.00  0.00    +0.000 C 
ATOM     25  C   UNL     1      -4.106  10.412  15.068  0.00  0.00    +0.000 C 
ATOM     26  C   UNL     1      -4.224  11.262  16.332  0.00  0.00    +0.000 C 
ENDBRANCH  19  22
ENDBRANCH   5  18
TORSDOF 4
ENDMDL
