MODEL 1
REMARK VINA RESULT:      -8.1      0.000      0.000
REMARK  Name = 
REMARK  11 active torsions:
REMARK  status: ('A' for Active; 'I' for Inactive)
REMARK    1  A    between atoms: C_1  and  C_2
REMARK    2  A    between atoms: C_2  and  C_3
REMARK    3  A    between atoms: C_3  and  C_4
REMARK    4  A    between atoms: N_6  and  C_7
REMARK    5  A    between atoms: N_9  and  O_10
REMARK    6  A    between atoms: O_10  and  C_11
REMARK    7  A    between atoms: N_13  and  C_14
REMARK    8  A    between atoms: C_21  and  C_22
REMARK    9  A    between atoms: C_22  and  O_23
REMARK   10  A    between atoms: C_24  and  O_25
REMARK   11  A    between atoms: C_26  and  O_27
REMARK                            x       y       z     vdW  Elec       q    Type
REMARK                         _______ _______ _______ _____ _____    ______ ____
ROOT
ATOM      1  C   UNL     1       5.399   5.083  16.468  0.00  0.00    +0.000 C 
ATOM      2  C   UNL     1       5.553   6.544  16.885  0.00  0.00    +0.000 C 
ATOM      3  N   UNL     1       6.721   7.092  16.748  0.00  0.00    +0.000 NA
ATOM      4  O   UNL     1       4.520   7.209  17.440  0.00  0.00    +0.000 OA
ATOM      5  C   UNL     1       3.287   6.530  17.786  0.00  0.00    +0.000 C 
ATOM      6  C   UNL     1       3.583   5.096  18.226  0.00  0.00    +0.000 C 
ATOM      7  C   UNL     1       4.162   4.365  17.008  0.00  0.00    +0.000 C 
ENDROOT
BRANCH   1  10
ATOM      8  C   UNL     1       6.849   4.680  14.487  0.00  0.00    +0.000 C 
ATOM      9  O   UNL     1       7.850   4.533  15.182  0.00  0.00    +0.000 OA
ATOM     10  N   UNL     1       5.608   4.911  15.027  0.00  0.00    +0.000 N 
ATOM     11  H   UNL     1       4.870   5.228  14.413  0.00  0.00    +0.000 HD
BRANCH   8  12
ATOM     12  C   UNL     1       6.876   4.583  12.971  0.00  0.00    +0.000 C 
BRANCH  12  14
ATOM     13  C   UNL     1       4.974   3.322  11.863  0.00  0.00    +0.000 C 
ATOM     14  C   UNL     1       6.385   3.242  12.429  0.00  0.00    +0.000 C 
ENDBRANCH  12  14
ENDBRANCH   8  12
ENDBRANCH   1  10
BRANCH   6  15
ATOM     15  O   UNL     1       2.423   4.421  18.712  0.00  0.00    +0.000 OA
ATOM     16  H   UNL     1       2.005   3.933  17.980  0.00  0.00    +0.000 HD
ENDBRANCH   6  15
BRANCH   7  17
ATOM     17  O   UNL     1       4.506   3.009  17.349  0.00  0.00    +0.000 OA
ATOM     18  H   UNL     1       4.436   2.906  18.317  0.00  0.00    +0.000 HD
ENDBRANCH   7  17
BRANCH   3  19
ATOM     19  O   UNL     1       6.720   8.422  17.231  0.00  0.00    +0.000 OA
BRANCH  19  20
ATOM     20  C   UNL     1       7.869   8.709  17.954  0.00  0.00    +0.000 C 
ATOM     21  O   UNL     1       8.461   7.817  18.550  0.00  0.00    +0.000 OA
ATOM     22  N   UNL     1       8.216  10.041  17.914  0.00  0.00    +0.000 N 
ATOM     23  H   UNL     1       7.518  10.594  17.431  0.00  0.00    +0.000 HD
BRANCH  22  24
ATOM     24  C   UNL     1       9.338  10.675  18.464  0.00  0.00    +0.000 A 
ATOM     25  C   UNL     1      10.409  11.130  17.695  0.00  0.00    +0.000 A 
ATOM     26  C   UNL     1      11.498  11.765  18.300  0.00  0.00    +0.000 A 
ATOM     27  C   UNL     1      11.527  11.943  19.680  0.00  0.00    +0.000 A 
ATOM     28  C   UNL     1      10.461  11.495  20.456  0.00  0.00    +0.000 A 
ATOM     29  C   UNL     1       9.366  10.872  19.851  0.00  0.00    +0.000 A 
ENDBRANCH  22  24
ENDBRANCH  19  20
ENDBRANCH   3  19
BRANCH   5  30
ATOM     30  C   UNL     1       2.586   7.346  18.882  0.00  0.00    +0.000 C 
BRANCH  30  31
ATOM     31  O   UNL     1       2.705   6.712  20.154  0.00  0.00    +0.000 OA
ATOM     32  H   UNL     1       3.612   6.360  20.202  0.00  0.00    +0.000 HD
ENDBRANCH  30  31
ENDBRANCH   5  30
TORSDOF 10
ENDMDL
MODEL 2
REMARK VINA RESULT:      -8.0      4.177      7.010
REMARK  Name = 
REMARK  11 active torsions:
REMARK  status: ('A' for Active; 'I' for Inactive)
REMARK    1  A    between atoms: C_1  and  C_2
REMARK    2  A    between atoms: C_2  and  C_3
REMARK    3  A    between atoms: C_3  and  C_4
REMARK    4  A    between atoms: N_6  and  C_7
REMARK    5  A    between atoms: N_9  and  O_10
REMARK    6  A    between atoms: O_10  and  C_11
REMARK    7  A    between atoms: N_13  and  C_14
REMARK    8  A    between atoms: C_21  and  C_22
REMARK    9  A    between atoms: C_22  and  O_23
REMARK   10  A    between atoms: C_24  and  O_25
REMARK   11  A    between atoms: C_26  and  O_27
REMARK                            x       y       z     vdW  Elec       q    Type
REMARK                         _______ _______ _______ _____ _____    ______ ____
ROOT
ATOM      1  C   UNL     1       2.744   5.182  18.187  0.00  0.00    +0.000 C 
ATOM      2  C   UNL     1       4.229   4.901  18.413  0.00  0.00    +0.000 C 
ATOM      3  N   UNL     1       5.086   5.729  17.900  0.00  0.00    +0.000 NA
ATOM      4  O   UNL     1       4.621   3.788  19.066  0.00  0.00    +0.000 OA
ATOM      5  C   UNL     1       3.669   2.764  19.447  0.00  0.00    +0.000 C 
ATOM      6  C   UNL     1       2.553   2.671  18.406  0.00  0.00    +0.000 C 
ATOM      7  C   UNL     1       1.800   4.007  18.439  0.00  0.00    +0.000 C 
ENDROOT
BRANCH   1  10
ATOM      8  C   UNL     1       2.013   6.497  20.169  0.00  0.00    +0.000 C 
ATOM      9  O   UNL     1       2.122   5.531  20.917  0.00  0.00    +0.000 OA
ATOM     10  N   UNL     1       2.331   6.431  18.834  0.00  0.00    +0.000 N 
ATOM     11  H   UNL     1       2.027   7.184  18.231  0.00  0.00    +0.000 HD
BRANCH   8  12
ATOM     12  C   UNL     1       1.555   7.864  20.647  0.00  0.00    +0.000 C 
BRANCH  12  14
ATOM     13  C   UNL     1       0.275   9.889  19.814  0.00  0.00    +0.000 C 
ATOM     14  C   UNL     1       1.381   8.885  19.524  0.00  0.00    +0.000 C 
ENDBRANCH  12  14
ENDBRANCH   8  12
ENDBRANCH   1  10
BRANCH   6  15
ATOM     15  O   UNL     1       1.661   1.586  18.654  0.00  0.00    +0.000 OA
ATOM     16  H   UNL     1       1.903   0.833  18.085  0.00  0.00    +0.000 HD
ENDBRANCH   6  15
BRANCH   7  17
ATOM     17  O   UNL     1       0.748   4.019  17.456  0.00  0.00    +0.000 OA
ATOM     18  H   UNL     1       1.110   3.689  16.612  0.00  0.00    +0.000 HD
ENDBRANCH   7  17
BRANCH   3  19
ATOM     19  O   UNL     1       6.414   5.303  18.143  0.00  0.00    +0.000 OA
BRANCH  19  20
ATOM     20  C   UNL     1       7.030   4.851  16.985  0.00  0.00    +0.000 C 
ATOM     21  O   UNL     1       8.090   4.238  17.049  0.00  0.00    +0.000 OA
ATOM     22  N   UNL     1       6.335   5.172  15.841  0.00  0.00    +0.000 N 
ATOM     23  H   UNL     1       5.535   5.760  16.043  0.00  0.00    +0.000 HD
BRANCH  22  24
ATOM     24  C   UNL     1       6.617   4.825  14.513  0.00  0.00    +0.000 A 
ATOM     25  C   UNL     1       7.633   5.424  13.768  0.00  0.00    +0.000 A 
ATOM     26  C   UNL     1       7.873   5.028  12.449  0.00  0.00    +0.000 A 
ATOM     27  C   UNL     1       7.095   4.034  11.863  0.00  0.00    +0.000 A 
ATOM     28  C   UNL     1       6.081   3.427  12.599  0.00  0.00    +0.000 A 
ATOM     29  C   UNL     1       5.848   3.813  13.922  0.00  0.00    +0.000 A 
ENDBRANCH  22  24
ENDBRANCH  19  20
ENDBRANCH   3  19
BRANCH   5  30
ATOM     30  C   UNL     1       4.433   1.441  19.605  0.00  0.00    +0.000 C 
BRANCH  30  31
ATOM     31  O   UNL     1       4.348   0.650  18.422  0.00  0.00    +0.000 OA
ATOM     32  H   UNL     1       5.173   0.132  18.377  0.00  0.00    +0.000 HD
ENDBRANCH  30  31
ENDBRANCH   5  30
TORSDOF 10
ENDMDL
MODEL 3
REMARK VINA RESULT:      -8.0      3.607      7.373
REMARK  Name = 
REMARK  11 active torsions:
REMARK  status: ('A' for Active; 'I' for Inactive)
REMARK    1  A    between atoms: C_1  and  C_2
REMARK    2  A    between atoms: C_2  and  C_3
REMARK    3  A    between atoms: C_3  and  C_4
REMARK    4  A    between atoms: N_6  and  C_7
REMARK    5  A    between atoms: N_9  and  O_10
REMARK    6  A    between atoms: O_10  and  C_11
REMARK    7  A    between atoms: N_13  and  C_14
REMARK    8  A    between atoms: C_21  and  C_22
REMARK    9  A    between atoms: C_22  and  O_23
REMARK   10  A    between atoms: C_24  and  O_25
REMARK   11  A    between atoms: C_26  and  O_27
REMARK                            x       y       z     vdW  Elec       q    Type
REMARK                         _______ _______ _______ _____ _____    ______ ____
ROOT
ATOM      1  C   UNL     1       4.213   4.478  17.517  0.00  0.00    +0.000 C 
ATOM      2  C   UNL     1       4.160   5.970  17.841  0.00  0.00    +0.000 C 
ATOM      3  N   UNL     1       3.023   6.579  17.700  0.00  0.00    +0.000 NA
ATOM      4  O   UNL     1       5.280   6.632  18.194  0.00  0.00    +0.000 OA
ATOM      5  C   UNL     1       6.580   5.994  18.142  0.00  0.00    +0.000 C 
ATOM      6  C   UNL     1       6.629   4.996  16.985  0.00  0.00    +0.000 C 
ATOM      7  C   UNL     1       5.609   3.895  17.301  0.00  0.00    +0.000 C 
ENDROOT
BRANCH   1  10
ATOM      8  C   UNL     1       2.095   3.318  18.116  0.00  0.00    +0.000 C 
ATOM      9  O   UNL     1       1.597   3.544  17.017  0.00  0.00    +0.000 OA
ATOM     10  N   UNL     1       3.375   3.700  18.435  0.00  0.00    +0.000 N 
ATOM     11  H   UNL     1       3.654   3.676  19.407  0.00  0.00    +0.000 HD
BRANCH   8  12
ATOM     12  C   UNL     1       1.364   2.564  19.214  0.00  0.00    +0.000 C 
BRANCH  12  14
ATOM     13  C   UNL     1       1.855   2.958  21.671  0.00  0.00    +0.000 C 
ATOM     14  C   UNL     1       1.066   3.409  20.450  0.00  0.00    +0.000 C 
ENDBRANCH  12  14
ENDBRANCH   8  12
ENDBRANCH   1  10
BRANCH   6  15
ATOM     15  O   UNL     1       7.929   4.438  16.797  0.00  0.00    +0.000 OA
ATOM     16  H   UNL     1       8.526   4.773  17.490  0.00  0.00    +0.000 HD
ENDBRANCH   6  15
BRANCH   7  17
ATOM     17  O   UNL     1       5.564   2.927  16.236  0.00  0.00    +0.000 OA
ATOM     18  H   UNL     1       5.998   2.109  16.543  0.00  0.00    +0.000 HD
ENDBRANCH   7  17
BRANCH   3  19
ATOM     19  O   UNL     1       3.148   7.962  17.979  0.00  0.00    +0.000 OA
BRANCH  19  20
ATOM     20  C   UNL     1       2.051   8.448  18.675  0.00  0.00    +0.000 C 
ATOM     21  O   UNL     1       1.793   8.024  19.796  0.00  0.00    +0.000 OA
ATOM     22  N   UNL     1       1.344   9.400  17.975  0.00  0.00    +0.000 N 
ATOM     23  H   UNL     1       1.703   9.514  17.034  0.00  0.00    +0.000 HD
BRANCH  22  24
ATOM     24  C   UNL     1       0.234  10.150  18.384  0.00  0.00    +0.000 A 
ATOM     25  C   UNL     1       0.288  11.092  19.411  0.00  0.00    +0.000 A 
ATOM     26  C   UNL     1      -0.852  11.818  19.769  0.00  0.00    +0.000 A 
ATOM     27  C   UNL     1      -2.057  11.602  19.106  0.00  0.00    +0.000 A 
ATOM     28  C   UNL     1      -2.120  10.667  18.077  0.00  0.00    +0.000 A 
ATOM     29  C   UNL     1      -0.978   9.950  17.710  0.00  0.00    +0.000 A 
ENDBRANCH  22  24
ENDBRANCH  19  20
ENDBRANCH   3  19
BRANCH   5  30
ATOM     30  C   UNL     1       7.645   7.093  18.014  0.00  0.00    +0.000 C 
BRANCH  30  31
ATOM     31  O   UNL     1       7.923   7.385  16.646  0.00  0.00    +0.000 OA
ATOM     32  H   UNL     1       8.290   8.288  16.626  0.00  0.00    +0.000 HD
ENDBRANCH  30  31
ENDBRANCH   5  30
TORSDOF 10
ENDMDL
MODEL 4
REMARK VINA RESULT:      -7.9      4.144      7.195
REMARK  Name = 
REMARK  11 active torsions:
REMARK  status: ('A' for Active; 'I' for Inactive)
REMARK    1  A    between atoms: C_1  and  C_2
REMARK    2  A    between atoms: C_2  and  C_3
REMARK    3  A    between atoms: C_3  and  C_4
REMARK    4  A    between atoms: N_6  and  C_7
REMARK    5  A    between atoms: N_9  and  O_10
REMARK    6  A    between atoms: O_10  and  C_11
REMARK    7  A    between atoms: N_13  and  C_14
REMARK    8  A    between atoms: C_21  and  C_22
REMARK    9  A    between atoms: C_22  and  O_23
REMARK   10  A    between atoms: C_24  and  O_25
REMARK   11  A    between atoms: C_26  and  O_27
REMARK                            x       y       z     vdW  Elec       q    Type
REMARK                         _______ _______ _______ _____ _____    ______ ____
ROOT
ATOM      1  C   UNL     1       2.806   5.359  18.118  0.00  0.00    +0.000 C 
ATOM      2  C   UNL     1       4.286   5.050  18.340  0.00  0.00    +0.000 C 
ATOM      3  N   UNL     1       5.157   5.858  17.818  0.00  0.00    +0.000 NA
ATOM      4  O   UNL     1       4.659   3.934  18.998  0.00  0.00    +0.000 OA
ATOM      5  C   UNL     1       3.689   2.931  19.389  0.00  0.00    +0.000 C 
ATOM      6  C   UNL     1       2.566   2.854  18.354  0.00  0.00    +0.000 C 
ATOM      7  C   UNL     1       1.840   4.205  18.382  0.00  0.00    +0.000 C 
ENDROOT
BRANCH   1  10
ATOM      8  C   UNL     1       2.016   6.684  20.070  0.00  0.00    +0.000 C 
ATOM      9  O   UNL     1       2.018   5.703  20.806  0.00  0.00    +0.000 OA
ATOM     10  N   UNL     1       2.420   6.620  18.759  0.00  0.00    +0.000 N 
ATOM     11  H   UNL     1       2.201   7.398  18.151  0.00  0.00    +0.000 HD
BRANCH   8  12
ATOM     12  C   UNL     1       1.603   8.068  20.542  0.00  0.00    +0.000 C 
BRANCH  12  14
ATOM     13  C   UNL     1       0.318   9.334  22.325  0.00  0.00    +0.000 C 
ATOM     14  C   UNL     1       0.403   8.067  21.486  0.00  0.00    +0.000 C 
ENDBRANCH  12  14
ENDBRANCH   8  12
ENDBRANCH   1  10
BRANCH   6  15
ATOM     15  O   UNL     1       1.654   1.788  18.614  0.00  0.00    +0.000 OA
ATOM     16  H   UNL     1       1.095   1.645  17.829  0.00  0.00    +0.000 HD
ENDBRANCH   6  15
BRANCH   7  17
ATOM     17  O   UNL     1       0.784   4.231  17.403  0.00  0.00    +0.000 OA
ATOM     18  H   UNL     1       0.437   3.325  17.299  0.00  0.00    +0.000 HD
ENDBRANCH   7  17
BRANCH   3  19
ATOM     19  O   UNL     1       6.477   5.407  18.058  0.00  0.00    +0.000 OA
BRANCH  19  20
ATOM     20  C   UNL     1       7.061   4.889  16.911  0.00  0.00    +0.000 C 
ATOM     21  O   UNL     1       8.093   4.232  16.987  0.00  0.00    +0.000 OA
ATOM     22  N   UNL     1       6.369   5.201  15.762  0.00  0.00    +0.000 N 
ATOM     23  H   UNL     1       5.598   5.831  15.951  0.00  0.00    +0.000 HD
BRANCH  22  24
ATOM     24  C   UNL     1       6.623   4.796  14.445  0.00  0.00    +0.000 A 
ATOM     25  C   UNL     1       5.915   3.774  13.812  0.00  0.00    +0.000 A 
ATOM     26  C   UNL     1       6.207   3.421  12.492  0.00  0.00    +0.000 A 
ATOM     27  C   UNL     1       7.213   4.083  11.795  0.00  0.00    +0.000 A 
ATOM     28  C   UNL     1       7.923   5.108  12.417  0.00  0.00    +0.000 A 
ATOM     29  C   UNL     1       7.624   5.470  13.733  0.00  0.00    +0.000 A 
ENDBRANCH  22  24
ENDBRANCH  19  20
ENDBRANCH   3  19
BRANCH   5  30
ATOM     30  C   UNL     1       4.428   1.595  19.553  0.00  0.00    +0.000 C 
BRANCH  30  31
ATOM     31  O   UNL     1       4.275   0.775  18.396  0.00  0.00    +0.000 OA
ATOM     32  H   UNL     1       3.644   0.072  18.638  0.00  0.00    +0.000 HD
ENDBRANCH  30  31
ENDBRANCH   5  30
TORSDOF 10
ENDMDL
MODEL 5
REMARK VINA RESULT:      -7.9      4.126      6.914
REMARK  Name = 
REMARK  11 active torsions:
REMARK  status: ('A' for Active; 'I' for Inactive)
REMARK    1  A    between atoms: C_1  and  C_2
REMARK    2  A    between atoms: C_2  and  C_3
REMARK    3  A    between atoms: C_3  and  C_4
REMARK    4  A    between atoms: N_6  and  C_7
REMARK    5  A    between atoms: N_9  and  O_10
REMARK    6  A    between atoms: O_10  and  C_11
REMARK    7  A    between atoms: N_13  and  C_14
REMARK    8  A    between atoms: C_21  and  C_22
REMARK    9  A    between atoms: C_22  and  O_23
REMARK   10  A    between atoms: C_24  and  O_25
REMARK   11  A    between atoms: C_26  and  O_27
REMARK                            x       y       z     vdW  Elec       q    Type
REMARK                         _______ _______ _______ _____ _____    ______ ____
ROOT
ATOM      1  C   UNL     1       2.810   5.213  18.374  0.00  0.00    +0.000 C 
ATOM      2  C   UNL     1       4.299   4.939  18.581  0.00  0.00    +0.000 C 
ATOM      3  N   UNL     1       5.143   5.810  18.123  0.00  0.00    +0.000 NA
ATOM      4  O   UNL     1       4.708   3.792  19.160  0.00  0.00    +0.000 OA
ATOM      5  C   UNL     1       3.771   2.731  19.474  0.00  0.00    +0.000 C 
ATOM      6  C   UNL     1       2.655   2.691  18.430  0.00  0.00    +0.000 C 
ATOM      7  C   UNL     1       1.883   4.011  18.550  0.00  0.00    +0.000 C 
ENDROOT
BRANCH   1  10
ATOM      8  C   UNL     1       2.253   7.635  18.490  0.00  0.00    +0.000 C 
ATOM      9  O   UNL     1       2.426   7.788  17.285  0.00  0.00    +0.000 OA
ATOM     10  N   UNL     1       2.379   6.411  19.101  0.00  0.00    +0.000 N 
ATOM     11  H   UNL     1       2.432   6.383  20.110  0.00  0.00    +0.000 HD
BRANCH   8  12
ATOM     12  C   UNL     1       1.848   8.769  19.416  0.00  0.00    +0.000 C 
BRANCH  12  14
ATOM     13  C   UNL     1       0.147   8.973  21.286  0.00  0.00    +0.000 C 
ATOM     14  C   UNL     1       1.431   8.309  20.811  0.00  0.00    +0.000 C 
ENDBRANCH  12  14
ENDBRANCH   8  12
ENDBRANCH   1  10
BRANCH   6  15
ATOM     15  O   UNL     1       1.779   1.578  18.608  0.00  0.00    +0.000 OA
ATOM     16  H   UNL     1       2.281   0.752  18.495  0.00  0.00    +0.000 HD
ENDBRANCH   6  15
BRANCH   7  17
ATOM     17  O   UNL     1       0.830   4.071  17.570  0.00  0.00    +0.000 OA
ATOM     18  H   UNL     1       0.659   5.007  17.356  0.00  0.00    +0.000 HD
ENDBRANCH   7  17
BRANCH   3  19
ATOM     19  O   UNL     1       6.477   5.389  18.337  0.00  0.00    +0.000 OA
BRANCH  19  20
ATOM     20  C   UNL     1       7.065   4.925  17.169  0.00  0.00    +0.000 C 
ATOM     21  O   UNL     1       8.119   4.300  17.215  0.00  0.00    +0.000 OA
ATOM     22  N   UNL     1       6.351   5.248  16.037  0.00  0.00    +0.000 N 
ATOM     23  H   UNL     1       5.562   5.847  16.253  0.00  0.00    +0.000 HD
BRANCH  22  24
ATOM     24  C   UNL     1       6.603   4.892  14.706  0.00  0.00    +0.000 A 
ATOM     25  C   UNL     1       7.656   5.422  13.961  0.00  0.00    +0.000 A 
ATOM     26  C   UNL     1       7.863   5.020  12.639  0.00  0.00    +0.000 A 
ATOM     27  C   UNL     1       7.012   4.090  12.048  0.00  0.00    +0.000 A 
ATOM     28  C   UNL     1       5.959   3.553  12.784  0.00  0.00    +0.000 A 
ATOM     29  C   UNL     1       5.760   3.944  14.111  0.00  0.00    +0.000 A 
ENDBRANCH  22  24
ENDBRANCH  19  20
ENDBRANCH   3  19
BRANCH   5  30
ATOM     30  C   UNL     1       4.554   1.412  19.547  0.00  0.00    +0.000 C 
BRANCH  30  31
ATOM     31  O   UNL     1       4.334   0.616  18.384  0.00  0.00    +0.000 OA
ATOM     32  H   UNL     1       3.658  -0.043  18.626  0.00  0.00    +0.000 HD
ENDBRANCH  30  31
ENDBRANCH   5  30
TORSDOF 10
ENDMDL
MODEL 6
REMARK VINA RESULT:      -7.8      0.502      1.054
REMARK  Name = 
REMARK  11 active torsions:
REMARK  status: ('A' for Active; 'I' for Inactive)
REMARK    1  A    between atoms: C_1  and  C_2
REMARK    2  A    between atoms: C_2  and  C_3
REMARK    3  A    between atoms: C_3  and  C_4
REMARK    4  A    between atoms: N_6  and  C_7
REMARK    5  A    between atoms: N_9  and  O_10
REMARK    6  A    between atoms: O_10  and  C_11
REMARK    7  A    between atoms: N_13  and  C_14
REMARK    8  A    between atoms: C_21  and  C_22
REMARK    9  A    between atoms: C_22  and  O_23
REMARK   10  A    between atoms: C_24  and  O_25
REMARK   11  A    between atoms: C_26  and  O_27
REMARK                            x       y       z     vdW  Elec       q    Type
REMARK                         _______ _______ _______ _____ _____    ______ ____
ROOT
ATOM      1  C   UNL     1       5.398   5.056  16.485  0.00  0.00    +0.000 C 
ATOM      2  C   UNL     1       5.557   6.522  16.884  0.00  0.00    +0.000 C 
ATOM      3  N   UNL     1       6.716   7.076  16.702  0.00  0.00    +0.000 NA
ATOM      4  O   UNL     1       4.539   7.184  17.470  0.00  0.00    +0.000 OA
ATOM      5  C   UNL     1       3.324   6.500  17.863  0.00  0.00    +0.000 C 
ATOM      6  C   UNL     1       3.644   5.072  18.304  0.00  0.00    +0.000 C 
ATOM      7  C   UNL     1       4.186   4.335  17.072  0.00  0.00    +0.000 C 
ENDROOT
BRANCH   1  10
ATOM      8  C   UNL     1       6.779   4.626  14.460  0.00  0.00    +0.000 C 
ATOM      9  O   UNL     1       7.800   4.472  15.123  0.00  0.00    +0.000 OA
ATOM     10  N   UNL     1       5.558   4.874  15.038  0.00  0.00    +0.000 N 
ATOM     11  H   UNL     1       4.804   5.197  14.446  0.00  0.00    +0.000 HD
BRANCH   8  12
ATOM     12  C   UNL     1       6.756   4.521  12.945  0.00  0.00    +0.000 C 
BRANCH  12  14
ATOM     13  C   UNL     1       4.785   3.396  11.812  0.00  0.00    +0.000 C 
ATOM     14  C   UNL     1       6.165   3.212  12.425  0.00  0.00    +0.000 C 
ENDBRANCH  12  14
ENDBRANCH   8  12
ENDBRANCH   1  10
BRANCH   6  15
ATOM     15  O   UNL     1       2.506   4.394  18.835  0.00  0.00    +0.000 OA
ATOM     16  H   UNL     1       1.834   5.049  19.095  0.00  0.00    +0.000 HD
ENDBRANCH   6  15
BRANCH   7  17
ATOM     17  O   UNL     1       4.550   2.984  17.412  0.00  0.00    +0.000 OA
ATOM     18  H   UNL     1       4.904   2.549  16.613  0.00  0.00    +0.000 HD
ENDBRANCH   7  17
BRANCH   3  19
ATOM     19  O   UNL     1       6.723   8.410  17.175  0.00  0.00    +0.000 OA
BRANCH  19  20
ATOM     20  C   UNL     1       7.848   8.680  17.940  0.00  0.00    +0.000 C 
ATOM     21  O   UNL     1       8.446   7.769  18.501  0.00  0.00    +0.000 OA
ATOM     22  N   UNL     1       8.168  10.019  17.980  0.00  0.00    +0.000 N 
ATOM     23  H   UNL     1       7.469  10.583  17.511  0.00  0.00    +0.000 HD
BRANCH  22  24
ATOM     24  C   UNL     1       9.263  10.645  18.590  0.00  0.00    +0.000 A 
ATOM     25  C   UNL     1       9.359  10.840  19.968  0.00  0.00    +0.000 A 
ATOM     26  C   UNL     1      10.482  11.463  20.520  0.00  0.00    +0.000 A 
ATOM     27  C   UNL     1      11.515  11.902  19.697  0.00  0.00    +0.000 A 
ATOM     28  C   UNL     1      11.430  11.709  18.321  0.00  0.00    +0.000 A 
ATOM     29  C   UNL     1      10.313  11.075  17.769  0.00  0.00    +0.000 A 
ENDBRANCH  22  24
ENDBRANCH  19  20
ENDBRANCH   3  19
BRANCH   5  30
ATOM     30  C   UNL     1       2.656   7.321  18.976  0.00  0.00    +0.000 C 
BRANCH  30  31
ATOM     31  O   UNL     1       2.012   8.479  18.449  0.00  0.00    +0.000 OA
ATOM     32  H   UNL     1       2.285   8.545  17.515  0.00  0.00    +0.000 HD
ENDBRANCH  30  31
ENDBRANCH   5  30
TORSDOF 10
ENDMDL
MODEL 7
REMARK VINA RESULT:      -7.8      1.044      1.156
REMARK  Name = 
REMARK  11 active torsions:
REMARK  status: ('A' for Active; 'I' for Inactive)
REMARK    1  A    between atoms: C_1  and  C_2
REMARK    2  A    between atoms: C_2  and  C_3
REMARK    3  A    between atoms: C_3  and  C_4
REMARK    4  A    between atoms: N_6  and  C_7
REMARK    5  A    between atoms: N_9  and  O_10
REMARK    6  A    between atoms: O_10  and  C_11
REMARK    7  A    between atoms: N_13  and  C_14
REMARK    8  A    between atoms: C_21  and  C_22
REMARK    9  A    between atoms: C_22  and  O_23
REMARK   10  A    between atoms: C_24  and  O_25
REMARK   11  A    between atoms: C_26  and  O_27
REMARK                            x       y       z     vdW  Elec       q    Type
REMARK                         _______ _______ _______ _____ _____    ______ ____
ROOT
ATOM      1  C   UNL     1       5.966   4.605  17.170  0.00  0.00    +0.000 C 
ATOM      2  C   UNL     1       6.131   6.124  17.135  0.00  0.00    +0.000 C 
ATOM      3  N   UNL     1       7.334   6.598  17.027  0.00  0.00    +0.000 NA
ATOM      4  O   UNL     1       5.062   6.931  17.284  0.00  0.00    +0.000 OA
ATOM      5  C   UNL     1       3.756   6.396  17.617  0.00  0.00    +0.000 C 
ATOM      6  C   UNL     1       3.905   5.171  18.520  0.00  0.00    +0.000 C 
ATOM      7  C   UNL     1       4.625   4.095  17.697  0.00  0.00    +0.000 C 
ENDROOT
BRANCH   1  10
ATOM      8  C   UNL     1       5.844   4.359  14.697  0.00  0.00    +0.000 C 
ATOM      9  O   UNL     1       5.030   5.271  14.592  0.00  0.00    +0.000 OA
ATOM     10  N   UNL     1       6.384   3.991  15.905  0.00  0.00    +0.000 N 
ATOM     11  H   UNL     1       6.880   3.112  15.961  0.00  0.00    +0.000 HD
BRANCH   8  12
ATOM     12  C   UNL     1       6.363   3.575  13.503  0.00  0.00    +0.000 C 
BRANCH  12  14
ATOM     13  C   UNL     1       5.619   2.200  11.505  0.00  0.00    +0.000 C 
ATOM     14  C   UNL     1       5.342   3.415  12.378  0.00  0.00    +0.000 C 
ENDBRANCH  12  14
ENDBRANCH   8  12
ENDBRANCH   1  10
BRANCH   6  15
ATOM     15  O   UNL     1       2.651   4.684  18.995  0.00  0.00    +0.000 OA
ATOM     16  H   UNL     1       2.352   3.954  18.424  0.00  0.00    +0.000 HD
ENDBRANCH   6  15
BRANCH   7  17
ATOM     17  O   UNL     1       4.841   2.912  18.490  0.00  0.00    +0.000 OA
ATOM     18  H   UNL     1       4.231   2.217  18.179  0.00  0.00    +0.000 HD
ENDBRANCH   7  17
BRANCH   3  19
ATOM     19  O   UNL     1       7.329   8.013  17.070  0.00  0.00    +0.000 OA
BRANCH  19  20
ATOM     20  C   UNL     1       8.224   8.504  18.009  0.00  0.00    +0.000 C 
ATOM     21  O   UNL     1       8.673   7.764  18.878  0.00  0.00    +0.000 OA
ATOM     22  N   UNL     1       8.508   9.840  17.841  0.00  0.00    +0.000 N 
ATOM     23  H   UNL     1       7.942  10.252  17.108  0.00  0.00    +0.000 HD
BRANCH  22  24
ATOM     24  C   UNL     1       9.409  10.645  18.551  0.00  0.00    +0.000 A 
ATOM     25  C   UNL     1      10.450  11.344  17.942  0.00  0.00    +0.000 A 
ATOM     26  C   UNL     1      11.312  12.140  18.702  0.00  0.00    +0.000 A 
ATOM     27  C   UNL     1      11.143  12.236  20.080  0.00  0.00    +0.000 A 
ATOM     28  C   UNL     1      10.104  11.545  20.698  0.00  0.00    +0.000 A 
ATOM     29  C   UNL     1       9.234  10.759  19.937  0.00  0.00    +0.000 A 
ENDBRANCH  22  24
ENDBRANCH  19  20
ENDBRANCH   3  19
BRANCH   5  30
ATOM     30  C   UNL     1       2.940   7.516  18.280  0.00  0.00    +0.000 C 
BRANCH  30  31
ATOM     31  O   UNL     1       2.545   8.500  17.327  0.00  0.00    +0.000 OA
ATOM     32  H   UNL     1       1.767   8.140  16.865  0.00  0.00    +0.000 HD
ENDBRANCH  30  31
ENDBRANCH   5  30
TORSDOF 10
ENDMDL
MODEL 8
REMARK VINA RESULT:      -7.6      3.767      6.965
REMARK  Name = 
REMARK  11 active torsions:
REMARK  status: ('A' for Active; 'I' for Inactive)
REMARK    1  A    between atoms: C_1  and  C_2
REMARK    2  A    between atoms: C_2  and  C_3
REMARK    3  A    between atoms: C_3  and  C_4
REMARK    4  A    between atoms: N_6  and  C_7
REMARK    5  A    between atoms: N_9  and  O_10
REMARK    6  A    between atoms: O_10  and  C_11
REMARK    7  A    between atoms: N_13  and  C_14
REMARK    8  A    between atoms: C_21  and  C_22
REMARK    9  A    between atoms: C_22  and  O_23
REMARK   10  A    between atoms: C_24  and  O_25
REMARK   11  A    between atoms: C_26  and  O_27
REMARK                            x       y       z     vdW  Elec       q    Type
REMARK                         _______ _______ _______ _____ _____    ______ ____
ROOT
ATOM      1  C   UNL     1       4.493   4.475  16.737  0.00  0.00    +0.000 C 
ATOM      2  C   UNL     1       4.450   5.794  17.507  0.00  0.00    +0.000 C 
ATOM      3  N   UNL     1       3.471   6.608  17.256  0.00  0.00    +0.000 NA
ATOM      4  O   UNL     1       5.439   6.118  18.363  0.00  0.00    +0.000 OA
ATOM      5  C   UNL     1       6.633   5.303  18.477  0.00  0.00    +0.000 C 
ATOM      6  C   UNL     1       6.982   4.691  17.120  0.00  0.00    +0.000 C 
ATOM      7  C   UNL     1       5.835   3.743  16.749  0.00  0.00    +0.000 C 
ENDROOT
BRANCH   1  10
ATOM      8  C   UNL     1       3.282   2.893  18.228  0.00  0.00    +0.000 C 
ATOM      9  O   UNL     1       4.148   2.960  19.093  0.00  0.00    +0.000 OA
ATOM     10  N   UNL     1       3.345   3.624  17.066  0.00  0.00    +0.000 N 
ATOM     11  H   UNL     1       2.723   3.375  16.309  0.00  0.00    +0.000 HD
BRANCH   8  12
ATOM     12  C   UNL     1       2.040   2.029  18.369  0.00  0.00    +0.000 C 
BRANCH  12  14
ATOM     13  C   UNL     1       0.962   3.273  20.299  0.00  0.00    +0.000 C 
ATOM     14  C   UNL     1       0.811   2.790  18.864  0.00  0.00    +0.000 C 
ENDBRANCH  12  14
ENDBRANCH   8  12
ENDBRANCH   1  10
BRANCH   6  15
ATOM     15  O   UNL     1       8.226   3.992  17.138  0.00  0.00    +0.000 OA
ATOM     16  H   UNL     1       8.352   3.539  16.286  0.00  0.00    +0.000 HD
ENDBRANCH   6  15
BRANCH   7  17
ATOM     17  O   UNL     1       6.068   3.149  15.458  0.00  0.00    +0.000 OA
ATOM     18  H   UNL     1       7.031   3.069  15.324  0.00  0.00    +0.000 HD
ENDBRANCH   7  17
BRANCH   3  19
ATOM     19  O   UNL     1       3.601   7.805  17.999  0.00  0.00    +0.000 OA
BRANCH  19  20
ATOM     20  C   UNL     1       2.410   8.163  18.614  0.00  0.00    +0.000 C 
ATOM     21  O   UNL     1       1.996   7.525  19.576  0.00  0.00    +0.000 OA
ATOM     22  N   UNL     1       1.804   9.252  18.029  0.00  0.00    +0.000 N 
ATOM     23  H   UNL     1       2.295   9.547  17.193  0.00  0.00    +0.000 HD
BRANCH  22  24
ATOM     24  C   UNL     1       0.639   9.926  18.418  0.00  0.00    +0.000 A 
ATOM     25  C   UNL     1      -0.579   9.791  17.752  0.00  0.00    +0.000 A 
ATOM     26  C   UNL     1      -1.710  10.483  18.194  0.00  0.00    +0.000 A 
ATOM     27  C   UNL     1      -1.630  11.321  19.303  0.00  0.00    +0.000 A 
ATOM     28  C   UNL     1      -0.420  11.459  19.977  0.00  0.00    +0.000 A 
ATOM     29  C   UNL     1       0.709  10.758  19.544  0.00  0.00    +0.000 A 
ENDBRANCH  22  24
ENDBRANCH  19  20
ENDBRANCH   3  19
BRANCH   5  30
ATOM     30  C   UNL     1       7.760   6.188  19.029  0.00  0.00    +0.000 C 
BRANCH  30  31
ATOM     31  O   UNL     1       8.357   5.603  20.184  0.00  0.00    +0.000 OA
ATOM     32  H   UNL     1       7.659   5.559  20.863  0.00  0.00    +0.000 HD
ENDBRANCH  30  31
ENDBRANCH   5  30
TORSDOF 10
ENDMDL
MODEL 9
REMARK VINA RESULT:      -7.6      3.790      7.174
REMARK  Name = 
REMARK  11 active torsions:
REMARK  status: ('A' for Active; 'I' for Inactive)
REMARK    1  A    between atoms: C_1  and  C_2
REMARK    2  A    between atoms: C_2  and  C_3
REMARK    3  A    between atoms: C_3  and  C_4
REMARK    4  A    between atoms: N_6  and  C_7
REMARK    5  A    between atoms: N_9  and  O_10
REMARK    6  A    between atoms: O_10  and  C_11
REMARK    7  A    between atoms: N_13  and  C_14
REMARK    8  A    between atoms: C_21  and  C_22
REMARK    9  A    between atoms: C_22  and  O_23
REMARK   10  A    between atoms: C_24  and  O_25
REMARK   11  A    between atoms: C_26  and  O_27
REMARK                            x       y       z     vdW  Elec       q    Type
REMARK                         _______ _______ _______ _____ _____    ______ ____
ROOT
ATOM      1  C   UNL     1       3.703   4.648  17.691  0.00  0.00    +0.000 C 
ATOM      2  C   UNL     1       3.757   6.171  17.804  0.00  0.00    +0.000 C 
ATOM      3  N   UNL     1       2.679   6.836  17.523  0.00  0.00    +0.000 NA
ATOM      4  O   UNL     1       4.911   6.792  18.117  0.00  0.00    +0.000 OA
ATOM      5  C   UNL     1       6.157   6.058  18.218  0.00  0.00    +0.000 C 
ATOM      6  C   UNL     1       6.171   4.906  17.213  0.00  0.00    +0.000 C 
ATOM      7  C   UNL     1       5.055   3.938  17.627  0.00  0.00    +0.000 C 
ENDROOT
BRANCH   1  10
ATOM      8  C   UNL     1       1.960   3.003  18.362  0.00  0.00    +0.000 C 
ATOM      9  O   UNL     1       2.015   2.423  17.283  0.00  0.00    +0.000 OA
ATOM     10  N   UNL     1       2.770   4.071  18.665  0.00  0.00    +0.000 N 
ATOM     11  H   UNL     1       2.540   4.633  19.473  0.00  0.00    +0.000 HD
BRANCH   8  12
ATOM     12  C   UNL     1       1.023   2.579  19.480  0.00  0.00    +0.000 C 
BRANCH  12  14
ATOM     13  C   UNL     1       1.882   2.719  21.863  0.00  0.00    +0.000 C 
ATOM     14  C   UNL     1       1.141   3.433  20.742  0.00  0.00    +0.000 C 
ENDBRANCH  12  14
ENDBRANCH   8  12
ENDBRANCH   1  10
BRANCH   6  15
ATOM     15  O   UNL     1       7.428   4.232  17.169  0.00  0.00    +0.000 OA
ATOM     16  H   UNL     1       7.418   3.491  17.800  0.00  0.00    +0.000 HD
ENDBRANCH   6  15
BRANCH   7  17
ATOM     17  O   UNL     1       4.974   2.836  16.704  0.00  0.00    +0.000 OA
ATOM     18  H   UNL     1       4.973   2.005  17.215  0.00  0.00    +0.000 HD
ENDBRANCH   7  17
BRANCH   3  19
ATOM     19  O   UNL     1       2.902   8.230  17.615  0.00  0.00    +0.000 OA
BRANCH  19  20
ATOM     20  C   UNL     1       1.868   8.876  18.277  0.00  0.00    +0.000 C 
ATOM     21  O   UNL     1       1.002   9.466  17.640  0.00  0.00    +0.000 OA
ATOM     22  N   UNL     1       1.952   8.771  19.647  0.00  0.00    +0.000 N 
ATOM     23  H   UNL     1       2.808   8.311  19.933  0.00  0.00    +0.000 HD
BRANCH  22  24
ATOM     24  C   UNL     1       1.058   9.233  20.621  0.00  0.00    +0.000 A 
ATOM     25  C   UNL     1       0.393   8.387  21.509  0.00  0.00    +0.000 A 
ATOM     26  C   UNL     1      -0.480   8.908  22.467  0.00  0.00    +0.000 A 
ATOM     27  C   UNL     1      -0.702  10.280  22.541  0.00  0.00    +0.000 A 
ATOM     28  C   UNL     1      -0.041  11.134  21.661  0.00  0.00    +0.000 A 
ATOM     29  C   UNL     1       0.843  10.615  20.711  0.00  0.00    +0.000 A 
ENDBRANCH  22  24
ENDBRANCH  19  20
ENDBRANCH   3  19
BRANCH   5  30
ATOM     30  C   UNL     1       7.310   7.046  17.992  0.00  0.00    +0.000 C 
BRANCH  30  31
ATOM     31  O   UNL     1       8.360   6.840  18.935  0.00  0.00    +0.000 OA
ATOM     32  H   UNL     1       8.959   6.180  18.541  0.00  0.00    +0.000 HD
ENDBRANCH  30  31
ENDBRANCH   5  30
TORSDOF 10
ENDMDL
