MODEL 1
REMARK VINA RESULT:      -7.6      0.000      0.000
REMARK  Name = 
REMARK  8 active torsions:
REMARK  status: ('A' for Active; 'I' for Inactive)
REMARK    1  A    between atoms: C_1  and  O_2
REMARK    2  A    between atoms: O_2  and  N_3
REMARK    3  A    between atoms: C_4  and  C_5
REMARK    4  A    between atoms: C_4  and  C_20
REMARK    5  A    between atoms: C_10  and  C_11
REMARK    6  A    between atoms: C_11  and  O_12
REMARK    7  A    between atoms: O_12  and  C_13
REMARK    8  A    between atoms: N_24  and  C_25
REMARK                            x       y       z     vdW  Elec       q    Type
REMARK                         _______ _______ _______ _____ _____    ______ ____
ROOT
ATOM      1  C   UNL     1       3.809   5.939  18.618  0.00  0.00    +0.000 A 
ATOM      2  C   UNL     1       2.925   6.114  19.712  0.00  0.00    +0.000 A 
ATOM      3  C   UNL     1       2.119   7.243  19.853  0.00  0.00    +0.000 A 
ATOM      4  C   UNL     1       2.191   8.253  18.912  0.00  0.00    +0.000 A 
ATOM      5  C   UNL     1       3.046   8.114  17.823  0.00  0.00    +0.000 A 
ATOM      6  C   UNL     1       3.858   6.967  17.637  0.00  0.00    +0.000 A 
ENDROOT
BRANCH   1   8
ATOM      7  N   UNL     1       5.863   4.521  19.051  0.00  0.00    +0.000 NA
ATOM      8  C   UNL     1       4.629   4.651  18.649  0.00  0.00    +0.000 C 
BRANCH   8   9
ATOM      9  C   UNL     1       3.953   3.367  18.353  0.00  0.00    +0.000 A 
ATOM     10  N   UNL     1       3.189   3.151  17.293  0.00  0.00    +0.000 NA
ATOM     11  C   UNL     1       2.621   1.918  17.486  0.00  0.00    +0.000 A 
ATOM     12  C   UNL     1       3.044   1.362  18.667  0.00  0.00    +0.000 A 
ATOM     13  N   UNL     1       3.906   2.278  19.200  0.00  0.00    +0.000 N 
ATOM     14  C   UNL     1       4.536   2.164  20.496  0.00  0.00    +0.000 C 
ENDBRANCH   8   9
BRANCH   7  16
ATOM     15  C   UNL     1       7.740   5.830  19.257  0.00  0.00    +0.000 C 
ATOM     16  O   UNL     1       6.379   5.669  19.622  0.00  0.00    +0.000 OA
ENDBRANCH   7  16
ENDBRANCH   1   8
BRANCH   6  17
ATOM     17  C   UNL     1       4.661   6.948  16.343  0.00  0.00    +0.000 C 
BRANCH  17  18
ATOM     18  O   UNL     1       5.831   6.124  16.380  0.00  0.00    +0.000 OA
BRANCH  18  19
ATOM     19  C   UNL     1       6.166   5.385  15.277  0.00  0.00    +0.000 A 
ATOM     20  C   UNL     1       5.175   4.536  14.789  0.00  0.00    +0.000 A 
ATOM     21  C   UNL     1       5.437   3.786  13.644  0.00  0.00    +0.000 A 
ATOM     22  C   UNL     1       6.677   3.911  13.033  0.00  0.00    +0.000 A 
ATOM     23 CL   UNL     1       7.053   3.007  11.625  0.00  0.00    +0.000 Cl
ATOM     24  C   UNL     1       7.600   4.787  13.587  0.00  0.00    +0.000 A 
ATOM     25  N   UNL     1       7.368   5.540  14.691  0.00  0.00    +0.000 NA
ENDBRANCH  18  19
ENDBRANCH  17  18
ENDBRANCH   6  17
TORSDOF 6
ENDMDL
MODEL 2
REMARK VINA RESULT:      -7.6      3.409      5.623
REMARK  Name = 
REMARK  8 active torsions:
REMARK  status: ('A' for Active; 'I' for Inactive)
REMARK    1  A    between atoms: C_1  and  O_2
REMARK    2  A    between atoms: O_2  and  N_3
REMARK    3  A    between atoms: C_4  and  C_5
REMARK    4  A    between atoms: C_4  and  C_20
REMARK    5  A    between atoms: C_10  and  C_11
REMARK    6  A    between atoms: C_11  and  O_12
REMARK    7  A    between atoms: O_12  and  C_13
REMARK    8  A    between atoms: N_24  and  C_25
REMARK                            x       y       z     vdW  Elec       q    Type
REMARK                         _______ _______ _______ _____ _____    ______ ____
ROOT
ATOM      1  C   UNL     1       5.299   4.708  17.058  0.00  0.00    +0.000 A 
ATOM      2  C   UNL     1       5.791   3.750  16.137  0.00  0.00    +0.000 A 
ATOM      3  C   UNL     1       5.934   4.022  14.776  0.00  0.00    +0.000 A 
ATOM      4  C   UNL     1       5.563   5.260  14.286  0.00  0.00    +0.000 A 
ATOM      5  C   UNL     1       5.079   6.226  15.164  0.00  0.00    +0.000 A 
ATOM      6  C   UNL     1       4.946   5.990  16.555  0.00  0.00    +0.000 A 
ENDROOT
BRANCH   1   8
ATOM      7  N   UNL     1       6.160   4.106  19.364  0.00  0.00    +0.000 NA
ATOM      8  C   UNL     1       5.188   4.218  18.500  0.00  0.00    +0.000 C 
BRANCH   8   9
ATOM      9  C   UNL     1       3.842   3.986  19.075  0.00  0.00    +0.000 A 
ATOM     10  N   UNL     1       3.247   4.797  19.936  0.00  0.00    +0.000 NA
ATOM     11  C   UNL     1       2.118   4.139  20.351  0.00  0.00    +0.000 A 
ATOM     12  C   UNL     1       2.008   2.918  19.735  0.00  0.00    +0.000 A 
ATOM     13  N   UNL     1       3.095   2.838  18.911  0.00  0.00    +0.000 N 
ATOM     14  C   UNL     1       3.450   1.680  18.121  0.00  0.00    +0.000 C 
ENDBRANCH   8   9
BRANCH   7  16
ATOM     15  C   UNL     1       7.647   5.843  19.581  0.00  0.00    +0.000 C 
ATOM     16  O   UNL     1       7.359   4.626  18.913  0.00  0.00    +0.000 OA
ENDBRANCH   7  16
ENDBRANCH   1   8
BRANCH   6  17
ATOM     17  C   UNL     1       4.487   7.189  17.373  0.00  0.00    +0.000 C 
BRANCH  17  18
ATOM     18  O   UNL     1       3.254   7.772  16.936  0.00  0.00    +0.000 OA
BRANCH  18  19
ATOM     19  C   UNL     1       2.457   8.415  17.846  0.00  0.00    +0.000 A 
ATOM     20  C   UNL     1       2.245   7.747  19.049  0.00  0.00    +0.000 A 
ATOM     21  C   UNL     1       1.477   8.365  20.034  0.00  0.00    +0.000 A 
ATOM     22  C   UNL     1       0.949   9.623  19.778  0.00  0.00    +0.000 A 
ATOM     23 CL   UNL     1      -0.007  10.426  20.953  0.00  0.00    +0.000 Cl
ATOM     24  C   UNL     1       1.219  10.214  18.551  0.00  0.00    +0.000 A 
ATOM     25  N   UNL     1       1.975   9.643  17.581  0.00  0.00    +0.000 NA
ENDBRANCH  18  19
ENDBRANCH  17  18
ENDBRANCH   6  17
TORSDOF 6
ENDMDL
MODEL 3
REMARK VINA RESULT:      -7.4      2.251      3.993
REMARK  Name = 
REMARK  8 active torsions:
REMARK  status: ('A' for Active; 'I' for Inactive)
REMARK    1  A    between atoms: C_1  and  O_2
REMARK    2  A    between atoms: O_2  and  N_3
REMARK    3  A    between atoms: C_4  and  C_5
REMARK    4  A    between atoms: C_4  and  C_20
REMARK    5  A    between atoms: C_10  and  C_11
REMARK    6  A    between atoms: C_11  and  O_12
REMARK    7  A    between atoms: O_12  and  C_13
REMARK    8  A    between atoms: N_24  and  C_25
REMARK                            x       y       z     vdW  Elec       q    Type
REMARK                         _______ _______ _______ _____ _____    ______ ____
ROOT
ATOM      1  C   UNL     1       2.539   4.701  19.270  0.00  0.00    +0.000 A 
ATOM      2  C   UNL     1       1.857   4.420  20.480  0.00  0.00    +0.000 A 
ATOM      3  C   UNL     1       1.116   3.254  20.671  0.00  0.00    +0.000 A 
ATOM      4  C   UNL     1       1.009   2.338  19.641  0.00  0.00    +0.000 A 
ATOM      5  C   UNL     1       1.669   2.581  18.439  0.00  0.00    +0.000 A 
ATOM      6  C   UNL     1       2.451   3.742  18.224  0.00  0.00    +0.000 A 
ENDROOT
BRANCH   1   8
ATOM      7  N   UNL     1       4.555   6.228  19.409  0.00  0.00    +0.000 NA
ATOM      8  C   UNL     1       3.275   6.038  19.240  0.00  0.00    +0.000 C 
BRANCH   8   9
ATOM      9  C   UNL     1       2.536   7.252  18.824  0.00  0.00    +0.000 A 
ATOM     10  N   UNL     1       2.636   7.816  17.630  0.00  0.00    +0.000 NA
ATOM     11  C   UNL     1       1.943   8.997  17.714  0.00  0.00    +0.000 A 
ATOM     12  C   UNL     1       1.403   9.159  18.965  0.00  0.00    +0.000 A 
ATOM     13  N   UNL     1       1.765   8.039  19.656  0.00  0.00    +0.000 N 
ATOM     14  C   UNL     1       1.494   7.807  21.057  0.00  0.00    +0.000 C 
ENDBRANCH   8   9
BRANCH   7  16
ATOM     15  C   UNL     1       6.670   5.336  19.484  0.00  0.00    +0.000 C 
ATOM     16  O   UNL     1       5.281   5.054  19.481  0.00  0.00    +0.000 OA
ENDBRANCH   7  16
ENDBRANCH   1   8
BRANCH   6  17
ATOM     17  C   UNL     1       3.172   3.796  16.883  0.00  0.00    +0.000 C 
BRANCH  17  18
ATOM     18  O   UNL     1       4.536   3.364  16.921  0.00  0.00    +0.000 OA
BRANCH  18  19
ATOM     19  C   UNL     1       5.418   3.846  15.992  0.00  0.00    +0.000 A 
ATOM     20  C   UNL     1       5.045   3.691  14.660  0.00  0.00    +0.000 A 
ATOM     21  C   UNL     1       5.879   4.196  13.665  0.00  0.00    +0.000 A 
ATOM     22  C   UNL     1       7.055   4.834  14.039  0.00  0.00    +0.000 A 
ATOM     23 CL   UNL     1       8.119   5.470  12.855  0.00  0.00    +0.000 Cl
ATOM     24  C   UNL     1       7.341   4.947  15.392  0.00  0.00    +0.000 A 
ATOM     25  N   UNL     1       6.541   4.479  16.382  0.00  0.00    +0.000 NA
ENDBRANCH  18  19
ENDBRANCH  17  18
ENDBRANCH   6  17
TORSDOF 6
ENDMDL
MODEL 4
REMARK VINA RESULT:      -7.4      3.355      5.709
REMARK  Name = 
REMARK  8 active torsions:
REMARK  status: ('A' for Active; 'I' for Inactive)
REMARK    1  A    between atoms: C_1  and  O_2
REMARK    2  A    between atoms: O_2  and  N_3
REMARK    3  A    between atoms: C_4  and  C_5
REMARK    4  A    between atoms: C_4  and  C_20
REMARK    5  A    between atoms: C_10  and  C_11
REMARK    6  A    between atoms: C_11  and  O_12
REMARK    7  A    between atoms: O_12  and  C_13
REMARK    8  A    between atoms: N_24  and  C_25
REMARK                            x       y       z     vdW  Elec       q    Type
REMARK                         _______ _______ _______ _____ _____    ______ ____
ROOT
ATOM      1  C   UNL     1       5.153   4.681  17.027  0.00  0.00    +0.000 A 
ATOM      2  C   UNL     1       5.674   3.766  16.078  0.00  0.00    +0.000 A 
ATOM      3  C   UNL     1       5.869   4.103  14.739  0.00  0.00    +0.000 A 
ATOM      4  C   UNL     1       5.523   5.366  14.296  0.00  0.00    +0.000 A 
ATOM      5  C   UNL     1       5.011   6.291  15.202  0.00  0.00    +0.000 A 
ATOM      6  C   UNL     1       4.825   5.988  16.574  0.00  0.00    +0.000 A 
ENDROOT
BRANCH   1   8
ATOM      7  N   UNL     1       5.918   3.992  19.341  0.00  0.00    +0.000 NA
ATOM      8  C   UNL     1       4.986   4.122  18.438  0.00  0.00    +0.000 C 
BRANCH   8   9
ATOM      9  C   UNL     1       3.620   3.833  18.935  0.00  0.00    +0.000 A 
ATOM     10  N   UNL     1       2.873   4.693  19.611  0.00  0.00    +0.000 NA
ATOM     11  C   UNL     1       1.778   3.984  20.034  0.00  0.00    +0.000 A 
ATOM     12  C   UNL     1       1.842   2.681  19.608  0.00  0.00    +0.000 A 
ATOM     13  N   UNL     1       3.004   2.599  18.894  0.00  0.00    +0.000 N 
ATOM     14  C   UNL     1       3.539   1.383  18.323  0.00  0.00    +0.000 C 
ENDBRANCH   8   9
BRANCH   7  16
ATOM     15  C   UNL     1       7.298   5.805  19.628  0.00  0.00    +0.000 C 
ATOM     16  O   UNL     1       7.123   4.559  18.974  0.00  0.00    +0.000 OA
ENDBRANCH   7  16
ENDBRANCH   1   8
BRANCH   6  17
ATOM     17  C   UNL     1       4.341   7.149  17.432  0.00  0.00    +0.000 C 
BRANCH  17  18
ATOM     18  O   UNL     1       2.962   7.488  17.255  0.00  0.00    +0.000 OA
BRANCH  18  19
ATOM     19  C   UNL     1       2.317   8.204  18.227  0.00  0.00    +0.000 A 
ATOM     20  C   UNL     1       1.797   9.435  17.833  0.00  0.00    +0.000 A 
ATOM     21  C   UNL     1       1.092  10.195  18.765  0.00  0.00    +0.000 A 
ATOM     22  C   UNL     1       0.937   9.699  20.052  0.00  0.00    +0.000 A 
ATOM     23 CL   UNL     1       0.083  10.596  21.238  0.00  0.00    +0.000 Cl
ATOM     24  C   UNL     1       1.485   8.459  20.351  0.00  0.00    +0.000 A 
ATOM     25  N   UNL     1       2.161   7.691  19.462  0.00  0.00    +0.000 NA
ENDBRANCH  18  19
ENDBRANCH  17  18
ENDBRANCH   6  17
TORSDOF 6
ENDMDL
MODEL 5
REMARK VINA RESULT:      -7.4      5.498      8.062
REMARK  Name = 
REMARK  8 active torsions:
REMARK  status: ('A' for Active; 'I' for Inactive)
REMARK    1  A    between atoms: C_1  and  O_2
REMARK    2  A    between atoms: O_2  and  N_3
REMARK    3  A    between atoms: C_4  and  C_5
REMARK    4  A    between atoms: C_4  and  C_20
REMARK    5  A    between atoms: C_10  and  C_11
REMARK    6  A    between atoms: C_11  and  O_12
REMARK    7  A    between atoms: O_12  and  C_13
REMARK    8  A    between atoms: N_24  and  C_25
REMARK                            x       y       z     vdW  Elec       q    Type
REMARK                         _______ _______ _______ _____ _____    ______ ____
ROOT
ATOM      1  C   UNL     1      -0.203  10.568  20.556  0.00  0.00    +0.000 A 
ATOM      2  C   UNL     1      -0.822  11.160  21.684  0.00  0.00    +0.000 A 
ATOM      3  C   UNL     1      -0.710  10.626  22.969  0.00  0.00    +0.000 A 
ATOM      4  C   UNL     1       0.008   9.461  23.162  0.00  0.00    +0.000 A 
ATOM      5  C   UNL     1       0.632   8.854  22.076  0.00  0.00    +0.000 A 
ATOM      6  C   UNL     1       0.559   9.385  20.764  0.00  0.00    +0.000 A 
ENDROOT
BRANCH   1   8
ATOM      7  N   UNL     1       0.289  12.194  18.677  0.00  0.00    +0.000 NA
ATOM      8  C   UNL     1      -0.461  11.280  19.230  0.00  0.00    +0.000 C 
BRANCH   8   9
ATOM      9  C   UNL     1      -1.574  10.813  18.372  0.00  0.00    +0.000 A 
ATOM     10  N   UNL     1      -1.432   9.979  17.353  0.00  0.00    +0.000 NA
ATOM     11  C   UNL     1      -2.650   9.948  16.723  0.00  0.00    +0.000 A 
ATOM     12  C   UNL     1      -3.554  10.759  17.363  0.00  0.00    +0.000 A 
ATOM     13  N   UNL     1      -2.869  11.287  18.419  0.00  0.00    +0.000 N 
ATOM     14  C   UNL     1      -3.394  12.277  19.333  0.00  0.00    +0.000 C 
ENDBRANCH   8   9
BRANCH   7  16
ATOM     15  C   UNL     1       1.611  13.749  19.730  0.00  0.00    +0.000 C 
ATOM     16  O   UNL     1       1.488  12.393  19.333  0.00  0.00    +0.000 OA
ENDBRANCH   7  16
ENDBRANCH   1   8
BRANCH   6  17
ATOM     17  C   UNL     1       1.377   8.639  19.719  0.00  0.00    +0.000 C 
BRANCH  17  18
ATOM     18  O   UNL     1       2.236   7.624  20.247  0.00  0.00    +0.000 OA
BRANCH  18  19
ATOM     19  C   UNL     1       2.104   6.335  19.803  0.00  0.00    +0.000 A 
ATOM     20  C   UNL     1       1.571   5.428  20.716  0.00  0.00    +0.000 A 
ATOM     21  C   UNL     1       1.372   4.109  20.313  0.00  0.00    +0.000 A 
ATOM     22  C   UNL     1       1.716   3.746  19.017  0.00  0.00    +0.000 A 
ATOM     23 CL   UNL     1       1.496   2.135  18.473  0.00  0.00    +0.000 Cl
ATOM     24  C   UNL     1       2.235   4.721  18.176  0.00  0.00    +0.000 A 
ATOM     25  N   UNL     1       2.425   6.014  18.535  0.00  0.00    +0.000 NA
ENDBRANCH  18  19
ENDBRANCH  17  18
ENDBRANCH   6  17
TORSDOF 6
ENDMDL
MODEL 6
REMARK VINA RESULT:      -7.4      5.487      8.014
REMARK  Name = 
REMARK  8 active torsions:
REMARK  status: ('A' for Active; 'I' for Inactive)
REMARK    1  A    between atoms: C_1  and  O_2
REMARK    2  A    between atoms: O_2  and  N_3
REMARK    3  A    between atoms: C_4  and  C_5
REMARK    4  A    between atoms: C_4  and  C_20
REMARK    5  A    between atoms: C_10  and  C_11
REMARK    6  A    between atoms: C_11  and  O_12
REMARK    7  A    between atoms: O_12  and  C_13
REMARK    8  A    between atoms: N_24  and  C_25
REMARK                            x       y       z     vdW  Elec       q    Type
REMARK                         _______ _______ _______ _____ _____    ______ ____
ROOT
ATOM      1  C   UNL     1      -0.272  10.602  20.570  0.00  0.00    +0.000 A 
ATOM      2  C   UNL     1      -0.918  11.177  21.693  0.00  0.00    +0.000 A 
ATOM      3  C   UNL     1      -0.799  10.648  22.979  0.00  0.00    +0.000 A 
ATOM      4  C   UNL     1      -0.047   9.506  23.179  0.00  0.00    +0.000 A 
ATOM      5  C   UNL     1       0.604   8.918  22.099  0.00  0.00    +0.000 A 
ATOM      6  C   UNL     1       0.525   9.445  20.786  0.00  0.00    +0.000 A 
ENDROOT
BRANCH   1   8
ATOM      7  N   UNL     1       0.190  12.231  18.686  0.00  0.00    +0.000 NA
ATOM      8  C   UNL     1      -0.541  11.305  19.241  0.00  0.00    +0.000 C 
BRANCH   8   9
ATOM      9  C   UNL     1      -1.643  10.812  18.382  0.00  0.00    +0.000 A 
ATOM     10  N   UNL     1      -1.481   9.980  17.364  0.00  0.00    +0.000 NA
ATOM     11  C   UNL     1      -2.698   9.921  16.733  0.00  0.00    +0.000 A 
ATOM     12  C   UNL     1      -3.620  10.712  17.371  0.00  0.00    +0.000 A 
ATOM     13  N   UNL     1      -2.948  11.257  18.428  0.00  0.00    +0.000 N 
ATOM     14  C   UNL     1      -3.496  12.236  19.340  0.00  0.00    +0.000 C 
ENDBRANCH   8   9
BRANCH   7  16
ATOM     15  C   UNL     1       2.326  13.047  18.463  0.00  0.00    +0.000 C 
ATOM     16  O   UNL     1       1.384  12.458  19.344  0.00  0.00    +0.000 OA
ENDBRANCH   7  16
ENDBRANCH   1   8
BRANCH   6  17
ATOM     17  C   UNL     1       1.374   8.723  19.748  0.00  0.00    +0.000 C 
BRANCH  17  18
ATOM     18  O   UNL     1       2.212   7.690  20.277  0.00  0.00    +0.000 OA
BRANCH  18  19
ATOM     19  C   UNL     1       2.080   6.412  19.804  0.00  0.00    +0.000 A 
ATOM     20  C   UNL     1       2.431   6.217  18.470  0.00  0.00    +0.000 A 
ATOM     21  C   UNL     1       2.360   4.931  17.937  0.00  0.00    +0.000 A 
ATOM     22  C   UNL     1       1.938   3.891  18.755  0.00  0.00    +0.000 A 
ATOM     23 CL   UNL     1       1.828   2.291  18.149  0.00  0.00    +0.000 Cl
ATOM     24  C   UNL     1       1.616   4.180  20.074  0.00  0.00    +0.000 A 
ATOM     25  N   UNL     1       1.690   5.418  20.623  0.00  0.00    +0.000 NA
ENDBRANCH  18  19
ENDBRANCH  17  18
ENDBRANCH   6  17
TORSDOF 6
ENDMDL
MODEL 7
REMARK VINA RESULT:      -7.3      3.347      5.656
REMARK  Name = 
REMARK  8 active torsions:
REMARK  status: ('A' for Active; 'I' for Inactive)
REMARK    1  A    between atoms: C_1  and  O_2
REMARK    2  A    between atoms: O_2  and  N_3
REMARK    3  A    between atoms: C_4  and  C_5
REMARK    4  A    between atoms: C_4  and  C_20
REMARK    5  A    between atoms: C_10  and  C_11
REMARK    6  A    between atoms: C_11  and  O_12
REMARK    7  A    between atoms: O_12  and  C_13
REMARK    8  A    between atoms: N_24  and  C_25
REMARK                            x       y       z     vdW  Elec       q    Type
REMARK                         _______ _______ _______ _____ _____    ______ ____
ROOT
ATOM      1  C   UNL     1       6.045   5.338  17.709  0.00  0.00    +0.000 A 
ATOM      2  C   UNL     1       7.292   5.094  18.337  0.00  0.00    +0.000 A 
ATOM      3  C   UNL     1       8.203   6.114  18.617  0.00  0.00    +0.000 A 
ATOM      4  C   UNL     1       7.905   7.413  18.252  0.00  0.00    +0.000 A 
ATOM      5  C   UNL     1       6.687   7.688  17.636  0.00  0.00    +0.000 A 
ATOM      6  C   UNL     1       5.730   6.680  17.362  0.00  0.00    +0.000 A 
ENDROOT
BRANCH   1   8
ATOM      7  N   UNL     1       5.185   3.357  16.385  0.00  0.00    +0.000 NA
ATOM      8  C   UNL     1       5.194   4.095  17.461  0.00  0.00    +0.000 C 
BRANCH   8   9
ATOM      9  C   UNL     1       4.399   3.538  18.580  0.00  0.00    +0.000 A 
ATOM     10  N   UNL     1       4.920   2.981  19.663  0.00  0.00    +0.000 NA
ATOM     11  C   UNL     1       3.864   2.442  20.351  0.00  0.00    +0.000 A 
ATOM     12  C   UNL     1       2.681   2.675  19.696  0.00  0.00    +0.000 A 
ATOM     13  N   UNL     1       3.027   3.389  18.585  0.00  0.00    +0.000 N 
ATOM     14  C   UNL     1       2.111   3.786  17.539  0.00  0.00    +0.000 C 
ENDBRANCH   8   9
BRANCH   7  16
ATOM     15  C   UNL     1       5.577   4.318  14.336  0.00  0.00    +0.000 C 
ATOM     16  O   UNL     1       6.163   3.704  15.472  0.00  0.00    +0.000 OA
ENDBRANCH   7  16
ENDBRANCH   1   8
BRANCH   6  17
ATOM     17  C   UNL     1       4.420   7.178  16.767  0.00  0.00    +0.000 C 
BRANCH  17  18
ATOM     18  O   UNL     1       3.251   6.807  17.504  0.00  0.00    +0.000 OA
BRANCH  18  19
ATOM     19  C   UNL     1       2.506   7.779  18.115  0.00  0.00    +0.000 A 
ATOM     20  C   UNL     1       2.161   7.537  19.443  0.00  0.00    +0.000 A 
ATOM     21  C   UNL     1       1.438   8.506  20.137  0.00  0.00    +0.000 A 
ATOM     22  C   UNL     1       1.086   9.676  19.478  0.00  0.00    +0.000 A 
ATOM     23 CL   UNL     1       0.193  10.898  20.283  0.00  0.00    +0.000 Cl
ATOM     24  C   UNL     1       1.480   9.832  18.156  0.00  0.00    +0.000 A 
ATOM     25  N   UNL     1       2.196   8.914  17.461  0.00  0.00    +0.000 NA
ENDBRANCH  18  19
ENDBRANCH  17  18
ENDBRANCH   6  17
TORSDOF 6
ENDMDL
MODEL 8
REMARK VINA RESULT:      -7.3      3.315      5.666
REMARK  Name = 
REMARK  8 active torsions:
REMARK  status: ('A' for Active; 'I' for Inactive)
REMARK    1  A    between atoms: C_1  and  O_2
REMARK    2  A    between atoms: O_2  and  N_3
REMARK    3  A    between atoms: C_4  and  C_5
REMARK    4  A    between atoms: C_4  and  C_20
REMARK    5  A    between atoms: C_10  and  C_11
REMARK    6  A    between atoms: C_11  and  O_12
REMARK    7  A    between atoms: O_12  and  C_13
REMARK    8  A    between atoms: N_24  and  C_25
REMARK                            x       y       z     vdW  Elec       q    Type
REMARK                         _______ _______ _______ _____ _____    ______ ____
ROOT
ATOM      1  C   UNL     1       5.332   4.755  17.290  0.00  0.00    +0.000 A 
ATOM      2  C   UNL     1       5.997   3.895  16.382  0.00  0.00    +0.000 A 
ATOM      3  C   UNL     1       6.227   4.242  15.050  0.00  0.00    +0.000 A 
ATOM      4  C   UNL     1       5.772   5.457  14.574  0.00  0.00    +0.000 A 
ATOM      5  C   UNL     1       5.117   6.329  15.440  0.00  0.00    +0.000 A 
ATOM      6  C   UNL     1       4.892   6.017  16.804  0.00  0.00    +0.000 A 
ENDROOT
BRANCH   1   8
ATOM      7  N   UNL     1       5.790   4.558  19.773  0.00  0.00    +0.000 NA
ATOM      8  C   UNL     1       5.149   4.193  18.697  0.00  0.00    +0.000 C 
BRANCH   8   9
ATOM      9  C   UNL     1       4.038   3.247  18.951  0.00  0.00    +0.000 A 
ATOM     10  N   UNL     1       3.875   2.097  18.313  0.00  0.00    +0.000 NA
ATOM     11  C   UNL     1       2.650   1.621  18.707  0.00  0.00    +0.000 A 
ATOM     12  C   UNL     1       2.057   2.476  19.602  0.00  0.00    +0.000 A 
ATOM     13  N   UNL     1       2.953   3.494  19.767  0.00  0.00    +0.000 N 
ATOM     14  C   UNL     1       2.719   4.680  20.558  0.00  0.00    +0.000 C 
ENDBRANCH   8   9
BRANCH   7  16
ATOM     15  C   UNL     1       7.965   5.290  19.673  0.00  0.00    +0.000 C 
ATOM     16  O   UNL     1       6.600   5.662  19.583  0.00  0.00    +0.000 OA
ENDBRANCH   7  16
ENDBRANCH   1   8
BRANCH   6  17
ATOM     17  C   UNL     1       4.241   7.126  17.620  0.00  0.00    +0.000 C 
BRANCH  17  18
ATOM     18  O   UNL     1       2.850   6.929  17.892  0.00  0.00    +0.000 OA
BRANCH  18  19
ATOM     19  C   UNL     1       2.145   7.916  18.528  0.00  0.00    +0.000 A 
ATOM     20  C   UNL     1       1.599   8.900  17.708  0.00  0.00    +0.000 A 
ATOM     21  C   UNL     1       0.835   9.910  18.288  0.00  0.00    +0.000 A 
ATOM     22  C   UNL     1       0.649   9.901  19.664  0.00  0.00    +0.000 A 
ATOM     23 CL   UNL     1      -0.279  11.123  20.430  0.00  0.00    +0.000 Cl
ATOM     24  C   UNL     1       1.226   8.876  20.400  0.00  0.00    +0.000 A 
ATOM     25  N   UNL     1       1.961   7.872  19.861  0.00  0.00    +0.000 NA
ENDBRANCH  18  19
ENDBRANCH  17  18
ENDBRANCH   6  17
TORSDOF 6
ENDMDL
MODEL 9
REMARK VINA RESULT:      -7.2      3.862      6.811
REMARK  Name = 
REMARK  8 active torsions:
REMARK  status: ('A' for Active; 'I' for Inactive)
REMARK    1  A    between atoms: C_1  and  O_2
REMARK    2  A    between atoms: O_2  and  N_3
REMARK    3  A    between atoms: C_4  and  C_5
REMARK    4  A    between atoms: C_4  and  C_20
REMARK    5  A    between atoms: C_10  and  C_11
REMARK    6  A    between atoms: C_11  and  O_12
REMARK    7  A    between atoms: O_12  and  C_13
REMARK    8  A    between atoms: N_24  and  C_25
REMARK                            x       y       z     vdW  Elec       q    Type
REMARK                         _______ _______ _______ _____ _____    ______ ____
ROOT
ATOM      1  C   UNL     1       4.645   5.187  16.993  0.00  0.00    +0.000 A 
ATOM      2  C   UNL     1       4.467   3.784  16.901  0.00  0.00    +0.000 A 
ATOM      3  C   UNL     1       3.339   3.136  17.404  0.00  0.00    +0.000 A 
ATOM      4  C   UNL     1       2.359   3.871  18.044  0.00  0.00    +0.000 A 
ATOM      5  C   UNL     1       2.500   5.252  18.150  0.00  0.00    +0.000 A 
ATOM      6  C   UNL     1       3.620   5.943  17.626  0.00  0.00    +0.000 A 
ENDROOT
BRANCH   1   8
ATOM      7  N   UNL     1       6.398   5.525  15.196  0.00  0.00    +0.000 NA
ATOM      8  C   UNL     1       5.954   5.712  16.409  0.00  0.00    +0.000 C 
BRANCH   8   9
ATOM      9  C   UNL     1       6.761   6.665  17.206  0.00  0.00    +0.000 A 
ATOM     10  N   UNL     1       6.931   7.942  16.896  0.00  0.00    +0.000 NA
ATOM     11  C   UNL     1       7.875   8.416  17.771  0.00  0.00    +0.000 A 
ATOM     12  C   UNL     1       8.283   7.430  18.634  0.00  0.00    +0.000 A 
ATOM     13  N   UNL     1       7.557   6.328  18.282  0.00  0.00    +0.000 N 
ATOM     14  C   UNL     1       7.715   5.014  18.862  0.00  0.00    +0.000 C 
ENDBRANCH   8   9
BRANCH   7  16
ATOM     15  C   UNL     1       6.128   3.896  13.600  0.00  0.00    +0.000 C 
ATOM     16  O   UNL     1       5.486   4.901  14.367  0.00  0.00    +0.000 OA
ENDBRANCH   7  16
ENDBRANCH   1   8
BRANCH   6  17
ATOM     17  C   UNL     1       3.561   7.459  17.754  0.00  0.00    +0.000 C 
BRANCH  17  18
ATOM     18  O   UNL     1       2.266   8.027  17.530  0.00  0.00    +0.000 OA
BRANCH  18  19
ATOM     19  C   UNL     1       1.682   8.776  18.516  0.00  0.00    +0.000 A 
ATOM     20  C   UNL     1       1.704   8.222  19.794  0.00  0.00    +0.000 A 
ATOM     21  C   UNL     1       1.163   8.952  20.851  0.00  0.00    +0.000 A 
ATOM     22  C   UNL     1       0.617  10.202  20.591  0.00  0.00    +0.000 A 
ATOM     23 CL   UNL     1      -0.066  11.138  21.854  0.00  0.00    +0.000 Cl
ATOM     24  C   UNL     1       0.646  10.674  19.286  0.00  0.00    +0.000 A 
ATOM     25  N   UNL     1       1.179   9.994  18.241  0.00  0.00    +0.000 NA
ENDBRANCH  18  19
ENDBRANCH  17  18
ENDBRANCH   6  17
TORSDOF 6
ENDMDL
