MODEL 1
REMARK VINA RESULT:      -7.4      0.000      0.000
REMARK  Name = 
REMARK  5 active torsions:
REMARK  status: ('A' for Active; 'I' for Inactive)
REMARK    1  A    between atoms: C_1  and  C_2
REMARK    2  A    between atoms: C_2  and  S_3
REMARK    3  A    between atoms: S_3  and  C_4
REMARK    4  A    between atoms: C_13  and  O_15
REMARK    5  A    between atoms: O_15  and  C_16
REMARK                            x       y       z     vdW  Elec       q    Type
REMARK                         _______ _______ _______ _____ _____    ______ ____
ROOT
ATOM      1  C   UNL     1       5.233   4.654  18.835  0.00  0.00    +0.000 A 
ATOM      2  N   UNL     1       5.055   3.438  19.296  0.00  0.00    +0.000 NA
ATOM      3  C   UNL     1       3.728   3.181  19.139  0.00  0.00    +0.000 A 
ATOM      4  C   UNL     1       3.010   2.032  19.511  0.00  0.00    +0.000 A 
ATOM      5  C   UNL     1       1.635   1.977  19.267  0.00  0.00    +0.000 A 
ATOM      6  C   UNL     1       0.985   3.044  18.656  0.00  0.00    +0.000 A 
ATOM      7  C   UNL     1       1.686   4.195  18.275  0.00  0.00    +0.000 A 
ATOM      8  C   UNL     1       3.069   4.250  18.535  0.00  0.00    +0.000 A 
ATOM      9  N   UNL     1       4.067   5.218  18.330  0.00  0.00    +0.000 N 
ATOM     10  C   UNL     1       3.914   6.514  17.797  0.00  0.00    +0.000 C 
ATOM     11  O   UNL     1       4.848   7.275  17.606  0.00  0.00    +0.000 OA
ENDROOT
BRANCH   1  12
ATOM     12  S   UNL     1       6.755   5.486  18.983  0.00  0.00    +0.000 S 
BRANCH  12  14
ATOM     13  C   UNL     1       7.055   4.657  16.397  0.00  0.00    +0.000 C 
ATOM     14  C   UNL     1       7.754   4.614  17.746  0.00  0.00    +0.000 C 
ENDBRANCH  12  14
ENDBRANCH   1  12
BRANCH  10  15
ATOM     15  O   UNL     1       2.576   6.795  17.611  0.00  0.00    +0.000 OA
BRANCH  15  16
ATOM     16  C   UNL     1       2.105   7.815  18.445  0.00  0.00    +0.000 A 
ATOM     17  C   UNL     1       1.657   8.988  17.846  0.00  0.00    +0.000 A 
ATOM     18  C   UNL     1       1.100   9.988  18.645  0.00  0.00    +0.000 A 
ATOM     19  C   UNL     1       0.983   9.801  20.024  0.00  0.00    +0.000 A 
ATOM     20  C   UNL     1       1.405   8.609  20.610  0.00  0.00    +0.000 A 
ATOM     21  C   UNL     1       1.956   7.605  19.820  0.00  0.00    +0.000 A 
ENDBRANCH  15  16
ENDBRANCH  10  15
TORSDOF 4
ENDMDL
MODEL 2
REMARK VINA RESULT:      -7.3      3.216      5.573
REMARK  Name = 
REMARK  5 active torsions:
REMARK  status: ('A' for Active; 'I' for Inactive)
REMARK    1  A    between atoms: C_1  and  C_2
REMARK    2  A    between atoms: C_2  and  S_3
REMARK    3  A    between atoms: S_3  and  C_4
REMARK    4  A    between atoms: C_13  and  O_15
REMARK    5  A    between atoms: O_15  and  C_16
REMARK                            x       y       z     vdW  Elec       q    Type
REMARK                         _______ _______ _______ _____ _____    ______ ____
ROOT
ATOM      1  C   UNL     1       6.927   5.714  16.354  0.00  0.00    +0.000 A 
ATOM      2  N   UNL     1       7.735   5.782  15.321  0.00  0.00    +0.000 NA
ATOM      3  C   UNL     1       7.137   5.046  14.344  0.00  0.00    +0.000 A 
ATOM      4  C   UNL     1       7.609   4.763  13.051  0.00  0.00    +0.000 A 
ATOM      5  C   UNL     1       6.836   3.968  12.201  0.00  0.00    +0.000 A 
ATOM      6  C   UNL     1       5.610   3.467  12.627  0.00  0.00    +0.000 A 
ATOM      7  C   UNL     1       5.124   3.742  13.911  0.00  0.00    +0.000 A 
ATOM      8  C   UNL     1       5.913   4.534  14.767  0.00  0.00    +0.000 A 
ATOM      9  N   UNL     1       5.774   4.982  16.092  0.00  0.00    +0.000 N 
ATOM     10  C   UNL     1       4.730   4.694  16.995  0.00  0.00    +0.000 C 
ATOM     11  O   UNL     1       4.663   5.169  18.116  0.00  0.00    +0.000 OA
ENDROOT
BRANCH   1  12
ATOM     12  S   UNL     1       7.355   6.369  17.908  0.00  0.00    +0.000 S 
BRANCH  12  14
ATOM     13  C   UNL     1       8.570   8.745  18.492  0.00  0.00    +0.000 C 
ATOM     14  C   UNL     1       7.613   8.116  17.493  0.00  0.00    +0.000 C 
ENDBRANCH  12  14
ENDBRANCH   1  12
BRANCH  10  15
ATOM     15  O   UNL     1       3.874   3.760  16.447  0.00  0.00    +0.000 OA
BRANCH  15  16
ATOM     16  C   UNL     1       2.921   3.286  17.356  0.00  0.00    +0.000 A 
ATOM     17  C   UNL     1       3.201   2.103  18.031  0.00  0.00    +0.000 A 
ATOM     18  C   UNL     1       2.311   1.652  19.008  0.00  0.00    +0.000 A 
ATOM     19  C   UNL     1       1.166   2.392  19.308  0.00  0.00    +0.000 A 
ATOM     20  C   UNL     1       0.911   3.593  18.649  0.00  0.00    +0.000 A 
ATOM     21  C   UNL     1       1.796   4.052  17.678  0.00  0.00    +0.000 A 
ENDBRANCH  15  16
ENDBRANCH  10  15
TORSDOF 4
ENDMDL
MODEL 3
REMARK VINA RESULT:      -7.2      3.220      5.490
REMARK  Name = 
REMARK  5 active torsions:
REMARK  status: ('A' for Active; 'I' for Inactive)
REMARK    1  A    between atoms: C_1  and  C_2
REMARK    2  A    between atoms: C_2  and  S_3
REMARK    3  A    between atoms: S_3  and  C_4
REMARK    4  A    between atoms: C_13  and  O_15
REMARK    5  A    between atoms: O_15  and  C_16
REMARK                            x       y       z     vdW  Elec       q    Type
REMARK                         _______ _______ _______ _____ _____    ______ ____
ROOT
ATOM      1  C   UNL     1       6.919   5.766  16.361  0.00  0.00    +0.000 A 
ATOM      2  N   UNL     1       7.730   5.769  15.328  0.00  0.00    +0.000 NA
ATOM      3  C   UNL     1       7.099   5.036  14.370  0.00  0.00    +0.000 A 
ATOM      4  C   UNL     1       7.558   4.697  13.086  0.00  0.00    +0.000 A 
ATOM      5  C   UNL     1       6.749   3.917  12.255  0.00  0.00    +0.000 A 
ATOM      6  C   UNL     1       5.501   3.486  12.692  0.00  0.00    +0.000 A 
ATOM      7  C   UNL     1       5.027   3.817  13.967  0.00  0.00    +0.000 A 
ATOM      8  C   UNL     1       5.851   4.594  14.804  0.00  0.00    +0.000 A 
ATOM      9  N   UNL     1       5.733   5.082  16.116  0.00  0.00    +0.000 N 
ATOM     10  C   UNL     1       4.676   4.868  17.024  0.00  0.00    +0.000 C 
ATOM     11  O   UNL     1       4.631   5.376  18.132  0.00  0.00    +0.000 OA
ENDROOT
BRANCH   1  12
ATOM     12  S   UNL     1       7.376   6.442  17.898  0.00  0.00    +0.000 S 
BRANCH  12  14
ATOM     13  C   UNL     1       8.550   8.837  18.489  0.00  0.00    +0.000 C 
ATOM     14  C   UNL     1       7.662   8.176  17.448  0.00  0.00    +0.000 C 
ENDBRANCH  12  14
ENDBRANCH   1  12
BRANCH  10  15
ATOM     15  O   UNL     1       3.778   3.961  16.500  0.00  0.00    +0.000 OA
BRANCH  15  16
ATOM     16  C   UNL     1       2.942   3.392  17.466  0.00  0.00    +0.000 A 
ATOM     17  C   UNL     1       1.703   3.986  17.685  0.00  0.00    +0.000 A 
ATOM     18  C   UNL     1       0.812   3.390  18.578  0.00  0.00    +0.000 A 
ATOM     19  C   UNL     1       1.159   2.204  19.229  0.00  0.00    +0.000 A 
ATOM     20  C   UNL     1       2.389   1.598  18.979  0.00  0.00    +0.000 A 
ATOM     21  C   UNL     1       3.281   2.184  18.085  0.00  0.00    +0.000 A 
ENDBRANCH  15  16
ENDBRANCH  10  15
TORSDOF 4
ENDMDL
MODEL 4
REMARK VINA RESULT:      -7.2      3.066      4.957
REMARK  Name = 
REMARK  5 active torsions:
REMARK  status: ('A' for Active; 'I' for Inactive)
REMARK    1  A    between atoms: C_1  and  C_2
REMARK    2  A    between atoms: C_2  and  S_3
REMARK    3  A    between atoms: S_3  and  C_4
REMARK    4  A    between atoms: C_13  and  O_15
REMARK    5  A    between atoms: O_15  and  C_16
REMARK                            x       y       z     vdW  Elec       q    Type
REMARK                         _______ _______ _______ _____ _____    ______ ____
ROOT
ATOM      1  C   UNL     1       7.269   6.136  17.314  0.00  0.00    +0.000 A 
ATOM      2  N   UNL     1       7.662   6.262  16.067  0.00  0.00    +0.000 NA
ATOM      3  C   UNL     1       6.986   5.304  15.375  0.00  0.00    +0.000 A 
ATOM      4  C   UNL     1       7.075   4.986  14.009  0.00  0.00    +0.000 A 
ATOM      5  C   UNL     1       6.292   3.947  13.498  0.00  0.00    +0.000 A 
ATOM      6  C   UNL     1       5.430   3.241  14.329  0.00  0.00    +0.000 A 
ATOM      7  C   UNL     1       5.326   3.547  15.691  0.00  0.00    +0.000 A 
ATOM      8  C   UNL     1       6.125   4.587  16.204  0.00  0.00    +0.000 A 
ATOM      9  N   UNL     1       6.310   5.142  17.481  0.00  0.00    +0.000 N 
ATOM     10  C   UNL     1       5.713   4.737  18.692  0.00  0.00    +0.000 C 
ATOM     11  O   UNL     1       5.892   5.311  19.753  0.00  0.00    +0.000 OA
ENDROOT
BRANCH   1  12
ATOM     12  S   UNL     1       7.994   7.044  18.609  0.00  0.00    +0.000 S 
BRANCH  12  14
ATOM     13  C   UNL     1       8.904   9.615  18.755  0.00  0.00    +0.000 C 
ATOM     14  C   UNL     1       8.060   8.704  17.881  0.00  0.00    +0.000 C 
ENDBRANCH  12  14
ENDBRANCH   1  12
BRANCH  10  15
ATOM     15  O   UNL     1       4.985   3.581  18.498  0.00  0.00    +0.000 OA
BRANCH  15  16
ATOM     16  C   UNL     1       3.699   3.641  19.044  0.00  0.00    +0.000 A 
ATOM     17  C   UNL     1       2.709   4.279  18.304  0.00  0.00    +0.000 A 
ATOM     18  C   UNL     1       1.397   4.278  18.781  0.00  0.00    +0.000 A 
ATOM     19  C   UNL     1       1.086   3.630  19.978  0.00  0.00    +0.000 A 
ATOM     20  C   UNL     1       2.079   2.966  20.696  0.00  0.00    +0.000 A 
ATOM     21  C   UNL     1       3.389   2.957  20.224  0.00  0.00    +0.000 A 
ENDBRANCH  15  16
ENDBRANCH  10  15
TORSDOF 4
ENDMDL
MODEL 5
REMARK VINA RESULT:      -7.1      2.990      5.701
REMARK  Name = 
REMARK  5 active torsions:
REMARK  status: ('A' for Active; 'I' for Inactive)
REMARK    1  A    between atoms: C_1  and  C_2
REMARK    2  A    between atoms: C_2  and  S_3
REMARK    3  A    between atoms: S_3  and  C_4
REMARK    4  A    between atoms: C_13  and  O_15
REMARK    5  A    between atoms: O_15  and  C_16
REMARK                            x       y       z     vdW  Elec       q    Type
REMARK                         _______ _______ _______ _____ _____    ______ ____
ROOT
ATOM      1  C   UNL     1       6.193   5.429  18.698  0.00  0.00    +0.000 A 
ATOM      2  N   UNL     1       5.204   5.668  19.528  0.00  0.00    +0.000 NA
ATOM      3  C   UNL     1       4.116   5.060  18.981  0.00  0.00    +0.000 A 
ATOM      4  C   UNL     1       2.792   5.049  19.452  0.00  0.00    +0.000 A 
ATOM      5  C   UNL     1       1.814   4.367  18.723  0.00  0.00    +0.000 A 
ATOM      6  C   UNL     1       2.148   3.701  17.548  0.00  0.00    +0.000 A 
ATOM      7  C   UNL     1       3.462   3.700  17.066  0.00  0.00    +0.000 A 
ATOM      8  C   UNL     1       4.442   4.399  17.798  0.00  0.00    +0.000 A 
ATOM      9  N   UNL     1       5.814   4.638  17.618  0.00  0.00    +0.000 N 
ATOM     10  C   UNL     1       6.626   4.233  16.539  0.00  0.00    +0.000 C 
ATOM     11  O   UNL     1       7.827   4.442  16.488  0.00  0.00    +0.000 OA
ENDROOT
BRANCH   1  12
ATOM     12  S   UNL     1       7.762   6.155  18.895  0.00  0.00    +0.000 S 
BRANCH  12  14
ATOM     13  C   UNL     1       8.394   8.744  18.295  0.00  0.00    +0.000 C 
ATOM     14  C   UNL     1       7.654   7.543  17.732  0.00  0.00    +0.000 C 
ENDBRANCH  12  14
ENDBRANCH   1  12
BRANCH  10  15
ATOM     15  O   UNL     1       5.852   3.655  15.555  0.00  0.00    +0.000 OA
BRANCH  15  16
ATOM     16  C   UNL     1       6.281   3.967  14.260  0.00  0.00    +0.000 A 
ATOM     17  C   UNL     1       7.199   5.002  14.114  0.00  0.00    +0.000 A 
ATOM     18  C   UNL     1       7.714   5.279  12.846  0.00  0.00    +0.000 A 
ATOM     19  C   UNL     1       7.320   4.513  11.747  0.00  0.00    +0.000 A 
ATOM     20  C   UNL     1       6.426   3.456  11.909  0.00  0.00    +0.000 A 
ATOM     21  C   UNL     1       5.913   3.171  13.171  0.00  0.00    +0.000 A 
ENDBRANCH  15  16
ENDBRANCH  10  15
TORSDOF 4
ENDMDL
MODEL 6
REMARK VINA RESULT:      -7.1      2.941      5.042
REMARK  Name = 
REMARK  5 active torsions:
REMARK  status: ('A' for Active; 'I' for Inactive)
REMARK    1  A    between atoms: C_1  and  C_2
REMARK    2  A    between atoms: C_2  and  S_3
REMARK    3  A    between atoms: S_3  and  C_4
REMARK    4  A    between atoms: C_13  and  O_15
REMARK    5  A    between atoms: O_15  and  C_16
REMARK                            x       y       z     vdW  Elec       q    Type
REMARK                         _______ _______ _______ _____ _____    ______ ____
ROOT
ATOM      1  C   UNL     1       7.257   6.180  17.351  0.00  0.00    +0.000 A 
ATOM      2  N   UNL     1       7.636   6.291  16.099  0.00  0.00    +0.000 NA
ATOM      3  C   UNL     1       6.945   5.330  15.425  0.00  0.00    +0.000 A 
ATOM      4  C   UNL     1       7.015   4.997  14.062  0.00  0.00    +0.000 A 
ATOM      5  C   UNL     1       6.221   3.958  13.571  0.00  0.00    +0.000 A 
ATOM      6  C   UNL     1       5.364   3.265  14.420  0.00  0.00    +0.000 A 
ATOM      7  C   UNL     1       5.279   3.586  15.780  0.00  0.00    +0.000 A 
ATOM      8  C   UNL     1       6.091   4.626  16.272  0.00  0.00    +0.000 A 
ATOM      9  N   UNL     1       6.295   5.194  17.541  0.00  0.00    +0.000 N 
ATOM     10  C   UNL     1       5.711   4.804  18.764  0.00  0.00    +0.000 C 
ATOM     11  O   UNL     1       5.906   5.389  19.816  0.00  0.00    +0.000 OA
ENDROOT
BRANCH   1  12
ATOM     12  S   UNL     1       8.003   7.097  18.628  0.00  0.00    +0.000 S 
BRANCH  12  14
ATOM     13  C   UNL     1       8.875   9.682  18.783  0.00  0.00    +0.000 C 
ATOM     14  C   UNL     1       8.142   8.731  17.852  0.00  0.00    +0.000 C 
ENDBRANCH  12  14
ENDBRANCH   1  12
BRANCH  10  15
ATOM     15  O   UNL     1       4.974   3.650  18.590  0.00  0.00    +0.000 OA
BRANCH  15  16
ATOM     16  C   UNL     1       3.767   3.655  19.298  0.00  0.00    +0.000 A 
ATOM     17  C   UNL     1       3.611   2.724  20.320  0.00  0.00    +0.000 A 
ATOM     18  C   UNL     1       2.455   2.762  21.102  0.00  0.00    +0.000 A 
ATOM     19  C   UNL     1       1.480   3.734  20.866  0.00  0.00    +0.000 A 
ATOM     20  C   UNL     1       1.661   4.682  19.861  0.00  0.00    +0.000 A 
ATOM     21  C   UNL     1       2.814   4.655  19.081  0.00  0.00    +0.000 A 
ENDBRANCH  15  16
ENDBRANCH  10  15
TORSDOF 4
ENDMDL
MODEL 7
REMARK VINA RESULT:      -7.1      3.009      5.724
REMARK  Name = 
REMARK  5 active torsions:
REMARK  status: ('A' for Active; 'I' for Inactive)
REMARK    1  A    between atoms: C_1  and  C_2
REMARK    2  A    between atoms: C_2  and  S_3
REMARK    3  A    between atoms: S_3  and  C_4
REMARK    4  A    between atoms: C_13  and  O_15
REMARK    5  A    between atoms: O_15  and  C_16
REMARK                            x       y       z     vdW  Elec       q    Type
REMARK                         _______ _______ _______ _____ _____    ______ ____
ROOT
ATOM      1  C   UNL     1       6.224   5.373  18.751  0.00  0.00    +0.000 A 
ATOM      2  N   UNL     1       5.237   5.582  19.591  0.00  0.00    +0.000 NA
ATOM      3  C   UNL     1       4.144   5.009  19.017  0.00  0.00    +0.000 A 
ATOM      4  C   UNL     1       2.820   4.986  19.487  0.00  0.00    +0.000 A 
ATOM      5  C   UNL     1       1.836   4.346  18.728  0.00  0.00    +0.000 A 
ATOM      6  C   UNL     1       2.165   3.732  17.524  0.00  0.00    +0.000 A 
ATOM      7  C   UNL     1       3.479   3.742  17.043  0.00  0.00    +0.000 A 
ATOM      8  C   UNL     1       4.464   4.399  17.805  0.00  0.00    +0.000 A 
ATOM      9  N   UNL     1       5.839   4.636  17.636  0.00  0.00    +0.000 N 
ATOM     10  C   UNL     1       6.647   4.273  16.539  0.00  0.00    +0.000 C 
ATOM     11  O   UNL     1       7.850   4.475  16.497  0.00  0.00    +0.000 OA
ENDROOT
BRANCH   1  12
ATOM     12  S   UNL     1       7.799   6.077  18.980  0.00  0.00    +0.000 S 
BRANCH  12  14
ATOM     13  C   UNL     1       8.486   8.661  18.422  0.00  0.00    +0.000 C 
ATOM     14  C   UNL     1       7.723   7.484  17.838  0.00  0.00    +0.000 C 
ENDBRANCH  12  14
ENDBRANCH   1  12
BRANCH  10  15
ATOM     15  O   UNL     1       5.868   3.747  15.530  0.00  0.00    +0.000 OA
BRANCH  15  16
ATOM     16  C   UNL     1       6.400   3.962  14.254  0.00  0.00    +0.000 A 
ATOM     17  C   UNL     1       5.927   3.170  13.212  0.00  0.00    +0.000 A 
ATOM     18  C   UNL     1       6.373   3.420  11.913  0.00  0.00    +0.000 A 
ATOM     19  C   UNL     1       7.270   4.462  11.667  0.00  0.00    +0.000 A 
ATOM     20  C   UNL     1       7.712   5.270  12.713  0.00  0.00    +0.000 A 
ATOM     21  C   UNL     1       7.268   5.031  14.010  0.00  0.00    +0.000 A 
ENDBRANCH  15  16
ENDBRANCH  10  15
TORSDOF 4
ENDMDL
MODEL 8
REMARK VINA RESULT:      -6.8      3.260      5.480
REMARK  Name = 
REMARK  5 active torsions:
REMARK  status: ('A' for Active; 'I' for Inactive)
REMARK    1  A    between atoms: C_1  and  C_2
REMARK    2  A    between atoms: C_2  and  S_3
REMARK    3  A    between atoms: S_3  and  C_4
REMARK    4  A    between atoms: C_13  and  O_15
REMARK    5  A    between atoms: O_15  and  C_16
REMARK                            x       y       z     vdW  Elec       q    Type
REMARK                         _______ _______ _______ _____ _____    ______ ____
ROOT
ATOM      1  C   UNL     1       6.881   5.810  15.978  0.00  0.00    +0.000 A 
ATOM      2  N   UNL     1       7.689   5.704  14.948  0.00  0.00    +0.000 NA
ATOM      3  C   UNL     1       7.037   4.909  14.056  0.00  0.00    +0.000 A 
ATOM      4  C   UNL     1       7.483   4.451  12.805  0.00  0.00    +0.000 A 
ATOM      5  C   UNL     1       6.652   3.624  12.044  0.00  0.00    +0.000 A 
ATOM      6  C   UNL     1       5.394   3.263  12.517  0.00  0.00    +0.000 A 
ATOM      7  C   UNL     1       4.933   3.713  13.760  0.00  0.00    +0.000 A 
ATOM      8  C   UNL     1       5.779   4.537  14.527  0.00  0.00    +0.000 A 
ATOM      9  N   UNL     1       5.677   5.138  15.793  0.00  0.00    +0.000 N 
ATOM     10  C   UNL     1       4.618   5.029  16.717  0.00  0.00    +0.000 C 
ATOM     11  O   UNL     1       4.589   5.629  17.778  0.00  0.00    +0.000 OA
ENDROOT
BRANCH   1  12
ATOM     12  S   UNL     1       7.360   6.601  17.452  0.00  0.00    +0.000 S 
BRANCH  12  14
ATOM     13  C   UNL     1       7.941   5.596  19.925  0.00  0.00    +0.000 C 
ATOM     14  C   UNL     1       7.859   5.182  18.465  0.00  0.00    +0.000 C 
ENDBRANCH  12  14
ENDBRANCH   1  12
BRANCH  10  15
ATOM     15  O   UNL     1       3.695   4.104  16.272  0.00  0.00    +0.000 OA
BRANCH  15  16
ATOM     16  C   UNL     1       3.013   3.462  17.311  0.00  0.00    +0.000 A 
ATOM     17  C   UNL     1       1.745   3.929  17.641  0.00  0.00    +0.000 A 
ATOM     18  C   UNL     1       1.004   3.254  18.613  0.00  0.00    +0.000 A 
ATOM     19  C   UNL     1       1.529   2.116  19.230  0.00  0.00    +0.000 A 
ATOM     20  C   UNL     1       2.787   1.637  18.869  0.00  0.00    +0.000 A 
ATOM     21  C   UNL     1       3.529   2.301  17.897  0.00  0.00    +0.000 A 
ENDBRANCH  15  16
ENDBRANCH  10  15
TORSDOF 4
ENDMDL
MODEL 9
REMARK VINA RESULT:      -6.8      2.087      4.041
REMARK  Name = 
REMARK  5 active torsions:
REMARK  status: ('A' for Active; 'I' for Inactive)
REMARK    1  A    between atoms: C_1  and  C_2
REMARK    2  A    between atoms: C_2  and  S_3
REMARK    3  A    between atoms: S_3  and  C_4
REMARK    4  A    between atoms: C_13  and  O_15
REMARK    5  A    between atoms: O_15  and  C_16
REMARK                            x       y       z     vdW  Elec       q    Type
REMARK                         _______ _______ _______ _____ _____    ______ ____
ROOT
ATOM      1  C   UNL     1       2.417   3.899  18.431  0.00  0.00    +0.000 A 
ATOM      2  N   UNL     1       3.086   3.377  17.429  0.00  0.00    +0.000 NA
ATOM      3  C   UNL     1       3.946   4.351  17.021  0.00  0.00    +0.000 A 
ATOM      4  C   UNL     1       4.858   4.319  15.953  0.00  0.00    +0.000 A 
ATOM      5  C   UNL     1       5.647   5.444  15.696  0.00  0.00    +0.000 A 
ATOM      6  C   UNL     1       5.535   6.579  16.491  0.00  0.00    +0.000 A 
ATOM      7  C   UNL     1       4.633   6.627  17.561  0.00  0.00    +0.000 A 
ATOM      8  C   UNL     1       3.832   5.495  17.809  0.00  0.00    +0.000 A 
ATOM      9  N   UNL     1       2.827   5.191  18.742  0.00  0.00    +0.000 N 
ATOM     10  C   UNL     1       2.290   6.035  19.736  0.00  0.00    +0.000 C 
ATOM     11  O   UNL     1       1.450   5.670  20.542  0.00  0.00    +0.000 OA
ENDROOT
BRANCH   1  12
ATOM     12  S   UNL     1       1.075   3.078  19.175  0.00  0.00    +0.000 S 
BRANCH  12  14
ATOM     13  C   UNL     1       2.229   2.739  21.627  0.00  0.00    +0.000 C 
ATOM     14  C   UNL     1       1.934   1.986  20.341  0.00  0.00    +0.000 C 
ENDBRANCH  12  14
ENDBRANCH   1  12
BRANCH  10  15
ATOM     15  O   UNL     1       2.795   7.311  19.598  0.00  0.00    +0.000 OA
BRANCH  15  16
ATOM     16  C   UNL     1       1.806   8.275  19.376  0.00  0.00    +0.000 A 
ATOM     17  C   UNL     1       1.184   8.834  20.488  0.00  0.00    +0.000 A 
ATOM     18  C   UNL     1       0.257   9.861  20.302  0.00  0.00    +0.000 A 
ATOM     19  C   UNL     1      -0.027  10.326  19.015  0.00  0.00    +0.000 A 
ATOM     20  C   UNL     1       0.626   9.781  17.911  0.00  0.00    +0.000 A 
ATOM     21  C   UNL     1       1.556   8.761  18.089  0.00  0.00    +0.000 A 
ENDBRANCH  15  16
ENDBRANCH  10  15
TORSDOF 4
ENDMDL
