MODEL 1
REMARK VINA RESULT:      -7.3      0.000      0.000
REMARK  Name = 
REMARK  6 active torsions:
REMARK  status: ('A' for Active; 'I' for Inactive)
REMARK    1  A    between atoms: C_1  and  O_2
REMARK    2  A    between atoms: O_2  and  C_3
REMARK    3  A    between atoms: C_5  and  N_6
REMARK    4  A    between atoms: C_12  and  C_13
REMARK    5  A    between atoms: C_14  and  C_15
REMARK    6  A    between atoms: N_21  and  C_22
REMARK                            x       y       z     vdW  Elec       q    Type
REMARK                         _______ _______ _______ _____ _____    ______ ____
ROOT
ATOM      1  C   UNL     1       6.955   5.294  16.433  0.00  0.00    +0.000 A 
ATOM      2  C   UNL     1       7.222   4.988  15.091  0.00  0.00    +0.000 A 
ATOM      3  C   UNL     1       6.296   4.268  14.341  0.00  0.00    +0.000 A 
ATOM      4  C   UNL     1       5.098   3.806  14.906  0.00  0.00    +0.000 A 
ATOM      5  C   UNL     1       4.865   4.082  16.267  0.00  0.00    +0.000 A 
ATOM      6  C   UNL     1       5.758   4.820  17.038  0.00  0.00    +0.000 A 
ATOM      7  C   UNL     1       5.201   4.898  18.364  0.00  0.00    +0.000 A 
ATOM      8  C   UNL     1       5.853   5.598  19.515  0.00  0.00    +0.000 C 
ATOM      9  C   UNL     1       4.025   4.132  18.390  0.00  0.00    +0.000 A 
ATOM     10  N   UNL     1       3.803   3.722  17.087  0.00  0.00    +0.000 N 
ATOM     11  C   UNL     1       2.657   3.001  16.564  0.00  0.00    +0.000 C 
ENDROOT
BRANCH   9  12
ATOM     12  C   UNL     1       3.196   3.755  19.569  0.00  0.00    +0.000 A 
ATOM     13  C   UNL     1       3.610   2.751  20.456  0.00  0.00    +0.000 A 
ATOM     14  C   UNL     1       2.757   2.253  21.449  0.00  0.00    +0.000 A 
ATOM     15  C   UNL     1       1.497   2.810  21.627  0.00  0.00    +0.000 A 
ATOM     16  C   UNL     1       1.092   3.863  20.812  0.00  0.00    +0.000 A 
ATOM     17  C   UNL     1       1.923   4.309  19.775  0.00  0.00    +0.000 A 
ENDBRANCH   9  12
BRANCH   3  18
ATOM     18  N   UNL     1       6.590   3.992  12.930  0.00  0.00    +0.000 N 
ATOM     19  O   UNL     1       7.469   4.669  12.378  0.00  0.00    +0.000 OA
ATOM     20  O   UNL     1       5.934   3.102  12.368  0.00  0.00    +0.000 OA
ENDBRANCH   3  18
BRANCH   1  22
ATOM     21  C   UNL     1       7.628   7.414  17.249  0.00  0.00    +0.000 C 
ATOM     22  O   UNL     1       7.853   6.004  17.193  0.00  0.00    +0.000 OA
ENDBRANCH   1  22
TORSDOF 3
ENDMDL
MODEL 2
REMARK VINA RESULT:      -7.3      0.199      1.233
REMARK  Name = 
REMARK  6 active torsions:
REMARK  status: ('A' for Active; 'I' for Inactive)
REMARK    1  A    between atoms: C_1  and  O_2
REMARK    2  A    between atoms: O_2  and  C_3
REMARK    3  A    between atoms: C_5  and  N_6
REMARK    4  A    between atoms: C_12  and  C_13
REMARK    5  A    between atoms: C_14  and  C_15
REMARK    6  A    between atoms: N_21  and  C_22
REMARK                            x       y       z     vdW  Elec       q    Type
REMARK                         _______ _______ _______ _____ _____    ______ ____
ROOT
ATOM      1  C   UNL     1       6.966   5.372  16.494  0.00  0.00    +0.000 A 
ATOM      2  C   UNL     1       7.307   5.124  15.157  0.00  0.00    +0.000 A 
ATOM      3  C   UNL     1       6.441   4.406  14.337  0.00  0.00    +0.000 A 
ATOM      4  C   UNL     1       5.232   3.888  14.825  0.00  0.00    +0.000 A 
ATOM      5  C   UNL     1       4.924   4.106  16.181  0.00  0.00    +0.000 A 
ATOM      6  C   UNL     1       5.756   4.840  17.022  0.00  0.00    +0.000 A 
ATOM      7  C   UNL     1       5.132   4.853  18.320  0.00  0.00    +0.000 A 
ATOM      8  C   UNL     1       5.706   5.528  19.527  0.00  0.00    +0.000 C 
ATOM      9  C   UNL     1       3.982   4.053  18.261  0.00  0.00    +0.000 A 
ATOM     10  N   UNL     1       3.835   3.685  16.934  0.00  0.00    +0.000 N 
ATOM     11  C   UNL     1       2.739   2.952  16.330  0.00  0.00    +0.000 C 
ENDROOT
BRANCH   9  12
ATOM     12  C   UNL     1       3.108   3.608  19.382  0.00  0.00    +0.000 A 
ATOM     13  C   UNL     1       1.839   4.173  19.581  0.00  0.00    +0.000 A 
ATOM     14  C   UNL     1       1.093   3.909  20.735  0.00  0.00    +0.000 A 
ATOM     15  C   UNL     1       1.566   3.007  21.679  0.00  0.00    +0.000 A 
ATOM     16  C   UNL     1       2.786   2.371  21.467  0.00  0.00    +0.000 A 
ATOM     17  C   UNL     1       3.561   2.693  20.345  0.00  0.00    +0.000 A 
ENDBRANCH   9  12
BRANCH   3  18
ATOM     18  N   UNL     1       6.811   4.192  12.933  0.00  0.00    +0.000 N 
ATOM     19  O   UNL     1       6.263   3.263  12.323  0.00  0.00    +0.000 OA
ATOM     20  O   UNL     1       7.660   4.949  12.439  0.00  0.00    +0.000 OA
ENDBRANCH   3  18
BRANCH   1  22
ATOM     21  C   UNL     1       7.621   7.496  17.314  0.00  0.00    +0.000 C 
ATOM     22  O   UNL     1       7.803   6.079  17.323  0.00  0.00    +0.000 OA
ENDBRANCH   1  22
TORSDOF 3
ENDMDL
MODEL 3
REMARK VINA RESULT:      -7.0      3.845      7.225
REMARK  Name = 
REMARK  6 active torsions:
REMARK  status: ('A' for Active; 'I' for Inactive)
REMARK    1  A    between atoms: C_1  and  O_2
REMARK    2  A    between atoms: O_2  and  C_3
REMARK    3  A    between atoms: C_5  and  N_6
REMARK    4  A    between atoms: C_12  and  C_13
REMARK    5  A    between atoms: C_14  and  C_15
REMARK    6  A    between atoms: N_21  and  C_22
REMARK                            x       y       z     vdW  Elec       q    Type
REMARK                         _______ _______ _______ _____ _____    ______ ____
ROOT
ATOM      1  C   UNL     1       1.742   4.756  20.186  0.00  0.00    +0.000 A 
ATOM      2  C   UNL     1       1.219   5.795  20.968  0.00  0.00    +0.000 A 
ATOM      3  C   UNL     1       1.480   7.121  20.635  0.00  0.00    +0.000 A 
ATOM      4  C   UNL     1       2.290   7.453  19.539  0.00  0.00    +0.000 A 
ATOM      5  C   UNL     1       2.846   6.398  18.789  0.00  0.00    +0.000 A 
ATOM      6  C   UNL     1       2.585   5.063  19.081  0.00  0.00    +0.000 A 
ATOM      7  C   UNL     1       3.314   4.275  18.122  0.00  0.00    +0.000 A 
ATOM      8  C   UNL     1       3.320   2.778  18.087  0.00  0.00    +0.000 C 
ATOM      9  C   UNL     1       4.071   5.146  17.324  0.00  0.00    +0.000 A 
ATOM     10  N   UNL     1       3.701   6.428  17.695  0.00  0.00    +0.000 N 
ATOM     11  C   UNL     1       4.110   7.682  17.091  0.00  0.00    +0.000 C 
ENDROOT
BRANCH   9  12
ATOM     12  C   UNL     1       5.118   4.805  16.322  0.00  0.00    +0.000 A 
ATOM     13  C   UNL     1       6.480   4.985  16.605  0.00  0.00    +0.000 A 
ATOM     14  C   UNL     1       7.459   4.856  15.612  0.00  0.00    +0.000 A 
ATOM     15  C   UNL     1       7.100   4.460  14.330  0.00  0.00    +0.000 A 
ATOM     16  C   UNL     1       5.764   4.196  14.043  0.00  0.00    +0.000 A 
ATOM     17  C   UNL     1       4.782   4.396  15.022  0.00  0.00    +0.000 A 
ENDBRANCH   9  12
BRANCH   3  18
ATOM     18  N   UNL     1       0.890   8.186  21.454  0.00  0.00    +0.000 N 
ATOM     19  O   UNL     1       1.659   8.931  22.077  0.00  0.00    +0.000 OA
ATOM     20  O   UNL     1      -0.346   8.274  21.482  0.00  0.00    +0.000 OA
ENDBRANCH   3  18
BRANCH   1  22
ATOM     21  C   UNL     1       2.156   2.952  21.666  0.00  0.00    +0.000 C 
ATOM     22  O   UNL     1       1.497   3.440  20.495  0.00  0.00    +0.000 OA
ENDBRANCH   1  22
TORSDOF 3
ENDMDL
MODEL 4
REMARK VINA RESULT:      -6.7      3.888      7.314
REMARK  Name = 
REMARK  6 active torsions:
REMARK  status: ('A' for Active; 'I' for Inactive)
REMARK    1  A    between atoms: C_1  and  O_2
REMARK    2  A    between atoms: O_2  and  C_3
REMARK    3  A    between atoms: C_5  and  N_6
REMARK    4  A    between atoms: C_12  and  C_13
REMARK    5  A    between atoms: C_14  and  C_15
REMARK    6  A    between atoms: N_21  and  C_22
REMARK                            x       y       z     vdW  Elec       q    Type
REMARK                         _______ _______ _______ _____ _____    ______ ____
ROOT
ATOM      1  C   UNL     1       1.801   4.830  20.161  0.00  0.00    +0.000 A 
ATOM      2  C   UNL     1       1.250   5.826  20.978  0.00  0.00    +0.000 A 
ATOM      3  C   UNL     1       1.449   7.170  20.674  0.00  0.00    +0.000 A 
ATOM      4  C   UNL     1       2.224   7.563  19.572  0.00  0.00    +0.000 A 
ATOM      5  C   UNL     1       2.809   6.551  18.787  0.00  0.00    +0.000 A 
ATOM      6  C   UNL     1       2.609   5.199  19.049  0.00  0.00    +0.000 A 
ATOM      7  C   UNL     1       3.353   4.467  18.057  0.00  0.00    +0.000 A 
ATOM      8  C   UNL     1       3.421   2.973  17.985  0.00  0.00    +0.000 C 
ATOM      9  C   UNL     1       4.057   5.389  17.269  0.00  0.00    +0.000 A 
ATOM     10  N   UNL     1       3.641   6.644  17.679  0.00  0.00    +0.000 N 
ATOM     11  C   UNL     1       3.986   7.928  17.099  0.00  0.00    +0.000 C 
ENDROOT
BRANCH   9  12
ATOM     12  C   UNL     1       5.099   5.116  16.240  0.00  0.00    +0.000 A 
ATOM     13  C   UNL     1       4.759   4.588  14.985  0.00  0.00    +0.000 A 
ATOM     14  C   UNL     1       5.738   4.146  14.087  0.00  0.00    +0.000 A 
ATOM     15  C   UNL     1       7.084   4.301  14.393  0.00  0.00    +0.000 A 
ATOM     16  C   UNL     1       7.448   4.897  15.596  0.00  0.00    +0.000 A 
ATOM     17  C   UNL     1       6.466   5.272  16.521  0.00  0.00    +0.000 A 
ENDBRANCH   9  12
BRANCH   3  18
ATOM     18  N   UNL     1       0.831   8.189  21.530  0.00  0.00    +0.000 N 
ATOM     19  O   UNL     1      -0.406   8.226  21.586  0.00  0.00    +0.000 OA
ATOM     20  O   UNL     1       1.583   8.959  22.144  0.00  0.00    +0.000 OA
ENDBRANCH   3  18
BRANCH   1  22
ATOM     21  C   UNL     1       2.200   3.042  21.663  0.00  0.00    +0.000 C 
ATOM     22  O   UNL     1       1.618   3.497  20.441  0.00  0.00    +0.000 OA
ENDBRANCH   1  22
TORSDOF 3
ENDMDL
MODEL 5
REMARK VINA RESULT:      -6.7      5.708      7.999
REMARK  Name = 
REMARK  6 active torsions:
REMARK  status: ('A' for Active; 'I' for Inactive)
REMARK    1  A    between atoms: C_1  and  O_2
REMARK    2  A    between atoms: O_2  and  C_3
REMARK    3  A    between atoms: C_5  and  N_6
REMARK    4  A    between atoms: C_12  and  C_13
REMARK    5  A    between atoms: C_14  and  C_15
REMARK    6  A    between atoms: N_21  and  C_22
REMARK                            x       y       z     vdW  Elec       q    Type
REMARK                         _______ _______ _______ _____ _____    ______ ____
ROOT
ATOM      1  C   UNL     1       1.230  10.015  19.628  0.00  0.00    +0.000 A 
ATOM      2  C   UNL     1       0.562  10.430  20.788  0.00  0.00    +0.000 A 
ATOM      3  C   UNL     1       0.397   9.548  21.853  0.00  0.00    +0.000 A 
ATOM      4  C   UNL     1       0.862   8.226  21.787  0.00  0.00    +0.000 A 
ATOM      5  C   UNL     1       1.492   7.811  20.599  0.00  0.00    +0.000 A 
ATOM      6  C   UNL     1       1.694   8.673  19.525  0.00  0.00    +0.000 A 
ATOM      7  C   UNL     1       2.354   7.912  18.496  0.00  0.00    +0.000 A 
ATOM      8  C   UNL     1       2.746   8.461  17.159  0.00  0.00    +0.000 C 
ATOM      9  C   UNL     1       2.460   6.584  18.933  0.00  0.00    +0.000 A 
ATOM     10  N   UNL     1       2.007   6.571  20.242  0.00  0.00    +0.000 N 
ATOM     11  C   UNL     1       2.020   5.462  21.177  0.00  0.00    +0.000 C 
ENDROOT
BRANCH   9  12
ATOM     12  C   UNL     1       2.897   5.389  18.158  0.00  0.00    +0.000 A 
ATOM     13  C   UNL     1       1.989   4.379  17.807  0.00  0.00    +0.000 A 
ATOM     14  C   UNL     1       2.420   3.167  17.255  0.00  0.00    +0.000 A 
ATOM     15  C   UNL     1       3.764   2.973  16.965  0.00  0.00    +0.000 A 
ATOM     16  C   UNL     1       4.675   3.991  17.229  0.00  0.00    +0.000 A 
ATOM     17  C   UNL     1       4.249   5.173  17.846  0.00  0.00    +0.000 A 
ENDBRANCH   9  12
BRANCH   3  18
ATOM     18  N   UNL     1      -0.278  10.023  23.067  0.00  0.00    +0.000 N 
ATOM     19  O   UNL     1       0.206   9.705  24.162  0.00  0.00    +0.000 OA
ATOM     20  O   UNL     1      -1.300  10.710  22.926  0.00  0.00    +0.000 OA
ENDBRANCH   3  18
BRANCH   1  22
ATOM     21  C   UNL     1       1.644  12.233  18.906  0.00  0.00    +0.000 C 
ATOM     22  O   UNL     1       1.405  10.866  18.565  0.00  0.00    +0.000 OA
ENDBRANCH   1  22
TORSDOF 3
ENDMDL
MODEL 6
REMARK VINA RESULT:      -6.5      0.834      1.064
REMARK  Name = 
REMARK  6 active torsions:
REMARK  status: ('A' for Active; 'I' for Inactive)
REMARK    1  A    between atoms: C_1  and  O_2
REMARK    2  A    between atoms: O_2  and  C_3
REMARK    3  A    between atoms: C_5  and  N_6
REMARK    4  A    between atoms: C_12  and  C_13
REMARK    5  A    between atoms: C_14  and  C_15
REMARK    6  A    between atoms: N_21  and  C_22
REMARK                            x       y       z     vdW  Elec       q    Type
REMARK                         _______ _______ _______ _____ _____    ______ ____
ROOT
ATOM      1  C   UNL     1       5.919   6.170  16.219  0.00  0.00    +0.000 A 
ATOM      2  C   UNL     1       6.474   5.748  15.003  0.00  0.00    +0.000 A 
ATOM      3  C   UNL     1       6.078   4.540  14.436  0.00  0.00    +0.000 A 
ATOM      4  C   UNL     1       5.148   3.704  15.071  0.00  0.00    +0.000 A 
ATOM      5  C   UNL     1       4.633   4.120  16.314  0.00  0.00    +0.000 A 
ATOM      6  C   UNL     1       4.989   5.332  16.897  0.00  0.00    +0.000 A 
ATOM      7  C   UNL     1       4.281   5.420  18.148  0.00  0.00    +0.000 A 
ATOM      8  C   UNL     1       4.390   6.568  19.102  0.00  0.00    +0.000 C 
ATOM      9  C   UNL     1       3.580   4.220  18.338  0.00  0.00    +0.000 A 
ATOM     10  N   UNL     1       3.743   3.489  17.174  0.00  0.00    +0.000 N 
ATOM     11  C   UNL     1       3.121   2.226  16.822  0.00  0.00    +0.000 C 
ENDROOT
BRANCH   9  12
ATOM     12  C   UNL     1       2.854   3.759  19.554  0.00  0.00    +0.000 A 
ATOM     13  C   UNL     1       3.489   2.965  20.521  0.00  0.00    +0.000 A 
ATOM     14  C   UNL     1       2.771   2.365  21.562  0.00  0.00    +0.000 A 
ATOM     15  C   UNL     1       1.412   2.615  21.705  0.00  0.00    +0.000 A 
ATOM     16  C   UNL     1       0.774   3.463  20.806  0.00  0.00    +0.000 A 
ATOM     17  C   UNL     1       1.482   4.004  19.726  0.00  0.00    +0.000 A 
ENDBRANCH   9  12
BRANCH   3  18
ATOM     18  N   UNL     1       6.652   4.142  13.145  0.00  0.00    +0.000 N 
ATOM     19  O   UNL     1       6.166   3.157  12.572  0.00  0.00    +0.000 OA
ATOM     20  O   UNL     1       7.598   4.812  12.705  0.00  0.00    +0.000 OA
ENDBRANCH   3  18
BRANCH   1  22
ATOM     21  C   UNL     1       7.550   7.340  17.478  0.00  0.00    +0.000 C 
ATOM     22  O   UNL     1       6.294   7.358  16.798  0.00  0.00    +0.000 OA
ENDBRANCH   1  22
TORSDOF 3
ENDMDL
MODEL 7
REMARK VINA RESULT:      -6.4      1.014      1.410
REMARK  Name = 
REMARK  6 active torsions:
REMARK  status: ('A' for Active; 'I' for Inactive)
REMARK    1  A    between atoms: C_1  and  O_2
REMARK    2  A    between atoms: O_2  and  C_3
REMARK    3  A    between atoms: C_5  and  N_6
REMARK    4  A    between atoms: C_12  and  C_13
REMARK    5  A    between atoms: C_14  and  C_15
REMARK    6  A    between atoms: N_21  and  C_22
REMARK                            x       y       z     vdW  Elec       q    Type
REMARK                         _______ _______ _______ _____ _____    ______ ____
ROOT
ATOM      1  C   UNL     1       5.998   6.372  16.654  0.00  0.00    +0.000 A 
ATOM      2  C   UNL     1       6.684   6.093  15.464  0.00  0.00    +0.000 A 
ATOM      3  C   UNL     1       6.403   4.930  14.751  0.00  0.00    +0.000 A 
ATOM      4  C   UNL     1       5.460   4.000  15.213  0.00  0.00    +0.000 A 
ATOM      5  C   UNL     1       4.812   4.272  16.433  0.00  0.00    +0.000 A 
ATOM      6  C   UNL     1       5.052   5.436  17.157  0.00  0.00    +0.000 A 
ATOM      7  C   UNL     1       4.227   5.373  18.336  0.00  0.00    +0.000 A 
ATOM      8  C   UNL     1       4.189   6.427  19.398  0.00  0.00    +0.000 C 
ATOM      9  C   UNL     1       3.571   4.133  18.345  0.00  0.00    +0.000 A 
ATOM     10  N   UNL     1       3.878   3.525  17.140  0.00  0.00    +0.000 N 
ATOM     11  C   UNL     1       3.356   2.278  16.614  0.00  0.00    +0.000 C 
ENDROOT
BRANCH   9  12
ATOM     12  C   UNL     1       2.759   3.527  19.437  0.00  0.00    +0.000 A 
ATOM     13  C   UNL     1       1.361   3.641  19.449  0.00  0.00    +0.000 A 
ATOM     14  C   UNL     1       0.604   3.250  20.561  0.00  0.00    +0.000 A 
ATOM     15  C   UNL     1       1.226   2.659  21.653  0.00  0.00    +0.000 A 
ATOM     16  C   UNL     1       2.603   2.460  21.632  0.00  0.00    +0.000 A 
ATOM     17  C   UNL     1       3.363   2.917  20.548  0.00  0.00    +0.000 A 
ENDBRANCH   9  12
BRANCH   3  18
ATOM     18  N   UNL     1       7.114   4.683  13.492  0.00  0.00    +0.000 N 
ATOM     19  O   UNL     1       8.093   5.395  13.229  0.00  0.00    +0.000 OA
ATOM     20  O   UNL     1       6.689   3.779  12.758  0.00  0.00    +0.000 OA
ENDBRANCH   3  18
BRANCH   1  22
ATOM     21  C   UNL     1       7.640   7.795  17.598  0.00  0.00    +0.000 C 
ATOM     22  O   UNL     1       6.258   7.513  17.374  0.00  0.00    +0.000 OA
ENDBRANCH   1  22
TORSDOF 3
ENDMDL
MODEL 8
REMARK VINA RESULT:      -6.4      3.521      4.705
REMARK  Name = 
REMARK  6 active torsions:
REMARK  status: ('A' for Active; 'I' for Inactive)
REMARK    1  A    between atoms: C_1  and  O_2
REMARK    2  A    between atoms: O_2  and  C_3
REMARK    3  A    between atoms: C_5  and  N_6
REMARK    4  A    between atoms: C_12  and  C_13
REMARK    5  A    between atoms: C_14  and  C_15
REMARK    6  A    between atoms: N_21  and  C_22
REMARK                            x       y       z     vdW  Elec       q    Type
REMARK                         _______ _______ _______ _____ _____    ______ ____
ROOT
ATOM      1  C   UNL     1       4.047   4.077  18.165  0.00  0.00    +0.000 A 
ATOM      2  C   UNL     1       4.845   3.919  17.023  0.00  0.00    +0.000 A 
ATOM      3  C   UNL     1       5.173   5.024  16.242  0.00  0.00    +0.000 A 
ATOM      4  C   UNL     1       4.696   6.306  16.551  0.00  0.00    +0.000 A 
ATOM      5  C   UNL     1       3.859   6.442  17.675  0.00  0.00    +0.000 A 
ATOM      6  C   UNL     1       3.531   5.364  18.491  0.00  0.00    +0.000 A 
ATOM      7  C   UNL     1       2.667   5.869  19.525  0.00  0.00    +0.000 A 
ATOM      8  C   UNL     1       2.071   5.030  20.613  0.00  0.00    +0.000 C 
ATOM      9  C   UNL     1       2.418   7.224  19.264  0.00  0.00    +0.000 A 
ATOM     10  N   UNL     1       3.220   7.564  18.188  0.00  0.00    +0.000 N 
ATOM     11  C   UNL     1       3.417   8.877  17.604  0.00  0.00    +0.000 C 
ENDROOT
BRANCH   9  12
ATOM     12  C   UNL     1       1.446   8.130  19.938  0.00  0.00    +0.000 A 
ATOM     13  C   UNL     1       0.726   9.090  19.211  0.00  0.00    +0.000 A 
ATOM     14  C   UNL     1      -0.039  10.073  19.853  0.00  0.00    +0.000 A 
ATOM     15  C   UNL     1      -0.164  10.063  21.236  0.00  0.00    +0.000 A 
ATOM     16  C   UNL     1       0.475   9.073  21.975  0.00  0.00    +0.000 A 
ATOM     17  C   UNL     1       1.295   8.135  21.333  0.00  0.00    +0.000 A 
ENDBRANCH   9  12
BRANCH   3  18
ATOM     18  N   UNL     1       6.037   4.831  15.071  0.00  0.00    +0.000 N 
ATOM     19  O   UNL     1       7.122   5.429  15.046  0.00  0.00    +0.000 OA
ATOM     20  O   UNL     1       5.627   4.084  14.170  0.00  0.00    +0.000 OA
ENDBRANCH   3  18
BRANCH   1  22
ATOM     21  C   UNL     1       3.416   1.795  18.248  0.00  0.00    +0.000 C 
ATOM     22  O   UNL     1       3.710   3.003  18.952  0.00  0.00    +0.000 OA
ENDBRANCH   1  22
TORSDOF 3
ENDMDL
MODEL 9
REMARK VINA RESULT:      -6.3      5.679      7.905
REMARK  Name = 
REMARK  6 active torsions:
REMARK  status: ('A' for Active; 'I' for Inactive)
REMARK    1  A    between atoms: C_1  and  O_2
REMARK    2  A    between atoms: O_2  and  C_3
REMARK    3  A    between atoms: C_5  and  N_6
REMARK    4  A    between atoms: C_12  and  C_13
REMARK    5  A    between atoms: C_14  and  C_15
REMARK    6  A    between atoms: N_21  and  C_22
REMARK                            x       y       z     vdW  Elec       q    Type
REMARK                         _______ _______ _______ _____ _____    ______ ____
ROOT
ATOM      1  C   UNL     1       1.315  10.018  19.391  0.00  0.00    +0.000 A 
ATOM      2  C   UNL     1       0.582  10.515  20.478  0.00  0.00    +0.000 A 
ATOM      3  C   UNL     1       0.336   9.706  21.584  0.00  0.00    +0.000 A 
ATOM      4  C   UNL     1       0.781   8.376  21.630  0.00  0.00    +0.000 A 
ATOM      5  C   UNL     1       1.477   7.877  20.513  0.00  0.00    +0.000 A 
ATOM      6  C   UNL     1       1.760   8.666  19.402  0.00  0.00    +0.000 A 
ATOM      7  C   UNL     1       2.470   7.833  18.467  0.00  0.00    +0.000 A 
ATOM      8  C   UNL     1       2.955   8.290  17.126  0.00  0.00    +0.000 C 
ATOM      9  C   UNL     1       2.525   6.533  18.993  0.00  0.00    +0.000 A 
ATOM     10  N   UNL     1       1.992   6.611  20.268  0.00  0.00    +0.000 N 
ATOM     11  C   UNL     1       1.927   5.563  21.270  0.00  0.00    +0.000 C 
ENDROOT
BRANCH   9  12
ATOM     12  C   UNL     1       2.990   5.286  18.324  0.00  0.00    +0.000 A 
ATOM     13  C   UNL     1       4.350   5.069  18.058  0.00  0.00    +0.000 A 
ATOM     14  C   UNL     1       4.779   4.001  17.261  0.00  0.00    +0.000 A 
ATOM     15  C   UNL     1       3.859   3.078  16.781  0.00  0.00    +0.000 A 
ATOM     16  C   UNL     1       2.512   3.225  17.098  0.00  0.00    +0.000 A 
ATOM     17  C   UNL     1       2.081   4.334  17.836  0.00  0.00    +0.000 A 
ENDBRANCH   9  12
BRANCH   3  18
ATOM     18  N   UNL     1      -0.405  10.266  22.720  0.00  0.00    +0.000 N 
ATOM     19  O   UNL     1      -1.320  11.066  22.477  0.00  0.00    +0.000 OA
ATOM     20  O   UNL     1      -0.068   9.913  23.859  0.00  0.00    +0.000 OA
ENDBRANCH   3  18
BRANCH   1  22
ATOM     21  C   UNL     1       1.903  12.159  18.565  0.00  0.00    +0.000 C 
ATOM     22  O   UNL     1       1.571  10.797  18.289  0.00  0.00    +0.000 OA
ENDBRANCH   1  22
TORSDOF 3
ENDMDL
