MODEL 1
REMARK VINA RESULT:      -7.1      0.000      0.000
REMARK  Name = 
REMARK  5 active torsions:
REMARK  status: ('A' for Active; 'I' for Inactive)
REMARK    1  A    between atoms: C_1  and  C_2
REMARK    2  A    between atoms: C_2  and  C_3
REMARK    3  A    between atoms: N_5  and  C_6
REMARK    4  A    between atoms: C_13  and  O_14
REMARK    5  A    between atoms: O_14  and  C_15
REMARK                            x       y       z     vdW  Elec       q    Type
REMARK                         _______ _______ _______ _____ _____    ______ ____
ROOT
ATOM      1  C   UNL     1       5.347   3.620  18.296  0.00  0.00    +0.000 C 
ATOM      2  C   UNL     1       4.576   4.059  17.049  0.00  0.00    +0.000 C 
ATOM      3  O   UNL     1       4.031   5.377  17.260  0.00  0.00    +0.000 OA
ATOM      4  C   UNL     1       3.356   5.529  18.448  0.00  0.00    +0.000 A 
ATOM      5  C   UNL     1       2.767   6.777  18.644  0.00  0.00    +0.000 A 
ATOM      6  C   UNL     1       2.028   7.020  19.796  0.00  0.00    +0.000 A 
ATOM      7  C   UNL     1       1.840   5.993  20.722  0.00  0.00    +0.000 A 
ATOM      8  C   UNL     1       2.460   4.750  20.548  0.00  0.00    +0.000 A 
ATOM      9  C   UNL     1       3.314   4.547  19.454  0.00  0.00    +0.000 A 
ATOM     10  C   UNL     1       4.283   3.386  19.379  0.00  0.00    +0.000 C 
ENDROOT
BRANCH   1  13
ATOM     11  C   UNL     1       7.443   5.053  18.023  0.00  0.00    +0.000 C 
ATOM     12  O   UNL     1       7.975   4.408  17.129  0.00  0.00    +0.000 OA
ATOM     13  N   UNL     1       6.267   4.711  18.635  0.00  0.00    +0.000 N 
ATOM     14  H   UNL     1       5.945   5.314  19.384  0.00  0.00    +0.000 HD
BRANCH  11  16
ATOM     15  C   UNL     1       7.683   7.573  17.648  0.00  0.00    +0.000 C 
ATOM     16  C   UNL     1       7.926   6.393  18.558  0.00  0.00    +0.000 C 
ENDBRANCH  11  16
ENDBRANCH   1  13
BRANCH   8  17
ATOM     17  O   UNL     1       2.232   3.851  21.555  0.00  0.00    +0.000 OA
ATOM     18  C   UNL     1       1.305   2.816  21.241  0.00  0.00    +0.000 C 
ENDBRANCH   8  17
TORSDOF 3
ENDMDL
MODEL 2
REMARK VINA RESULT:      -6.9      2.578      4.056
REMARK  Name = 
REMARK  5 active torsions:
REMARK  status: ('A' for Active; 'I' for Inactive)
REMARK    1  A    between atoms: C_1  and  C_2
REMARK    2  A    between atoms: C_2  and  C_3
REMARK    3  A    between atoms: N_5  and  C_6
REMARK    4  A    between atoms: C_13  and  O_14
REMARK    5  A    between atoms: O_14  and  C_15
REMARK                            x       y       z     vdW  Elec       q    Type
REMARK                         _______ _______ _______ _____ _____    ______ ____
ROOT
ATOM      1  C   UNL     1       6.756   5.800  16.726  0.00  0.00    +0.000 C 
ATOM      2  C   UNL     1       6.888   4.868  17.933  0.00  0.00    +0.000 C 
ATOM      3  O   UNL     1       5.672   4.109  18.089  0.00  0.00    +0.000 OA
ATOM      4  C   UNL     1       4.523   4.864  18.057  0.00  0.00    +0.000 A 
ATOM      5  C   UNL     1       3.340   4.159  18.270  0.00  0.00    +0.000 A 
ATOM      6  C   UNL     1       2.127   4.836  18.296  0.00  0.00    +0.000 A 
ATOM      7  C   UNL     1       2.111   6.224  18.161  0.00  0.00    +0.000 A 
ATOM      8  C   UNL     1       3.292   6.933  17.910  0.00  0.00    +0.000 A 
ATOM      9  C   UNL     1       4.499   6.237  17.750  0.00  0.00    +0.000 A 
ATOM     10  C   UNL     1       5.732   6.868  17.138  0.00  0.00    +0.000 C 
ENDROOT
BRANCH   1  13
ATOM     11  C   UNL     1       6.843   4.863  14.352  0.00  0.00    +0.000 C 
ATOM     12  O   UNL     1       7.782   5.531  13.940  0.00  0.00    +0.000 OA
ATOM     13  N   UNL     1       6.293   4.981  15.601  0.00  0.00    +0.000 N 
ATOM     14  H   UNL     1       5.498   4.388  15.811  0.00  0.00    +0.000 HD
BRANCH  11  16
ATOM     15  C   UNL     1       6.576   3.575  12.157  0.00  0.00    +0.000 C 
ATOM     16  C   UNL     1       6.172   3.720  13.605  0.00  0.00    +0.000 C 
ENDBRANCH  11  16
ENDBRANCH   1  13
BRANCH   8  17
ATOM     17  O   UNL     1       3.126   8.282  17.748  0.00  0.00    +0.000 OA
ATOM     18  C   UNL     1       1.892   8.801  18.237  0.00  0.00    +0.000 C 
ENDBRANCH   8  17
TORSDOF 3
ENDMDL
MODEL 3
REMARK VINA RESULT:      -6.8      1.878      5.334
REMARK  Name = 
REMARK  5 active torsions:
REMARK  status: ('A' for Active; 'I' for Inactive)
REMARK    1  A    between atoms: C_1  and  C_2
REMARK    2  A    between atoms: C_2  and  C_3
REMARK    3  A    between atoms: N_5  and  C_6
REMARK    4  A    between atoms: C_13  and  O_14
REMARK    5  A    between atoms: O_14  and  C_15
REMARK                            x       y       z     vdW  Elec       q    Type
REMARK                         _______ _______ _______ _____ _____    ______ ____
ROOT
ATOM      1  C   UNL     1       3.146   3.233  18.405  0.00  0.00    +0.000 C 
ATOM      2  C   UNL     1       4.225   2.618  19.299  0.00  0.00    +0.000 C 
ATOM      3  O   UNL     1       5.185   3.631  19.660  0.00  0.00    +0.000 OA
ATOM      4  C   UNL     1       5.656   4.370  18.601  0.00  0.00    +0.000 A 
ATOM      5  C   UNL     1       6.633   5.313  18.918  0.00  0.00    +0.000 A 
ATOM      6  C   UNL     1       7.202   6.084  17.912  0.00  0.00    +0.000 A 
ATOM      7  C   UNL     1       6.827   5.870  16.585  0.00  0.00    +0.000 A 
ATOM      8  C   UNL     1       5.821   4.951  16.265  0.00  0.00    +0.000 A 
ATOM      9  C   UNL     1       5.151   4.269  17.292  0.00  0.00    +0.000 A 
ATOM     10  C   UNL     1       3.842   3.542  17.070  0.00  0.00    +0.000 C 
ENDROOT
BRANCH   1  13
ATOM     11  C   UNL     1       1.699   4.548  20.046  0.00  0.00    +0.000 C 
ATOM     12  O   UNL     1       0.990   3.626  20.424  0.00  0.00    +0.000 OA
ATOM     13  N   UNL     1       2.666   4.442  19.083  0.00  0.00    +0.000 N 
ATOM     14  H   UNL     1       3.167   5.288  18.837  0.00  0.00    +0.000 HD
BRANCH  11  16
ATOM     15  C   UNL     1       2.210   7.031  19.694  0.00  0.00    +0.000 C 
ATOM     16  C   UNL     1       1.711   5.954  20.628  0.00  0.00    +0.000 C 
ENDBRANCH  11  16
ENDBRANCH   1  13
BRANCH   8  17
ATOM     17  O   UNL     1       5.517   4.877  14.933  0.00  0.00    +0.000 OA
ATOM     18  C   UNL     1       6.349   4.005  14.172  0.00  0.00    +0.000 C 
ENDBRANCH   8  17
TORSDOF 3
ENDMDL
MODEL 4
REMARK VINA RESULT:      -6.6      1.216      1.326
REMARK  Name = 
REMARK  5 active torsions:
REMARK  status: ('A' for Active; 'I' for Inactive)
REMARK    1  A    between atoms: C_1  and  C_2
REMARK    2  A    between atoms: C_2  and  C_3
REMARK    3  A    between atoms: N_5  and  C_6
REMARK    4  A    between atoms: C_13  and  O_14
REMARK    5  A    between atoms: O_14  and  C_15
REMARK                            x       y       z     vdW  Elec       q    Type
REMARK                         _______ _______ _______ _____ _____    ______ ____
ROOT
ATOM      1  C   UNL     1       5.076   3.551  16.855  0.00  0.00    +0.000 C 
ATOM      2  C   UNL     1       4.529   4.702  16.006  0.00  0.00    +0.000 C 
ATOM      3  O   UNL     1       4.207   5.818  16.860  0.00  0.00    +0.000 OA
ATOM      4  C   UNL     1       3.449   5.492  17.960  0.00  0.00    +0.000 A 
ATOM      5  C   UNL     1       3.072   6.565  18.765  0.00  0.00    +0.000 A 
ATOM      6  C   UNL     1       2.271   6.345  19.880  0.00  0.00    +0.000 A 
ATOM      7  C   UNL     1       1.809   5.058  20.152  0.00  0.00    +0.000 A 
ATOM      8  C   UNL     1       2.213   3.971  19.368  0.00  0.00    +0.000 A 
ATOM      9  C   UNL     1       3.129   4.170  18.324  0.00  0.00    +0.000 A 
ATOM     10  C   UNL     1       3.880   3.032  17.667  0.00  0.00    +0.000 C 
ENDROOT
BRANCH   1  13
ATOM     11  C   UNL     1       7.373   4.558  17.333  0.00  0.00    +0.000 C 
ATOM     12  O   UNL     1       7.840   4.458  16.207  0.00  0.00    +0.000 OA
ATOM     13  N   UNL     1       6.133   4.111  17.704  0.00  0.00    +0.000 N 
ATOM     14  H   UNL     1       5.873   4.228  18.676  0.00  0.00    +0.000 HD
BRANCH  11  16
ATOM     15  C   UNL     1       7.098   5.632  19.639  0.00  0.00    +0.000 C 
ATOM     16  C   UNL     1       8.028   5.275  18.505  0.00  0.00    +0.000 C 
ENDBRANCH  11  16
ENDBRANCH   1  13
BRANCH   8  17
ATOM     17  O   UNL     1       1.726   2.759  19.775  0.00  0.00    +0.000 OA
ATOM     18  C   UNL     1       1.648   2.584  21.188  0.00  0.00    +0.000 C 
ENDBRANCH   8  17
TORSDOF 3
ENDMDL
MODEL 5
REMARK VINA RESULT:      -6.6      1.285      1.364
REMARK  Name = 
REMARK  5 active torsions:
REMARK  status: ('A' for Active; 'I' for Inactive)
REMARK    1  A    between atoms: C_1  and  C_2
REMARK    2  A    between atoms: C_2  and  C_3
REMARK    3  A    between atoms: N_5  and  C_6
REMARK    4  A    between atoms: C_13  and  O_14
REMARK    5  A    between atoms: O_14  and  C_15
REMARK                            x       y       z     vdW  Elec       q    Type
REMARK                         _______ _______ _______ _____ _____    ______ ____
ROOT
ATOM      1  C   UNL     1       5.858   4.519  17.664  0.00  0.00    +0.000 C 
ATOM      2  C   UNL     1       5.082   4.799  16.375  0.00  0.00    +0.000 C 
ATOM      3  O   UNL     1       4.439   6.086  16.470  0.00  0.00    +0.000 OA
ATOM      4  C   UNL     1       3.731   6.283  17.632  0.00  0.00    +0.000 A 
ATOM      5  C   UNL     1       3.050   7.495  17.718  0.00  0.00    +0.000 A 
ATOM      6  C   UNL     1       2.273   7.774  18.836  0.00  0.00    +0.000 A 
ATOM      7  C   UNL     1       2.141   6.814  19.839  0.00  0.00    +0.000 A 
ATOM      8  C   UNL     1       2.852   5.610  19.776  0.00  0.00    +0.000 A 
ATOM      9  C   UNL     1       3.741   5.383  18.714  0.00  0.00    +0.000 A 
ATOM     10  C   UNL     1       4.792   4.295  18.748  0.00  0.00    +0.000 C 
ENDROOT
BRANCH   1  13
ATOM     11  C   UNL     1       7.464   5.964  19.025  0.00  0.00    +0.000 C 
ATOM     12  O   UNL     1       7.497   5.276  20.036  0.00  0.00    +0.000 OA
ATOM     13  N   UNL     1       6.689   5.699  17.927  0.00  0.00    +0.000 N 
ATOM     14  H   UNL     1       6.729   6.363  17.163  0.00  0.00    +0.000 HD
BRANCH  11  16
ATOM     15  C   UNL     1       7.869   8.061  17.615  0.00  0.00    +0.000 C 
ATOM     16  C   UNL     1       8.334   7.182  18.751  0.00  0.00    +0.000 C 
ENDBRANCH  11  16
ENDBRANCH   1  13
BRANCH   8  17
ATOM     17  O   UNL     1       2.670   4.781  20.849  0.00  0.00    +0.000 OA
ATOM     18  C   UNL     1       1.449   4.045  20.843  0.00  0.00    +0.000 C 
ENDBRANCH   8  17
TORSDOF 3
ENDMDL
MODEL 6
REMARK VINA RESULT:      -6.5      1.918      2.603
REMARK  Name = 
REMARK  5 active torsions:
REMARK  status: ('A' for Active; 'I' for Inactive)
REMARK    1  A    between atoms: C_1  and  C_2
REMARK    2  A    between atoms: C_2  and  C_3
REMARK    3  A    between atoms: N_5  and  C_6
REMARK    4  A    between atoms: C_13  and  O_14
REMARK    5  A    between atoms: O_14  and  C_15
REMARK                            x       y       z     vdW  Elec       q    Type
REMARK                         _______ _______ _______ _____ _____    ______ ____
ROOT
ATOM      1  C   UNL     1       7.026   5.569  16.320  0.00  0.00    +0.000 C 
ATOM      2  C   UNL     1       5.874   5.587  15.313  0.00  0.00    +0.000 C 
ATOM      3  O   UNL     1       4.742   6.270  15.889  0.00  0.00    +0.000 OA
ATOM      4  C   UNL     1       4.407   5.847  17.154  0.00  0.00    +0.000 A 
ATOM      5  C   UNL     1       3.277   6.450  17.704  0.00  0.00    +0.000 A 
ATOM      6  C   UNL     1       2.831   6.063  18.963  0.00  0.00    +0.000 A 
ATOM      7  C   UNL     1       3.490   5.037  19.641  0.00  0.00    +0.000 A 
ATOM      8  C   UNL     1       4.646   4.454  19.109  0.00  0.00    +0.000 A 
ATOM      9  C   UNL     1       5.174   4.935  17.902  0.00  0.00    +0.000 A 
ATOM     10  C   UNL     1       6.581   4.618  17.441  0.00  0.00    +0.000 C 
ENDROOT
BRANCH   1  13
ATOM     11  C   UNL     1       7.823   7.382  17.931  0.00  0.00    +0.000 C 
ATOM     12  O   UNL     1       8.242   6.651  18.817  0.00  0.00    +0.000 OA
ATOM     13  N   UNL     1       7.206   6.947  16.789  0.00  0.00    +0.000 N 
ATOM     14  H   UNL     1       6.877   7.656  16.145  0.00  0.00    +0.000 HD
BRANCH  11  16
ATOM     15  C   UNL     1       8.941   9.473  18.895  0.00  0.00    +0.000 C 
ATOM     16  C   UNL     1       7.986   8.895  17.878  0.00  0.00    +0.000 C 
ENDBRANCH  11  16
ENDBRANCH   1  13
BRANCH   8  17
ATOM     17  O   UNL     1       5.219   3.496  19.900  0.00  0.00    +0.000 OA
ATOM     18  C   UNL     1       4.463   2.295  20.038  0.00  0.00    +0.000 C 
ENDBRANCH   8  17
TORSDOF 3
ENDMDL
MODEL 7
REMARK VINA RESULT:      -6.5      0.999      1.054
REMARK  Name = 
REMARK  5 active torsions:
REMARK  status: ('A' for Active; 'I' for Inactive)
REMARK    1  A    between atoms: C_1  and  C_2
REMARK    2  A    between atoms: C_2  and  C_3
REMARK    3  A    between atoms: N_5  and  C_6
REMARK    4  A    between atoms: C_13  and  O_14
REMARK    5  A    between atoms: O_14  and  C_15
REMARK                            x       y       z     vdW  Elec       q    Type
REMARK                         _______ _______ _______ _____ _____    ______ ____
ROOT
ATOM      1  C   UNL     1       5.469   4.272  17.169  0.00  0.00    +0.000 C 
ATOM      2  C   UNL     1       4.601   5.086  16.206  0.00  0.00    +0.000 C 
ATOM      3  O   UNL     1       4.023   6.205  16.909  0.00  0.00    +0.000 OA
ATOM      4  C   UNL     1       3.423   5.877  18.102  0.00  0.00    +0.000 A 
ATOM      5  C   UNL     1       2.803   6.932  18.767  0.00  0.00    +0.000 A 
ATOM      6  C   UNL     1       2.133   6.698  19.963  0.00  0.00    +0.000 A 
ATOM      7  C   UNL     1       2.045   5.397  20.459  0.00  0.00    +0.000 A 
ATOM      8  C   UNL     1       2.697   4.340  19.814  0.00  0.00    +0.000 A 
ATOM      9  C   UNL     1       3.485   4.596  18.681  0.00  0.00    +0.000 A 
ATOM     10  C   UNL     1       4.489   3.600  18.142  0.00  0.00    +0.000 C 
ENDROOT
BRANCH   1  13
ATOM     11  C   UNL     1       7.301   6.048  17.275  0.00  0.00    +0.000 C 
ATOM     12  O   UNL     1       7.606   6.048  16.090  0.00  0.00    +0.000 OA
ATOM     13  N   UNL     1       6.368   5.218  17.838  0.00  0.00    +0.000 N 
ATOM     14  H   UNL     1       6.227   5.297  18.838  0.00  0.00    +0.000 HD
BRANCH  11  16
ATOM     15  C   UNL     1       8.000   8.442  17.849  0.00  0.00    +0.000 C 
ATOM     16  C   UNL     1       7.819   7.020  18.325  0.00  0.00    +0.000 C 
ENDBRANCH  11  16
ENDBRANCH   1  13
BRANCH   8  17
ATOM     17  O   UNL     1       2.570   3.126  20.433  0.00  0.00    +0.000 OA
ATOM     18  C   UNL     1       2.108   3.182  21.781  0.00  0.00    +0.000 C 
ENDBRANCH   8  17
TORSDOF 3
ENDMDL
MODEL 8
REMARK VINA RESULT:      -6.5      2.329      3.830
REMARK  Name = 
REMARK  5 active torsions:
REMARK  status: ('A' for Active; 'I' for Inactive)
REMARK    1  A    between atoms: C_1  and  C_2
REMARK    2  A    between atoms: C_2  and  C_3
REMARK    3  A    between atoms: N_5  and  C_6
REMARK    4  A    between atoms: C_13  and  O_14
REMARK    5  A    between atoms: O_14  and  C_15
REMARK                            x       y       z     vdW  Elec       q    Type
REMARK                         _______ _______ _______ _____ _____    ______ ____
ROOT
ATOM      1  C   UNL     1       6.631   6.151  16.856  0.00  0.00    +0.000 C 
ATOM      2  C   UNL     1       7.383   5.273  17.859  0.00  0.00    +0.000 C 
ATOM      3  O   UNL     1       6.560   4.145  18.222  0.00  0.00    +0.000 OA
ATOM      4  C   UNL     1       5.274   4.472  18.580  0.00  0.00    +0.000 A 
ATOM      5  C   UNL     1       4.481   3.404  18.995  0.00  0.00    +0.000 A 
ATOM      6  C   UNL     1       3.176   3.635  19.416  0.00  0.00    +0.000 A 
ATOM      7  C   UNL     1       2.690   4.941  19.469  0.00  0.00    +0.000 A 
ATOM      8  C   UNL     1       3.470   6.013  19.019  0.00  0.00    +0.000 A 
ATOM      9  C   UNL     1       4.737   5.768  18.468  0.00  0.00    +0.000 A 
ATOM     10  C   UNL     1       5.486   6.798  17.649  0.00  0.00    +0.000 C 
ENDROOT
BRANCH   1  13
ATOM     11  C   UNL     1       6.767   4.936  14.614  0.00  0.00    +0.000 C 
ATOM     12  O   UNL     1       7.811   5.434  14.214  0.00  0.00    +0.000 OA
ATOM     13  N   UNL     1       6.148   5.265  15.791  0.00  0.00    +0.000 N 
ATOM     14  H   UNL     1       5.271   4.802  15.995  0.00  0.00    +0.000 HD
BRANCH  11  16
ATOM     15  C   UNL     1       6.347   3.581  12.484  0.00  0.00    +0.000 C 
ATOM     16  C   UNL     1       6.010   3.802  13.940  0.00  0.00    +0.000 C 
ENDBRANCH  11  16
ENDBRANCH   1  13
BRANCH   8  17
ATOM     17  O   UNL     1       2.854   7.234  19.078  0.00  0.00    +0.000 OA
ATOM     18  C   UNL     1       2.174   7.625  17.888  0.00  0.00    +0.000 C 
ENDBRANCH   8  17
TORSDOF 3
ENDMDL
MODEL 9
REMARK VINA RESULT:      -6.4      1.510      2.144
REMARK  Name = 
REMARK  5 active torsions:
REMARK  status: ('A' for Active; 'I' for Inactive)
REMARK    1  A    between atoms: C_1  and  C_2
REMARK    2  A    between atoms: C_2  and  C_3
REMARK    3  A    between atoms: N_5  and  C_6
REMARK    4  A    between atoms: C_13  and  O_14
REMARK    5  A    between atoms: O_14  and  C_15
REMARK                            x       y       z     vdW  Elec       q    Type
REMARK                         _______ _______ _______ _____ _____    ______ ____
ROOT
ATOM      1  C   UNL     1       5.019   4.617  19.092  0.00  0.00    +0.000 C 
ATOM      2  C   UNL     1       4.600   4.422  17.633  0.00  0.00    +0.000 C 
ATOM      3  O   UNL     1       4.378   5.709  17.021  0.00  0.00    +0.000 OA
ATOM      4  C   UNL     1       3.576   6.554  17.751  0.00  0.00    +0.000 A 
ATOM      5  C   UNL     1       3.297   7.779  17.149  0.00  0.00    +0.000 A 
ATOM      6  C   UNL     1       2.463   8.690  17.788  0.00  0.00    +0.000 A 
ATOM      7  C   UNL     1       1.872   8.345  19.004  0.00  0.00    +0.000 A 
ATOM      8  C   UNL     1       2.178   7.132  19.630  0.00  0.00    +0.000 A 
ATOM      9  C   UNL     1       3.123   6.270  19.052  0.00  0.00    +0.000 A 
ATOM     10  C   UNL     1       3.767   5.133  19.816  0.00  0.00    +0.000 C 
ENDROOT
BRANCH   1  13
ATOM     11  C   UNL     1       7.395   5.434  18.636  0.00  0.00    +0.000 C 
ATOM     12  O   UNL     1       7.863   4.378  18.233  0.00  0.00    +0.000 OA
ATOM     13  N   UNL     1       6.115   5.592  19.096  0.00  0.00    +0.000 N 
ATOM     14  H   UNL     1       5.857   6.513  19.431  0.00  0.00    +0.000 HD
BRANCH  11  16
ATOM     15  C   UNL     1       7.611   7.750  17.571  0.00  0.00    +0.000 C 
ATOM     16  C   UNL     1       8.101   6.781  18.620  0.00  0.00    +0.000 C 
ENDBRANCH  11  16
ENDBRANCH   1  13
BRANCH   8  17
ATOM     17  O   UNL     1       1.569   6.943  20.841  0.00  0.00    +0.000 OA
ATOM     18  C   UNL     1       1.037   8.123  21.439  0.00  0.00    +0.000 C 
ENDBRANCH   8  17
TORSDOF 3
ENDMDL
