MODEL 1
REMARK VINA RESULT:      -7.0      0.000      0.000
REMARK  Name = 
REMARK  1 active torsions:
REMARK  status: ('A' for Active; 'I' for Inactive)
REMARK    1  A    between atoms: C_17  and  O_18
REMARK                            x       y       z     vdW  Elec       q    Type
REMARK                         _______ _______ _______ _____ _____    ______ ____
ROOT
ATOM      1  O   UNL     1      -0.536  13.483  22.423  0.00  0.00    +0.000 OA
ATOM      2  C   UNL     1      -0.955  12.836  21.452  0.00  0.00    +0.000 C 
ATOM      3  C   UNL     1      -0.875  11.383  21.548  0.00  0.00    +0.000 A 
ATOM      4  C   UNL     1      -0.555  10.849  22.808  0.00  0.00    +0.000 A 
ATOM      5  C   UNL     1       0.040   9.610  22.882  0.00  0.00    +0.000 A 
ATOM      6  F   UNL     1       0.467   9.150  24.064  0.00  0.00    +0.000 F 
ATOM      7  C   UNL     1       0.276   8.883  21.722  0.00  0.00    +0.000 A 
ATOM      8  C   UNL     1      -0.213   9.347  20.493  0.00  0.00    +0.000 A 
ATOM      9  C   UNL     1      -0.850  10.594  20.400  0.00  0.00    +0.000 A 
ATOM     10  S   UNL     1      -1.567  11.138  18.871  0.00  0.00    +0.000 S 
ATOM     11  C   UNL     1      -2.280  12.736  19.344  0.00  0.00    +0.000 C 
ATOM     12  C   UNL     1      -3.663  12.715  19.930  0.00  0.00    +0.000 A 
ATOM     13  N   UNL     1      -4.766  12.013  19.499  0.00  0.00    +0.000 N 
ATOM     14  C   UNL     1      -5.770  12.122  20.446  0.00  0.00    +0.000 A 
ATOM     15  C   UNL     1      -7.033  11.520  20.515  0.00  0.00    +0.000 A 
ATOM     16  C   UNL     1      -7.767  11.690  21.697  0.00  0.00    +0.000 A 
ATOM     17  C   UNL     1      -7.260  12.449  22.745  0.00  0.00    +0.000 A 
ATOM     18  C   UNL     1      -6.056  13.138  22.624  0.00  0.00    +0.000 A 
ATOM     19  C   UNL     1      -5.309  12.981  21.445  0.00  0.00    +0.000 A 
ATOM     20  C   UNL     1      -4.092  13.523  20.981  0.00  0.00    +0.000 A 
ATOM     21  C   UNL     1      -3.244  14.622  21.544  0.00  0.00    +0.000 C 
ATOM     22  C   UNL     1      -1.984  14.800  20.653  0.00  0.00    +0.000 C 
ATOM     23  N   UNL     1      -1.462  13.466  20.317  0.00  0.00    +0.000 N 
ATOM     24  H   UNL     1      -4.812  11.428  18.675  0.00  0.00    +0.000 HD
ENDROOT
BRANCH  17  25
ATOM     25  O   UNL     1      -7.915  12.545  23.939  0.00  0.00    +0.000 OA
ATOM     26  H   UNL     1      -8.411  11.723  24.084  0.00  0.00    +0.000 HD
ENDBRANCH  17  25
TORSDOF 1
ENDMDL
MODEL 2
REMARK VINA RESULT:      -6.9      4.034      6.953
REMARK  Name = 
REMARK  1 active torsions:
REMARK  status: ('A' for Active; 'I' for Inactive)
REMARK    1  A    between atoms: C_17  and  O_18
REMARK                            x       y       z     vdW  Elec       q    Type
REMARK                         _______ _______ _______ _____ _____    ______ ____
ROOT
ATOM      1  O   UNL     1      -2.587  12.481  20.663  0.00  0.00    +0.000 OA
ATOM      2  C   UNL     1      -1.613  11.907  20.156  0.00  0.00    +0.000 C 
ATOM      3  C   UNL     1      -1.751  11.481  18.768  0.00  0.00    +0.000 A 
ATOM      4  C   UNL     1      -2.870  11.962  18.068  0.00  0.00    +0.000 A 
ATOM      5  C   UNL     1      -3.356  11.243  17.000  0.00  0.00    +0.000 A 
ATOM      6  F   UNL     1      -4.496  11.620  16.410  0.00  0.00    +0.000 F 
ATOM      7  C   UNL     1      -2.714  10.077  16.598  0.00  0.00    +0.000 A 
ATOM      8  C   UNL     1      -1.497   9.710  17.189  0.00  0.00    +0.000 A 
ATOM      9  C   UNL     1      -0.967  10.448  18.259  0.00  0.00    +0.000 A 
ATOM     10  S   UNL     1       0.623  10.053  18.938  0.00  0.00    +0.000 S 
ATOM     11  C   UNL     1       0.812  11.332  20.208  0.00  0.00    +0.000 C 
ATOM     12  C   UNL     1       1.380  12.650  19.765  0.00  0.00    +0.000 A 
ATOM     13  N   UNL     1       2.460  12.885  18.944  0.00  0.00    +0.000 N 
ATOM     14  C   UNL     1       2.508  14.233  18.633  0.00  0.00    +0.000 A 
ATOM     15  C   UNL     1       3.351  14.944  17.769  0.00  0.00    +0.000 A 
ATOM     16  C   UNL     1       3.041  16.290  17.526  0.00  0.00    +0.000 A 
ATOM     17  C   UNL     1       1.950  16.890  18.143  0.00  0.00    +0.000 A 
ATOM     18  C   UNL     1       1.187  16.209  19.088  0.00  0.00    +0.000 A 
ATOM     19  C   UNL     1       1.485  14.861  19.345  0.00  0.00    +0.000 A 
ATOM     20  C   UNL     1       0.953  13.894  20.224  0.00  0.00    +0.000 A 
ATOM     21  C   UNL     1      -0.035  14.039  21.341  0.00  0.00    +0.000 C 
ATOM     22  C   UNL     1      -0.300  12.644  21.970  0.00  0.00    +0.000 C 
ATOM     23  N   UNL     1      -0.447  11.665  20.882  0.00  0.00    +0.000 N 
ATOM     24  H   UNL     1       3.068  12.180  18.547  0.00  0.00    +0.000 HD
ENDROOT
BRANCH  17  25
ATOM     25  O   UNL     1       1.575  18.168  17.844  0.00  0.00    +0.000 OA
ATOM     26  H   UNL     1       0.607  18.226  17.903  0.00  0.00    +0.000 HD
ENDBRANCH  17  25
TORSDOF 1
ENDMDL
MODEL 3
REMARK VINA RESULT:      -6.8      4.144      5.854
REMARK  Name = 
REMARK  1 active torsions:
REMARK  status: ('A' for Active; 'I' for Inactive)
REMARK    1  A    between atoms: C_17  and  O_18
REMARK                            x       y       z     vdW  Elec       q    Type
REMARK                         _______ _______ _______ _____ _____    ______ ____
ROOT
ATOM      1  O   UNL     1       1.891  12.462  20.037  0.00  0.00    +0.000 OA
ATOM      2  C   UNL     1       0.799  12.994  20.283  0.00  0.00    +0.000 C 
ATOM      3  C   UNL     1       0.559  14.306  19.693  0.00  0.00    +0.000 A 
ATOM      4  C   UNL     1       1.476  14.738  18.720  0.00  0.00    +0.000 A 
ATOM      5  C   UNL     1       1.645  16.087  18.507  0.00  0.00    +0.000 A 
ATOM      6  F   UNL     1       2.607  16.512  17.680  0.00  0.00    +0.000 F 
ATOM      7  C   UNL     1       0.880  17.004  19.220  0.00  0.00    +0.000 A 
ATOM      8  C   UNL     1      -0.156  16.555  20.051  0.00  0.00    +0.000 A 
ATOM      9  C   UNL     1      -0.365  15.183  20.257  0.00  0.00    +0.000 A 
ATOM     10  S   UNL     1      -1.740  14.607  21.220  0.00  0.00    +0.000 S 
ATOM     11  C   UNL     1      -1.549  12.809  21.099  0.00  0.00    +0.000 C 
ATOM     12  C   UNL     1      -2.166  12.139  19.904  0.00  0.00    +0.000 A 
ATOM     13  N   UNL     1      -3.412  12.343  19.355  0.00  0.00    +0.000 N 
ATOM     14  C   UNL     1      -3.491  11.672  18.147  0.00  0.00    +0.000 A 
ATOM     15  C   UNL     1      -4.502  11.646  17.178  0.00  0.00    +0.000 A 
ATOM     16  C   UNL     1      -4.218  11.005  15.964  0.00  0.00    +0.000 A 
ATOM     17  C   UNL     1      -2.985  10.401  15.751  0.00  0.00    +0.000 A 
ATOM     18  C   UNL     1      -2.028  10.332  16.761  0.00  0.00    +0.000 A 
ATOM     19  C   UNL     1      -2.297  10.967  17.985  0.00  0.00    +0.000 A 
ATOM     20  C   UNL     1      -1.591  11.083  19.200  0.00  0.00    +0.000 A 
ATOM     21  C   UNL     1      -0.344  10.396  19.666  0.00  0.00    +0.000 C 
ATOM     22  C   UNL     1       0.025  10.915  21.082  0.00  0.00    +0.000 C 
ATOM     23  N   UNL     1      -0.148  12.377  21.100  0.00  0.00    +0.000 N 
ATOM     24  H   UNL     1      -4.126  12.962  19.718  0.00  0.00    +0.000 HD
ENDROOT
BRANCH  17  25
ATOM     25  O   UNL     1      -2.654   9.859  14.543  0.00  0.00    +0.000 OA
ATOM     26  H   UNL     1      -2.948   8.933  14.531  0.00  0.00    +0.000 HD
ENDBRANCH  17  25
TORSDOF 1
ENDMDL
MODEL 4
REMARK VINA RESULT:      -6.8      0.999      1.233
REMARK  Name = 
REMARK  1 active torsions:
REMARK  status: ('A' for Active; 'I' for Inactive)
REMARK    1  A    between atoms: C_17  and  O_18
REMARK                            x       y       z     vdW  Elec       q    Type
REMARK                         _______ _______ _______ _____ _____    ______ ____
ROOT
ATOM      1  O   UNL     1      -0.482  13.325  22.442  0.00  0.00    +0.000 OA
ATOM      2  C   UNL     1      -0.576  12.685  21.384  0.00  0.00    +0.000 C 
ATOM      3  C   UNL     1      -0.431  11.237  21.477  0.00  0.00    +0.000 A 
ATOM      4  C   UNL     1      -0.434  10.684  22.769  0.00  0.00    +0.000 A 
ATOM      5  C   UNL     1       0.196   9.480  22.987  0.00  0.00    +0.000 A 
ATOM      6  F   UNL     1       0.314   9.009  24.233  0.00  0.00    +0.000 F 
ATOM      7  C   UNL     1       0.788   8.804  21.925  0.00  0.00    +0.000 A 
ATOM      8  C   UNL     1       0.624   9.278  20.616  0.00  0.00    +0.000 A 
ATOM      9  C   UNL     1      -0.042  10.487  20.369  0.00  0.00    +0.000 A 
ATOM     10  S   UNL     1      -0.347  11.037  18.710  0.00  0.00    +0.000 S 
ATOM     11  C   UNL     1      -1.264  12.574  18.991  0.00  0.00    +0.000 C 
ATOM     12  C   UNL     1      -2.751  12.455  19.175  0.00  0.00    +0.000 A 
ATOM     13  N   UNL     1      -3.646  11.703  18.448  0.00  0.00    +0.000 N 
ATOM     14  C   UNL     1      -4.876  11.723  19.083  0.00  0.00    +0.000 A 
ATOM     15  C   UNL     1      -6.067  11.046  18.793  0.00  0.00    +0.000 A 
ATOM     16  C   UNL     1      -7.107  11.136  19.730  0.00  0.00    +0.000 A 
ATOM     17  C   UNL     1      -6.956  11.890  20.888  0.00  0.00    +0.000 A 
ATOM     18  C   UNL     1      -5.811  12.651  21.112  0.00  0.00    +0.000 A 
ATOM     19  C   UNL     1      -4.762  12.575  20.182  0.00  0.00    +0.000 A 
ATOM     20  C   UNL     1      -3.503  13.202  20.078  0.00  0.00    +0.000 A 
ATOM     21  C   UNL     1      -2.914  14.331  20.868  0.00  0.00    +0.000 C 
ATOM     22  C   UNL     1      -1.473  14.610  20.360  0.00  0.00    +0.000 C 
ATOM     23  N   UNL     1      -0.793  13.320  20.162  0.00  0.00    +0.000 N 
ATOM     24  H   UNL     1      -3.427  11.142  17.634  0.00  0.00    +0.000 HD
ENDROOT
BRANCH  17  25
ATOM     25  O   UNL     1      -7.917  11.909  21.858  0.00  0.00    +0.000 OA
ATOM     26  H   UNL     1      -7.545  12.332  22.650  0.00  0.00    +0.000 HD
ENDBRANCH  17  25
TORSDOF 1
ENDMDL
MODEL 5
REMARK VINA RESULT:      -6.7      4.476      6.057
REMARK  Name = 
REMARK  1 active torsions:
REMARK  status: ('A' for Active; 'I' for Inactive)
REMARK    1  A    between atoms: C_17  and  O_18
REMARK                            x       y       z     vdW  Elec       q    Type
REMARK                         _______ _______ _______ _____ _____    ______ ____
ROOT
ATOM      1  O   UNL     1       2.684  11.410  18.301  0.00  0.00    +0.000 OA
ATOM      2  C   UNL     1       1.817  11.890  19.046  0.00  0.00    +0.000 C 
ATOM      3  C   UNL     1       1.582  13.326  18.943  0.00  0.00    +0.000 A 
ATOM      4  C   UNL     1       2.182  13.987  17.858  0.00  0.00    +0.000 A 
ATOM      5  C   UNL     1       2.458  15.331  17.959  0.00  0.00    +0.000 A 
ATOM      6  F   UNL     1       3.146  15.942  16.987  0.00  0.00    +0.000 F 
ATOM      7  C   UNL     1       2.102  16.029  19.108  0.00  0.00    +0.000 A 
ATOM      8  C   UNL     1       1.344  15.397  20.103  0.00  0.00    +0.000 A 
ATOM      9  C   UNL     1       1.024  14.034  20.005  0.00  0.00    +0.000 A 
ATOM     10  S   UNL     1      -0.026  13.256  21.204  0.00  0.00    +0.000 S 
ATOM     11  C   UNL     1      -0.137  11.567  20.559  0.00  0.00    +0.000 C 
ATOM     12  C   UNL     1      -1.197  11.301  19.528  0.00  0.00    +0.000 A 
ATOM     13  N   UNL     1      -2.513  11.707  19.528  0.00  0.00    +0.000 N 
ATOM     14  C   UNL     1      -3.074  11.422  18.295  0.00  0.00    +0.000 A 
ATOM     15  C   UNL     1      -4.340  11.721  17.774  0.00  0.00    +0.000 A 
ATOM     16  C   UNL     1      -4.560  11.453  16.416  0.00  0.00    +0.000 A 
ATOM     17  C   UNL     1      -3.560  10.890  15.632  0.00  0.00    +0.000 A 
ATOM     18  C   UNL     1      -2.346  10.490  16.184  0.00  0.00    +0.000 A 
ATOM     19  C   UNL     1      -2.109  10.749  17.544  0.00  0.00    +0.000 A 
ATOM     20  C   UNL     1      -1.036  10.476  18.418  0.00  0.00    +0.000 A 
ATOM     21  C   UNL     1       0.186   9.634  18.216  0.00  0.00    +0.000 C 
ATOM     22  C   UNL     1       1.066   9.700  19.495  0.00  0.00    +0.000 C 
ATOM     23  N   UNL     1       1.113  11.098  19.953  0.00  0.00    +0.000 N 
ATOM     24  H   UNL     1      -2.976  12.219  20.267  0.00  0.00    +0.000 HD
ENDROOT
BRANCH  17  25
ATOM     25  O   UNL     1      -3.722  10.713  14.288  0.00  0.00    +0.000 OA
ATOM     26  H   UNL     1      -3.085  10.043  13.987  0.00  0.00    +0.000 HD
ENDBRANCH  17  25
TORSDOF 1
ENDMDL
MODEL 6
REMARK VINA RESULT:      -6.6      4.427      6.762
REMARK  Name = 
REMARK  1 active torsions:
REMARK  status: ('A' for Active; 'I' for Inactive)
REMARK    1  A    between atoms: C_17  and  O_18
REMARK                            x       y       z     vdW  Elec       q    Type
REMARK                         _______ _______ _______ _____ _____    ______ ____
ROOT
ATOM      1  O   UNL     1      -0.655  10.133  17.466  0.00  0.00    +0.000 OA
ATOM      2  C   UNL     1      -0.410  10.232  18.677  0.00  0.00    +0.000 C 
ATOM      3  C   UNL     1       0.734   9.480  19.179  0.00  0.00    +0.000 A 
ATOM      4  C   UNL     1       1.585   8.908  18.218  0.00  0.00    +0.000 A 
ATOM      5  C   UNL     1       2.332   7.803  18.555  0.00  0.00    +0.000 A 
ATOM      6  F   UNL     1       3.044   7.172  17.613  0.00  0.00    +0.000 F 
ATOM      7  C   UNL     1       2.273   7.291  19.846  0.00  0.00    +0.000 A 
ATOM      8  C   UNL     1       1.563   7.980  20.839  0.00  0.00    +0.000 A 
ATOM      9  C   UNL     1       0.820   9.128  20.524  0.00  0.00    +0.000 A 
ATOM     10  S   UNL     1       0.009  10.064  21.794  0.00  0.00    +0.000 S 
ATOM     11  C   UNL     1      -0.719  11.424  20.844  0.00  0.00    +0.000 C 
ATOM     12  C   UNL     1       0.156  12.619  20.587  0.00  0.00    +0.000 A 
ATOM     13  N   UNL     1       0.982  13.280  21.468  0.00  0.00    +0.000 N 
ATOM     14  C   UNL     1       1.757  14.188  20.767  0.00  0.00    +0.000 A 
ATOM     15  C   UNL     1       2.800  15.021  21.190  0.00  0.00    +0.000 A 
ATOM     16  C   UNL     1       3.518  15.712  20.204  0.00  0.00    +0.000 A 
ATOM     17  C   UNL     1       3.182  15.584  18.861  0.00  0.00    +0.000 A 
ATOM     18  C   UNL     1       2.073  14.844  18.459  0.00  0.00    +0.000 A 
ATOM     19  C   UNL     1       1.341  14.148  19.435  0.00  0.00    +0.000 A 
ATOM     20  C   UNL     1       0.185  13.341  19.397  0.00  0.00    +0.000 A 
ATOM     21  C   UNL     1      -0.783  13.086  18.282  0.00  0.00    +0.000 C 
ATOM     22  C   UNL     1      -1.866  12.084  18.767  0.00  0.00    +0.000 C 
ATOM     23  N   UNL     1      -1.200  11.011  19.522  0.00  0.00    +0.000 N 
ATOM     24  H   UNL     1       1.086  13.074  22.453  0.00  0.00    +0.000 HD
ENDROOT
BRANCH  17  25
ATOM     25  O   UNL     1       3.930  16.168  17.879  0.00  0.00    +0.000 OA
ATOM     26  H   UNL     1       4.868  16.010  18.072  0.00  0.00    +0.000 HD
ENDBRANCH  17  25
TORSDOF 1
ENDMDL
MODEL 7
REMARK VINA RESULT:      -6.5     10.127     13.221
REMARK  Name = 
REMARK  1 active torsions:
REMARK  status: ('A' for Active; 'I' for Inactive)
REMARK    1  A    between atoms: C_17  and  O_18
REMARK                            x       y       z     vdW  Elec       q    Type
REMARK                         _______ _______ _______ _____ _____    ______ ____
ROOT
ATOM      1  O   UNL     1       6.998  17.903  19.024  0.00  0.00    +0.000 OA
ATOM      2  C   UNL     1       6.933  16.899  19.747  0.00  0.00    +0.000 C 
ATOM      3  C   UNL     1       5.927  15.902  19.398  0.00  0.00    +0.000 A 
ATOM      4  C   UNL     1       5.291  16.055  18.155  0.00  0.00    +0.000 A 
ATOM      5  C   UNL     1       4.033  15.527  17.973  0.00  0.00    +0.000 A 
ATOM      6  F   UNL     1       3.366  15.778  16.841  0.00  0.00    +0.000 F 
ATOM      7  C   UNL     1       3.425  14.813  18.999  0.00  0.00    +0.000 A 
ATOM      8  C   UNL     1       4.144  14.514  20.165  0.00  0.00    +0.000 A 
ATOM      9  C   UNL     1       5.440  15.016  20.357  0.00  0.00    +0.000 A 
ATOM     10  S   UNL     1       6.394  14.553  21.779  0.00  0.00    +0.000 S 
ATOM     11  C   UNL     1       7.954  15.424  21.478  0.00  0.00    +0.000 C 
ATOM     12  C   UNL     1       8.972  14.722  20.624  0.00  0.00    +0.000 A 
ATOM     13  N   UNL     1       9.372  13.406  20.677  0.00  0.00    +0.000 N 
ATOM     14  C   UNL     1      10.172  13.131  19.581  0.00  0.00    +0.000 A 
ATOM     15  C   UNL     1      10.739  11.929  19.140  0.00  0.00    +0.000 A 
ATOM     16  C   UNL     1      11.364  11.931  17.884  0.00  0.00    +0.000 A 
ATOM     17  C   UNL     1      11.431  13.094  17.126  0.00  0.00    +0.000 A 
ATOM     18  C   UNL     1      10.966  14.310  17.622  0.00  0.00    +0.000 A 
ATOM     19  C   UNL     1      10.339  14.326  18.879  0.00  0.00    +0.000 A 
ATOM     20  C   UNL     1       9.782  15.345  19.679  0.00  0.00    +0.000 A 
ATOM     21  C   UNL     1       9.829  16.835  19.521  0.00  0.00    +0.000 C 
ATOM     22  C   UNL     1       9.019  17.494  20.672  0.00  0.00    +0.000 C 
ATOM     23  N   UNL     1       7.769  16.737  20.851  0.00  0.00    +0.000 N 
ATOM     24  H   UNL     1       9.058  12.717  21.348  0.00  0.00    +0.000 HD
ENDROOT
BRANCH  17  25
ATOM     25  O   UNL     1      11.947  13.094  15.862  0.00  0.00    +0.000 OA
ATOM     26  H   UNL     1      12.916  13.117  15.925  0.00  0.00    +0.000 HD
ENDBRANCH  17  25
TORSDOF 1
ENDMDL
MODEL 8
REMARK VINA RESULT:      -6.4      4.718      7.071
REMARK  Name = 
REMARK  1 active torsions:
REMARK  status: ('A' for Active; 'I' for Inactive)
REMARK    1  A    between atoms: C_17  and  O_18
REMARK                            x       y       z     vdW  Elec       q    Type
REMARK                         _______ _______ _______ _____ _____    ______ ____
ROOT
ATOM      1  O   UNL     1       1.271  14.096  22.169  0.00  0.00    +0.000 OA
ATOM      2  C   UNL     1       1.667  14.021  20.997  0.00  0.00    +0.000 C 
ATOM      3  C   UNL     1       3.110  14.069  20.787  0.00  0.00    +0.000 A 
ATOM      4  C   UNL     1       3.919  13.959  21.930  0.00  0.00    +0.000 A 
ATOM      5  C   UNL     1       5.184  14.499  21.913  0.00  0.00    +0.000 A 
ATOM      6  F   UNL     1       5.913  14.517  23.035  0.00  0.00    +0.000 F 
ATOM      7  C   UNL     1       5.665  15.105  20.758  0.00  0.00    +0.000 A 
ATOM      8  C   UNL     1       4.918  15.044  19.573  0.00  0.00    +0.000 A 
ATOM      9  C   UNL     1       3.638  14.470  19.561  0.00  0.00    +0.000 A 
ATOM     10  S   UNL     1       2.733  14.293  18.046  0.00  0.00    +0.000 S 
ATOM     11  C   UNL     1       1.225  13.460  18.609  0.00  0.00    +0.000 C 
ATOM     12  C   UNL     1       1.271  11.961  18.702  0.00  0.00    +0.000 A 
ATOM     13  N   UNL     1       1.787  11.062  17.796  0.00  0.00    +0.000 N 
ATOM     14  C   UNL     1       1.809   9.803  18.371  0.00  0.00    +0.000 A 
ATOM     15  C   UNL     1       2.322   8.589  17.895  0.00  0.00    +0.000 A 
ATOM     16  C   UNL     1       2.354   7.507  18.787  0.00  0.00    +0.000 A 
ATOM     17  C   UNL     1       1.871   7.641  20.083  0.00  0.00    +0.000 A 
ATOM     18  C   UNL     1       1.260   8.817  20.511  0.00  0.00    +0.000 A 
ATOM     19  C   UNL     1       1.216   9.909  19.629  0.00  0.00    +0.000 A 
ATOM     20  C   UNL     1       0.676  11.209  19.712  0.00  0.00    +0.000 A 
ATOM     21  C   UNL     1      -0.217  11.823  20.747  0.00  0.00    +0.000 C 
ATOM     22  C   UNL     1      -0.490  13.305  20.369  0.00  0.00    +0.000 C 
ATOM     23  N   UNL     1       0.777  13.912  19.929  0.00  0.00    +0.000 N 
ATOM     24  H   UNL     1       2.180  11.290  16.892  0.00  0.00    +0.000 HD
ENDROOT
BRANCH  17  25
ATOM     25  O   UNL     1       1.984   6.631  20.995  0.00  0.00    +0.000 OA
ATOM     26  H   UNL     1       2.226   7.017  21.853  0.00  0.00    +0.000 HD
ENDBRANCH  17  25
TORSDOF 1
ENDMDL
MODEL 9
REMARK VINA RESULT:      -6.4      4.236      5.735
REMARK  Name = 
REMARK  1 active torsions:
REMARK  status: ('A' for Active; 'I' for Inactive)
REMARK    1  A    between atoms: C_17  and  O_18
REMARK                            x       y       z     vdW  Elec       q    Type
REMARK                         _______ _______ _______ _____ _____    ______ ____
ROOT
ATOM      1  O   UNL     1      -5.433  11.968  24.287  0.00  0.00    +0.000 OA
ATOM      2  C   UNL     1      -5.780  13.101  23.920  0.00  0.00    +0.000 C 
ATOM      3  C   UNL     1      -4.717  14.078  23.711  0.00  0.00    +0.000 A 
ATOM      4  C   UNL     1      -3.400  13.589  23.715  0.00  0.00    +0.000 A 
ATOM      5  C   UNL     1      -2.369  14.437  24.047  0.00  0.00    +0.000 A 
ATOM      6  F   UNL     1      -1.129  13.952  24.182  0.00  0.00    +0.000 F 
ATOM      7  C   UNL     1      -2.632  15.772  24.331  0.00  0.00    +0.000 A 
ATOM      8  C   UNL     1      -3.923  16.285  24.145  0.00  0.00    +0.000 A 
ATOM      9  C   UNL     1      -4.983  15.444  23.776  0.00  0.00    +0.000 A 
ATOM     10  S   UNL     1      -6.594  16.105  23.434  0.00  0.00    +0.000 S 
ATOM     11  C   UNL     1      -7.513  14.615  22.964  0.00  0.00    +0.000 C 
ATOM     12  C   UNL     1      -7.432  14.193  21.524  0.00  0.00    +0.000 A 
ATOM     13  N   UNL     1      -7.534  14.974  20.396  0.00  0.00    +0.000 N 
ATOM     14  C   UNL     1      -7.195  14.216  19.288  0.00  0.00    +0.000 A 
ATOM     15  C   UNL     1      -7.055  14.575  17.941  0.00  0.00    +0.000 A 
ATOM     16  C   UNL     1      -6.526  13.614  17.067  0.00  0.00    +0.000 A 
ATOM     17  C   UNL     1      -6.178  12.350  17.528  0.00  0.00    +0.000 A 
ATOM     18  C   UNL     1      -6.427  11.965  18.843  0.00  0.00    +0.000 A 
ATOM     19  C   UNL     1      -6.960  12.914  19.731  0.00  0.00    +0.000 A 
ATOM     20  C   UNL     1      -7.347  12.874  21.087  0.00  0.00    +0.000 A 
ATOM     21  C   UNL     1      -7.483  11.710  22.021  0.00  0.00    +0.000 C 
ATOM     22  C   UNL     1      -7.913  12.229  23.421  0.00  0.00    +0.000 C 
ATOM     23  N   UNL     1      -7.122  13.430  23.733  0.00  0.00    +0.000 N 
ATOM     24  H   UNL     1      -7.728  15.967  20.377  0.00  0.00    +0.000 HD
ENDROOT
BRANCH  17  25
ATOM     25  O   UNL     1      -5.571  11.436  16.717  0.00  0.00    +0.000 OA
ATOM     26  H   UNL     1      -5.408  11.852  15.854  0.00  0.00    +0.000 HD
ENDBRANCH  17  25
TORSDOF 1
ENDMDL
