MODEL 1
REMARK VINA RESULT:      -7.2      0.000      0.000
REMARK  Name = 
REMARK  14 active torsions:
REMARK  status: ('A' for Active; 'I' for Inactive)
REMARK    1  A    between atoms: C_1  and  O_2
REMARK    2  A    between atoms: O_2  and  C_3
REMARK    3  A    between atoms: C_5  and  C_6
REMARK    4  A    between atoms: C_6  and  N_7
REMARK    5  A    between atoms: N_7  and  C_8
REMARK    6  A    between atoms: C_8  and  C_9
REMARK    7  A    between atoms: C_9  and  N_10
REMARK    8  A    between atoms: C_11  and  O_13
REMARK    9  A    between atoms: O_13  and  C_14
REMARK   10  A    between atoms: C_14  and  C_15
REMARK   11  A    between atoms: C_14  and  C_16
REMARK   12  A    between atoms: C_24  and  O_25
REMARK   13  A    between atoms: O_25  and  C_26
REMARK   14  A    between atoms: C_26  and  C_27
REMARK                            x       y       z     vdW  Elec       q    Type
REMARK                         _______ _______ _______ _____ _____    ______ ____
ROOT
ATOM      1  C   UNL     1       0.371  10.490  19.161  0.00  0.00    +0.000 C 
ENDROOT
BRANCH   1   4
ATOM      2  C   UNL     1       1.704  13.680  20.883  0.00  0.00    +0.000 A 
ATOM      3  C   UNL     1       0.871  12.562  20.642  0.00  0.00    +0.000 A 
ATOM      4  C   UNL     1       0.883  11.902  19.400  0.00  0.00    +0.000 A 
ATOM      5  C   UNL     1       1.624  12.461  18.361  0.00  0.00    +0.000 A 
ATOM      6  C   UNL     1       2.561  13.436  18.649  0.00  0.00    +0.000 A 
ATOM      7  C   UNL     1       2.661  14.024  19.914  0.00  0.00    +0.000 A 
BRANCH   2   9
ATOM      8  C   UNL     1       0.188  14.706  22.368  0.00  0.00    +0.000 C 
ATOM      9  O   UNL     1       1.530  14.335  22.076  0.00  0.00    +0.000 OA
ENDBRANCH   2   9
BRANCH   7  10
ATOM     10  O   UNL     1       3.679  14.907  20.250  0.00  0.00    +0.000 OA
BRANCH  10  11
ATOM     11  C   UNL     1       4.013  15.777  19.166  0.00  0.00    +0.000 C 
BRANCH  11  12
ATOM     12  C   UNL     1       5.447  15.907  18.766  0.00  0.00    +0.000 A 
ATOM     13  C   UNL     1       6.245  17.022  19.033  0.00  0.00    +0.000 A 
ATOM     14  C   UNL     1       7.575  17.013  18.593  0.00  0.00    +0.000 A 
ATOM     15  C   UNL     1       8.105  15.917  17.894  0.00  0.00    +0.000 A 
ATOM     16  C   UNL     1       7.305  14.810  17.632  0.00  0.00    +0.000 A 
ATOM     17  C   UNL     1       5.989  14.804  18.076  0.00  0.00    +0.000 A 
ENDBRANCH  11  12
ENDBRANCH  10  11
ENDBRANCH   7  10
ENDBRANCH   1   4
BRANCH   1  18
ATOM     18  N   UNL     1       1.205   9.387  19.625  0.00  0.00    +0.000 N 
ATOM     19  C   UNL     1       1.915   8.719  18.640  0.00  0.00    +0.000 C 
ATOM     20  O   UNL     1       2.052   9.119  17.490  0.00  0.00    +0.000 OA
BRANCH  18  21
ATOM     21  C   UNL     1       0.822   8.681  20.865  0.00  0.00    +0.000 C 
BRANCH  21  22
ATOM     22  C   UNL     1       1.430   9.203  22.192  0.00  0.00    +0.000 C 
BRANCH  22  23
ATOM     23  N   UNL     1       0.467   9.741  23.152  0.00  0.00    +0.000 NA
ATOM     24  H   UNL     1      -0.039   8.959  23.572  0.00  0.00    +0.000 HD
ATOM     25  H   UNL     1      -0.242  10.270  22.642  0.00  0.00    +0.000 HD
ENDBRANCH  22  23
ENDBRANCH  21  22
ENDBRANCH  18  21
BRANCH  19  26
ATOM     26  O   UNL     1       2.431   7.552  19.095  0.00  0.00    +0.000 OA
BRANCH  26  27
ATOM     27  C   UNL     1       2.562   6.489  18.143  0.00  0.00    +0.000 C 
ATOM     28  C   UNL     1       4.039   6.292  17.798  0.00  0.00    +0.000 C 
BRANCH  27  29
ATOM     29  C   UNL     1       1.987   5.241  18.789  0.00  0.00    +0.000 A 
ATOM     30  C   UNL     1       1.594   4.156  17.991  0.00  0.00    +0.000 A 
ATOM     31  C   UNL     1       1.093   2.991  18.573  0.00  0.00    +0.000 A 
ATOM     32  C   UNL     1       0.971   2.894  19.959  0.00  0.00    +0.000 A 
ATOM     33  C   UNL     1       1.343   3.964  20.764  0.00  0.00    +0.000 A 
ATOM     34  C   UNL     1       1.845   5.131  20.186  0.00  0.00    +0.000 A 
ENDBRANCH  27  29
ENDBRANCH  26  27
ENDBRANCH  19  26
ENDBRANCH   1  18
TORSDOF 12
ENDMDL
MODEL 2
REMARK VINA RESULT:      -7.2      4.344      9.257
REMARK  Name = 
REMARK  14 active torsions:
REMARK  status: ('A' for Active; 'I' for Inactive)
REMARK    1  A    between atoms: C_1  and  O_2
REMARK    2  A    between atoms: O_2  and  C_3
REMARK    3  A    between atoms: C_5  and  C_6
REMARK    4  A    between atoms: C_6  and  N_7
REMARK    5  A    between atoms: N_7  and  C_8
REMARK    6  A    between atoms: C_8  and  C_9
REMARK    7  A    between atoms: C_9  and  N_10
REMARK    8  A    between atoms: C_11  and  O_13
REMARK    9  A    between atoms: O_13  and  C_14
REMARK   10  A    between atoms: C_14  and  C_15
REMARK   11  A    between atoms: C_14  and  C_16
REMARK   12  A    between atoms: C_24  and  O_25
REMARK   13  A    between atoms: O_25  and  C_26
REMARK   14  A    between atoms: C_26  and  C_27
REMARK                            x       y       z     vdW  Elec       q    Type
REMARK                         _______ _______ _______ _____ _____    ______ ____
ROOT
ATOM      1  C   UNL     1      -0.375  11.916  18.436  0.00  0.00    +0.000 C 
ENDROOT
BRANCH   1   4
ATOM      2  C   UNL     1       0.908   9.339  21.010  0.00  0.00    +0.000 A 
ATOM      3  C   UNL     1       0.348  10.540  20.514  0.00  0.00    +0.000 A 
ATOM      4  C   UNL     1       0.500  10.907  19.165  0.00  0.00    +0.000 A 
ATOM      5  C   UNL     1       1.337  10.138  18.360  0.00  0.00    +0.000 A 
ATOM      6  C   UNL     1       1.731   8.888  18.796  0.00  0.00    +0.000 A 
ATOM      7  C   UNL     1       1.483   8.440  20.098  0.00  0.00    +0.000 A 
BRANCH   2   9
ATOM      8  C   UNL     1      -0.216   9.852  23.018  0.00  0.00    +0.000 C 
ATOM      9  O   UNL     1       0.819   9.129  22.363  0.00  0.00    +0.000 OA
ENDBRANCH   2   9
BRANCH   7  10
ATOM     10  O   UNL     1       1.759   7.141  20.507  0.00  0.00    +0.000 OA
BRANCH  10  11
ATOM     11  C   UNL     1       2.467   6.404  19.507  0.00  0.00    +0.000 C 
BRANCH  11  12
ATOM     12  C   UNL     1       2.047   4.999  19.220  0.00  0.00    +0.000 A 
ATOM     13  C   UNL     1       2.353   4.304  18.047  0.00  0.00    +0.000 A 
ATOM     14  C   UNL     1       1.887   2.991  17.906  0.00  0.00    +0.000 A 
ATOM     15  C   UNL     1       1.127   2.375  18.913  0.00  0.00    +0.000 A 
ATOM     16  C   UNL     1       0.826   3.072  20.079  0.00  0.00    +0.000 A 
ATOM     17  C   UNL     1       1.294   4.370  20.232  0.00  0.00    +0.000 A 
ENDBRANCH  11  12
ENDBRANCH  10  11
ENDBRANCH   7  10
ENDBRANCH   1   4
BRANCH   1  18
ATOM     18  N   UNL     1      -1.812  11.860  18.682  0.00  0.00    +0.000 N 
ATOM     19  C   UNL     1      -2.268  12.642  19.732  0.00  0.00    +0.000 C 
ATOM     20  O   UNL     1      -1.605  13.506  20.294  0.00  0.00    +0.000 OA
BRANCH  18  21
ATOM     21  C   UNL     1      -2.551  10.641  18.295  0.00  0.00    +0.000 C 
BRANCH  21  22
ATOM     22  C   UNL     1      -3.279  10.662  16.926  0.00  0.00    +0.000 C 
BRANCH  22  23
ATOM     23  N   UNL     1      -4.169  11.802  16.709  0.00  0.00    +0.000 NA
ATOM     24  H   UNL     1      -3.634  12.546  16.255  0.00  0.00    +0.000 HD
ATOM     25  H   UNL     1      -4.436  12.186  17.616  0.00  0.00    +0.000 HD
ENDBRANCH  22  23
ENDBRANCH  21  22
ENDBRANCH  18  21
BRANCH  19  26
ATOM     26  O   UNL     1      -3.539  12.327  20.078  0.00  0.00    +0.000 OA
BRANCH  26  27
ATOM     27  C   UNL     1      -4.349  13.389  20.596  0.00  0.00    +0.000 C 
ATOM     28  C   UNL     1      -5.618  13.522  19.753  0.00  0.00    +0.000 C 
BRANCH  27  29
ATOM     29  C   UNL     1      -4.690  13.028  22.032  0.00  0.00    +0.000 A 
ATOM     30  C   UNL     1      -3.664  12.734  22.943  0.00  0.00    +0.000 A 
ATOM     31  C   UNL     1      -3.962  12.432  24.272  0.00  0.00    +0.000 A 
ATOM     32  C   UNL     1      -5.286  12.412  24.710  0.00  0.00    +0.000 A 
ATOM     33  C   UNL     1      -6.314  12.688  23.817  0.00  0.00    +0.000 A 
ATOM     34  C   UNL     1      -6.022  12.991  22.487  0.00  0.00    +0.000 A 
ENDBRANCH  27  29
ENDBRANCH  26  27
ENDBRANCH  19  26
ENDBRANCH   1  18
TORSDOF 12
ENDMDL
MODEL 3
REMARK VINA RESULT:      -7.2      4.566      9.351
REMARK  Name = 
REMARK  14 active torsions:
REMARK  status: ('A' for Active; 'I' for Inactive)
REMARK    1  A    between atoms: C_1  and  O_2
REMARK    2  A    between atoms: O_2  and  C_3
REMARK    3  A    between atoms: C_5  and  C_6
REMARK    4  A    between atoms: C_6  and  N_7
REMARK    5  A    between atoms: N_7  and  C_8
REMARK    6  A    between atoms: C_8  and  C_9
REMARK    7  A    between atoms: C_9  and  N_10
REMARK    8  A    between atoms: C_11  and  O_13
REMARK    9  A    between atoms: O_13  and  C_14
REMARK   10  A    between atoms: C_14  and  C_15
REMARK   11  A    between atoms: C_14  and  C_16
REMARK   12  A    between atoms: C_24  and  O_25
REMARK   13  A    between atoms: O_25  and  C_26
REMARK   14  A    between atoms: C_26  and  C_27
REMARK                            x       y       z     vdW  Elec       q    Type
REMARK                         _______ _______ _______ _____ _____    ______ ____
ROOT
ATOM      1  C   UNL     1       4.000   5.593  19.525  0.00  0.00    +0.000 C 
ENDROOT
BRANCH   1   4
ATOM      2  C   UNL     1       6.680   6.145  16.800  0.00  0.00    +0.000 A 
ATOM      3  C   UNL     1       5.871   6.420  17.927  0.00  0.00    +0.000 A 
ATOM      4  C   UNL     1       4.701   5.679  18.178  0.00  0.00    +0.000 A 
ATOM      5  C   UNL     1       4.276   4.767  17.215  0.00  0.00    +0.000 A 
ATOM      6  C   UNL     1       5.152   4.382  16.218  0.00  0.00    +0.000 A 
ATOM      7  C   UNL     1       6.383   5.015  16.020  0.00  0.00    +0.000 A 
BRANCH   2   9
ATOM      8  C   UNL     1       7.890   8.028  17.537  0.00  0.00    +0.000 C 
ATOM      9  O   UNL     1       7.727   7.001  16.567  0.00  0.00    +0.000 OA
ENDBRANCH   2   9
BRANCH   7  10
ATOM     10  O   UNL     1       7.324   4.553  15.108  0.00  0.00    +0.000 OA
BRANCH  10  11
ATOM     11  C   UNL     1       7.017   4.959  13.772  0.00  0.00    +0.000 C 
BRANCH  11  12
ATOM     12  C   UNL     1       6.402   3.962  12.844  0.00  0.00    +0.000 A 
ATOM     13  C   UNL     1       5.028   3.808  12.645  0.00  0.00    +0.000 A 
ATOM     14  C   UNL     1       4.588   2.826  11.749  0.00  0.00    +0.000 A 
ATOM     15  C   UNL     1       5.497   2.006  11.061  0.00  0.00    +0.000 A 
ATOM     16  C   UNL     1       6.864   2.164  11.264  0.00  0.00    +0.000 A 
ATOM     17  C   UNL     1       7.309   3.144  12.141  0.00  0.00    +0.000 A 
ENDBRANCH  11  12
ENDBRANCH  10  11
ENDBRANCH   7  10
ENDBRANCH   1   4
BRANCH   1  18
ATOM     18  N   UNL     1       2.646   6.131  19.612  0.00  0.00    +0.000 N 
ATOM     19  C   UNL     1       2.471   7.397  19.077  0.00  0.00    +0.000 C 
ATOM     20  O   UNL     1       3.291   7.972  18.369  0.00  0.00    +0.000 OA
BRANCH  18  21
ATOM     21  C   UNL     1       1.766   5.663  20.702  0.00  0.00    +0.000 C 
BRANCH  21  22
ATOM     22  C   UNL     1       1.498   4.138  20.788  0.00  0.00    +0.000 C 
BRANCH  22  23
ATOM     23  N   UNL     1       2.196   3.442  21.869  0.00  0.00    +0.000 NA
ATOM     24  H   UNL     1       3.125   3.857  21.972  0.00  0.00    +0.000 HD
ATOM     25  H   UNL     1       2.369   2.479  21.579  0.00  0.00    +0.000 HD
ENDBRANCH  22  23
ENDBRANCH  21  22
ENDBRANCH  18  21
BRANCH  19  26
ATOM     26  O   UNL     1       1.284   7.938  19.441  0.00  0.00    +0.000 OA
BRANCH  26  27
ATOM     27  C   UNL     1       1.177   9.365  19.377  0.00  0.00    +0.000 C 
ATOM     28  C   UNL     1       0.403   9.763  18.119  0.00  0.00    +0.000 C 
BRANCH  27  29
ATOM     29  C   UNL     1       0.443   9.814  20.629  0.00  0.00    +0.000 A 
ATOM     30  C   UNL     1       0.339   8.948  21.727  0.00  0.00    +0.000 A 
ATOM     31  C   UNL     1      -0.306   9.358  22.895  0.00  0.00    +0.000 A 
ATOM     32  C   UNL     1      -0.860  10.635  22.981  0.00  0.00    +0.000 A 
ATOM     33  C   UNL     1      -0.776  11.500  21.896  0.00  0.00    +0.000 A 
ATOM     34  C   UNL     1      -0.133  11.094  20.727  0.00  0.00    +0.000 A 
ENDBRANCH  27  29
ENDBRANCH  26  27
ENDBRANCH  19  26
ENDBRANCH   1  18
TORSDOF 12
ENDMDL
MODEL 4
REMARK VINA RESULT:      -7.1      4.731      8.657
REMARK  Name = 
REMARK  14 active torsions:
REMARK  status: ('A' for Active; 'I' for Inactive)
REMARK    1  A    between atoms: C_1  and  O_2
REMARK    2  A    between atoms: O_2  and  C_3
REMARK    3  A    between atoms: C_5  and  C_6
REMARK    4  A    between atoms: C_6  and  N_7
REMARK    5  A    between atoms: N_7  and  C_8
REMARK    6  A    between atoms: C_8  and  C_9
REMARK    7  A    between atoms: C_9  and  N_10
REMARK    8  A    between atoms: C_11  and  O_13
REMARK    9  A    between atoms: O_13  and  C_14
REMARK   10  A    between atoms: C_14  and  C_15
REMARK   11  A    between atoms: C_14  and  C_16
REMARK   12  A    between atoms: C_24  and  O_25
REMARK   13  A    between atoms: O_25  and  C_26
REMARK   14  A    between atoms: C_26  and  C_27
REMARK                            x       y       z     vdW  Elec       q    Type
REMARK                         _______ _______ _______ _____ _____    ______ ____
ROOT
ATOM      1  C   UNL     1       1.706   8.708  20.668  0.00  0.00    +0.000 C 
ENDROOT
BRANCH   1   4
ATOM      2  C   UNL     1       2.173   5.006  19.671  0.00  0.00    +0.000 A 
ATOM      3  C   UNL     1       2.047   6.140  20.508  0.00  0.00    +0.000 A 
ATOM      4  C   UNL     1       2.212   7.440  19.997  0.00  0.00    +0.000 A 
ATOM      5  C   UNL     1       2.647   7.584  18.681  0.00  0.00    +0.000 A 
ATOM      6  C   UNL     1       2.597   6.496  17.832  0.00  0.00    +0.000 A 
ATOM      7  C   UNL     1       2.309   5.205  18.287  0.00  0.00    +0.000 A 
BRANCH   2   9
ATOM      8  C   UNL     1       0.818   3.235  20.435  0.00  0.00    +0.000 C 
ATOM      9  O   UNL     1       2.124   3.779  20.282  0.00  0.00    +0.000 OA
ENDBRANCH   2   9
BRANCH   7  10
ATOM     10  O   UNL     1       2.128   4.131  17.426  0.00  0.00    +0.000 OA
BRANCH  10  11
ATOM     11  C   UNL     1       3.262   3.261  17.410  0.00  0.00    +0.000 C 
BRANCH  11  12
ATOM     12  C   UNL     1       4.619   3.857  17.212  0.00  0.00    +0.000 A 
ATOM     13  C   UNL     1       5.510   4.159  18.245  0.00  0.00    +0.000 A 
ATOM     14  C   UNL     1       6.749   4.723  17.917  0.00  0.00    +0.000 A 
ATOM     15  C   UNL     1       7.099   4.987  16.583  0.00  0.00    +0.000 A 
ATOM     16  C   UNL     1       6.208   4.684  15.559  0.00  0.00    +0.000 A 
ATOM     17  C   UNL     1       4.983   4.113  15.875  0.00  0.00    +0.000 A 
ENDBRANCH  11  12
ENDBRANCH  10  11
ENDBRANCH   7  10
ENDBRANCH   1   4
BRANCH   1  18
ATOM     18  N   UNL     1       0.320   9.092  20.418  0.00  0.00    +0.000 N 
ATOM     19  C   UNL     1       0.143  10.145  19.534  0.00  0.00    +0.000 C 
ATOM     20  O   UNL     1       1.022  10.603  18.814  0.00  0.00    +0.000 OA
BRANCH  18  21
ATOM     21  C   UNL     1      -0.689   8.829  21.464  0.00  0.00    +0.000 C 
BRANCH  21  22
ATOM     22  C   UNL     1      -0.361   9.318  22.899  0.00  0.00    +0.000 C 
BRANCH  22  23
ATOM     23  N   UNL     1      -0.388  10.769  23.087  0.00  0.00    +0.000 NA
ATOM     24  H   UNL     1      -0.605  11.204  22.188  0.00  0.00    +0.000 HD
ATOM     25  H   UNL     1       0.554  11.086  23.313  0.00  0.00    +0.000 HD
ENDBRANCH  22  23
ENDBRANCH  21  22
ENDBRANCH  18  21
BRANCH  19  26
ATOM     26  O   UNL     1      -1.124  10.623  19.570  0.00  0.00    +0.000 OA
BRANCH  26  27
ATOM     27  C   UNL     1      -1.684  11.061  18.327  0.00  0.00    +0.000 C 
ATOM     28  C   UNL     1      -1.826   9.867  17.382  0.00  0.00    +0.000 C 
BRANCH  27  29
ATOM     29  C   UNL     1      -3.042  11.667  18.639  0.00  0.00    +0.000 A 
ATOM     30  C   UNL     1      -4.101  11.519  17.731  0.00  0.00    +0.000 A 
ATOM     31  C   UNL     1      -5.361  12.044  18.020  0.00  0.00    +0.000 A 
ATOM     32  C   UNL     1      -5.581  12.727  19.215  0.00  0.00    +0.000 A 
ATOM     33  C   UNL     1      -4.539  12.894  20.120  0.00  0.00    +0.000 A 
ATOM     34  C   UNL     1      -3.277  12.371  19.835  0.00  0.00    +0.000 A 
ENDBRANCH  27  29
ENDBRANCH  26  27
ENDBRANCH  19  26
ENDBRANCH   1  18
TORSDOF 12
ENDMDL
MODEL 5
REMARK VINA RESULT:      -7.0      5.189      8.193
REMARK  Name = 
REMARK  14 active torsions:
REMARK  status: ('A' for Active; 'I' for Inactive)
REMARK    1  A    between atoms: C_1  and  O_2
REMARK    2  A    between atoms: O_2  and  C_3
REMARK    3  A    between atoms: C_5  and  C_6
REMARK    4  A    between atoms: C_6  and  N_7
REMARK    5  A    between atoms: N_7  and  C_8
REMARK    6  A    between atoms: C_8  and  C_9
REMARK    7  A    between atoms: C_9  and  N_10
REMARK    8  A    between atoms: C_11  and  O_13
REMARK    9  A    between atoms: O_13  and  C_14
REMARK   10  A    between atoms: C_14  and  C_15
REMARK   11  A    between atoms: C_14  and  C_16
REMARK   12  A    between atoms: C_24  and  O_25
REMARK   13  A    between atoms: O_25  and  C_26
REMARK   14  A    between atoms: C_26  and  C_27
REMARK                            x       y       z     vdW  Elec       q    Type
REMARK                         _______ _______ _______ _____ _____    ______ ____
ROOT
ATOM      1  C   UNL     1       5.739   5.566  18.006  0.00  0.00    +0.000 C 
ENDROOT
BRANCH   1   4
ATOM      2  C   UNL     1       2.414   6.759  19.568  0.00  0.00    +0.000 A 
ATOM      3  C   UNL     1       3.510   5.907  19.290  0.00  0.00    +0.000 A 
ATOM      4  C   UNL     1       4.336   6.129  18.174  0.00  0.00    +0.000 A 
ATOM      5  C   UNL     1       3.967   7.117  17.264  0.00  0.00    +0.000 A 
ATOM      6  C   UNL     1       3.013   8.047  17.628  0.00  0.00    +0.000 A 
ATOM      7  C   UNL     1       2.260   7.924  18.800  0.00  0.00    +0.000 A 
BRANCH   2   9
ATOM      8  C   UNL     1       1.434   4.986  20.773  0.00  0.00    +0.000 C 
ATOM      9  O   UNL     1       1.591   6.389  20.601  0.00  0.00    +0.000 OA
ENDBRANCH   2   9
BRANCH   7  10
ATOM     10  O   UNL     1       1.393   8.917  19.240  0.00  0.00    +0.000 OA
BRANCH  10  11
ATOM     11  C   UNL     1       0.795   9.625  18.152  0.00  0.00    +0.000 C 
BRANCH  11  12
ATOM     12  C   UNL     1      -0.486  10.358  18.391  0.00  0.00    +0.000 A 
ATOM     13  C   UNL     1      -0.696  11.268  19.431  0.00  0.00    +0.000 A 
ATOM     14  C   UNL     1      -1.951  11.878  19.543  0.00  0.00    +0.000 A 
ATOM     15  C   UNL     1      -2.985  11.590  18.638  0.00  0.00    +0.000 A 
ATOM     16  C   UNL     1      -2.770  10.684  17.605  0.00  0.00    +0.000 A 
ATOM     17  C   UNL     1      -1.524  10.083  17.479  0.00  0.00    +0.000 A 
ENDBRANCH  11  12
ENDBRANCH  10  11
ENDBRANCH   7  10
ENDBRANCH   1   4
BRANCH   1  18
ATOM     18  N   UNL     1       5.948   4.590  16.942  0.00  0.00    +0.000 N 
ATOM     19  C   UNL     1       6.864   4.955  15.968  0.00  0.00    +0.000 C 
ATOM     20  O   UNL     1       7.637   5.901  16.061  0.00  0.00    +0.000 OA
BRANCH  18  21
ATOM     21  C   UNL     1       4.851   3.658  16.609  0.00  0.00    +0.000 C 
BRANCH  21  22
ATOM     22  C   UNL     1       4.102   2.997  17.795  0.00  0.00    +0.000 C 
BRANCH  22  23
ATOM     23  N   UNL     1       4.160   1.536  17.835  0.00  0.00    +0.000 NA
ATOM     24  H   UNL     1       5.048   1.239  17.426  0.00  0.00    +0.000 HD
ATOM     25  H   UNL     1       3.445   1.164  17.210  0.00  0.00    +0.000 HD
ENDBRANCH  22  23
ENDBRANCH  21  22
ENDBRANCH  18  21
BRANCH  19  26
ATOM     26  O   UNL     1       6.796   4.146  14.884  0.00  0.00    +0.000 OA
BRANCH  26  27
ATOM     27  C   UNL     1       6.655   4.784  13.609  0.00  0.00    +0.000 C 
ATOM     28  C   UNL     1       8.025   5.256  13.121  0.00  0.00    +0.000 C 
BRANCH  27  29
ATOM     29  C   UNL     1       6.067   3.755  12.659  0.00  0.00    +0.000 A 
ATOM     30  C   UNL     1       4.719   3.842  12.279  0.00  0.00    +0.000 A 
ATOM     31  C   UNL     1       4.175   2.922  11.383  0.00  0.00    +0.000 A 
ATOM     32  C   UNL     1       4.964   1.899  10.858  0.00  0.00    +0.000 A 
ATOM     33  C   UNL     1       6.298   1.791  11.234  0.00  0.00    +0.000 A 
ATOM     34  C   UNL     1       6.847   2.709  12.131  0.00  0.00    +0.000 A 
ENDBRANCH  27  29
ENDBRANCH  26  27
ENDBRANCH  19  26
ENDBRANCH   1  18
TORSDOF 12
ENDMDL
MODEL 6
REMARK VINA RESULT:      -6.9      4.822      7.378
REMARK  Name = 
REMARK  14 active torsions:
REMARK  status: ('A' for Active; 'I' for Inactive)
REMARK    1  A    between atoms: C_1  and  O_2
REMARK    2  A    between atoms: O_2  and  C_3
REMARK    3  A    between atoms: C_5  and  C_6
REMARK    4  A    between atoms: C_6  and  N_7
REMARK    5  A    between atoms: N_7  and  C_8
REMARK    6  A    between atoms: C_8  and  C_9
REMARK    7  A    between atoms: C_9  and  N_10
REMARK    8  A    between atoms: C_11  and  O_13
REMARK    9  A    between atoms: O_13  and  C_14
REMARK   10  A    between atoms: C_14  and  C_15
REMARK   11  A    between atoms: C_14  and  C_16
REMARK   12  A    between atoms: C_24  and  O_25
REMARK   13  A    between atoms: O_25  and  C_26
REMARK   14  A    between atoms: C_26  and  C_27
REMARK                            x       y       z     vdW  Elec       q    Type
REMARK                         _______ _______ _______ _____ _____    ______ ____
ROOT
ATOM      1  C   UNL     1       3.342   4.654  20.001  0.00  0.00    +0.000 C 
ENDROOT
BRANCH   1   4
ATOM      2  C   UNL     1       1.229   7.829  20.607  0.00  0.00    +0.000 A 
ATOM      3  C   UNL     1       1.707   6.510  20.788  0.00  0.00    +0.000 A 
ATOM      4  C   UNL     1       2.444   5.862  19.780  0.00  0.00    +0.000 A 
ATOM      5  C   UNL     1       2.568   6.490  18.543  0.00  0.00    +0.000 A 
ATOM      6  C   UNL     1       2.256   7.831  18.433  0.00  0.00    +0.000 A 
ATOM      7  C   UNL     1       1.637   8.541  19.467  0.00  0.00    +0.000 A 
BRANCH   2   9
ATOM      8  C   UNL     1       1.025   9.276  22.457  0.00  0.00    +0.000 C 
ATOM      9  O   UNL     1       0.412   8.330  21.590  0.00  0.00    +0.000 OA
ENDBRANCH   2   9
BRANCH   7  10
ATOM     10  O   UNL     1       1.438   9.915  19.418  0.00  0.00    +0.000 OA
BRANCH  10  11
ATOM     11  C   UNL     1       0.793  10.318  18.208  0.00  0.00    +0.000 C 
BRANCH  11  12
ATOM     12  C   UNL     1      -0.670  10.622  18.243  0.00  0.00    +0.000 A 
ATOM     13  C   UNL     1      -1.258  11.595  19.055  0.00  0.00    +0.000 A 
ATOM     14  C   UNL     1      -2.646  11.769  18.993  0.00  0.00    +0.000 A 
ATOM     15  C   UNL     1      -3.442  10.988  18.139  0.00  0.00    +0.000 A 
ATOM     16  C   UNL     1      -2.850  10.021  17.333  0.00  0.00    +0.000 A 
ATOM     17  C   UNL     1      -1.473   9.850  17.380  0.00  0.00    +0.000 A 
ENDBRANCH  11  12
ENDBRANCH  10  11
ENDBRANCH   7  10
ENDBRANCH   1   4
BRANCH   1  18
ATOM     18  N   UNL     1       4.111   4.172  18.859  0.00  0.00    +0.000 N 
ATOM     19  C   UNL     1       5.350   4.768  18.678  0.00  0.00    +0.000 C 
ATOM     20  O   UNL     1       5.906   5.479  19.507  0.00  0.00    +0.000 OA
BRANCH  18  21
ATOM     21  C   UNL     1       3.385   3.615  17.699  0.00  0.00    +0.000 C 
BRANCH  21  22
ATOM     22  C   UNL     1       3.014   2.111  17.755  0.00  0.00    +0.000 C 
BRANCH  22  23
ATOM     23  N   UNL     1       1.748   1.803  18.420  0.00  0.00    +0.000 NA
ATOM     24  H   UNL     1       1.217   1.168  17.821  0.00  0.00    +0.000 HD
ATOM     25  H   UNL     1       1.187   2.654  18.464  0.00  0.00    +0.000 HD
ENDBRANCH  22  23
ENDBRANCH  21  22
ENDBRANCH  18  21
BRANCH  19  26
ATOM     26  O   UNL     1       5.872   4.483  17.462  0.00  0.00    +0.000 OA
BRANCH  26  27
ATOM     27  C   UNL     1       6.050   5.583  16.561  0.00  0.00    +0.000 C 
ATOM     28  C   UNL     1       7.261   6.409  16.996  0.00  0.00    +0.000 C 
BRANCH  27  29
ATOM     29  C   UNL     1       6.265   4.994  15.178  0.00  0.00    +0.000 A 
ATOM     30  C   UNL     1       5.315   4.118  14.633  0.00  0.00    +0.000 A 
ATOM     31  C   UNL     1       5.485   3.595  13.351  0.00  0.00    +0.000 A 
ATOM     32  C   UNL     1       6.608   3.934  12.596  0.00  0.00    +0.000 A 
ATOM     33  C   UNL     1       7.566   4.790  13.126  0.00  0.00    +0.000 A 
ATOM     34  C   UNL     1       7.400   5.316  14.408  0.00  0.00    +0.000 A 
ENDBRANCH  27  29
ENDBRANCH  26  27
ENDBRANCH  19  26
ENDBRANCH   1  18
TORSDOF 12
ENDMDL
MODEL 7
REMARK VINA RESULT:      -6.9      4.668      8.653
REMARK  Name = 
REMARK  14 active torsions:
REMARK  status: ('A' for Active; 'I' for Inactive)
REMARK    1  A    between atoms: C_1  and  O_2
REMARK    2  A    between atoms: O_2  and  C_3
REMARK    3  A    between atoms: C_5  and  C_6
REMARK    4  A    between atoms: C_6  and  N_7
REMARK    5  A    between atoms: N_7  and  C_8
REMARK    6  A    between atoms: C_8  and  C_9
REMARK    7  A    between atoms: C_9  and  N_10
REMARK    8  A    between atoms: C_11  and  O_13
REMARK    9  A    between atoms: O_13  and  C_14
REMARK   10  A    between atoms: C_14  and  C_15
REMARK   11  A    between atoms: C_14  and  C_16
REMARK   12  A    between atoms: C_24  and  O_25
REMARK   13  A    between atoms: O_25  and  C_26
REMARK   14  A    between atoms: C_26  and  C_27
REMARK                            x       y       z     vdW  Elec       q    Type
REMARK                         _______ _______ _______ _____ _____    ______ ____
ROOT
ATOM      1  C   UNL     1       1.721   8.681  20.731  0.00  0.00    +0.000 C 
ENDROOT
BRANCH   1   4
ATOM      2  C   UNL     1       2.226   4.998  19.683  0.00  0.00    +0.000 A 
ATOM      3  C   UNL     1       2.119   6.124  20.534  0.00  0.00    +0.000 A 
ATOM      4  C   UNL     1       2.220   7.431  20.024  0.00  0.00    +0.000 A 
ATOM      5  C   UNL     1       2.576   7.593  18.686  0.00  0.00    +0.000 A 
ATOM      6  C   UNL     1       2.505   6.509  17.833  0.00  0.00    +0.000 A 
ATOM      7  C   UNL     1       2.277   5.209  18.295  0.00  0.00    +0.000 A 
BRANCH   2   9
ATOM      8  C   UNL     1       0.971   3.277  20.692  0.00  0.00    +0.000 C 
ATOM      9  O   UNL     1       2.243   3.767  20.287  0.00  0.00    +0.000 OA
ENDBRANCH   2   9
BRANCH   7  10
ATOM     10  O   UNL     1       2.075   4.134  17.438  0.00  0.00    +0.000 OA
BRANCH  10  11
ATOM     11  C   UNL     1       3.241   3.315  17.324  0.00  0.00    +0.000 C 
BRANCH  11  12
ATOM     12  C   UNL     1       4.544   3.966  16.987  0.00  0.00    +0.000 A 
ATOM     13  C   UNL     1       4.914   4.383  15.706  0.00  0.00    +0.000 A 
ATOM     14  C   UNL     1       6.172   4.972  15.532  0.00  0.00    +0.000 A 
ATOM     15  C   UNL     1       7.053   5.143  16.612  0.00  0.00    +0.000 A 
ATOM     16  C   UNL     1       6.679   4.725  17.885  0.00  0.00    +0.000 A 
ATOM     17  C   UNL     1       5.428   4.152  18.069  0.00  0.00    +0.000 A 
ENDBRANCH  11  12
ENDBRANCH  10  11
ENDBRANCH   7  10
ENDBRANCH   1   4
BRANCH   1  18
ATOM     18  N   UNL     1       0.362   9.123  20.433  0.00  0.00    +0.000 N 
ATOM     19  C   UNL     1       0.263  10.219  19.591  0.00  0.00    +0.000 C 
ATOM     20  O   UNL     1       1.191  10.678  18.935  0.00  0.00    +0.000 OA
BRANCH  18  21
ATOM     21  C   UNL     1      -0.705   8.850  21.417  0.00  0.00    +0.000 C 
BRANCH  21  22
ATOM     22  C   UNL     1      -0.404   9.195  22.898  0.00  0.00    +0.000 C 
BRANCH  22  23
ATOM     23  N   UNL     1      -1.050  10.408  23.401  0.00  0.00    +0.000 NA
ATOM     24  H   UNL     1      -2.058  10.319  23.254  0.00  0.00    +0.000 HD
ATOM     25  H   UNL     1      -0.767  11.195  22.817  0.00  0.00    +0.000 HD
ENDBRANCH  22  23
ENDBRANCH  21  22
ENDBRANCH  18  21
BRANCH  19  26
ATOM     26  O   UNL     1      -0.988  10.739  19.588  0.00  0.00    +0.000 OA
BRANCH  26  27
ATOM     27  C   UNL     1      -1.540  11.086  18.312  0.00  0.00    +0.000 C 
ATOM     28  C   UNL     1      -1.567   9.848  17.414  0.00  0.00    +0.000 C 
BRANCH  27  29
ATOM     29  C   UNL     1      -2.946  11.603  18.562  0.00  0.00    +0.000 A 
ATOM     30  C   UNL     1      -3.239  12.290  19.750  0.00  0.00    +0.000 A 
ATOM     31  C   UNL     1      -4.518  12.798  19.978  0.00  0.00    +0.000 A 
ATOM     32  C   UNL     1      -5.525  12.622  19.029  0.00  0.00    +0.000 A 
ATOM     33  C   UNL     1      -5.255  11.932  17.853  0.00  0.00    +0.000 A 
ATOM     34  C   UNL     1      -3.977  11.423  17.620  0.00  0.00    +0.000 A 
ENDBRANCH  27  29
ENDBRANCH  26  27
ENDBRANCH  19  26
ENDBRANCH   1  18
TORSDOF 12
ENDMDL
MODEL 8
REMARK VINA RESULT:      -6.8      0.796      1.258
REMARK  Name = 
REMARK  14 active torsions:
REMARK  status: ('A' for Active; 'I' for Inactive)
REMARK    1  A    between atoms: C_1  and  O_2
REMARK    2  A    between atoms: O_2  and  C_3
REMARK    3  A    between atoms: C_5  and  C_6
REMARK    4  A    between atoms: C_6  and  N_7
REMARK    5  A    between atoms: N_7  and  C_8
REMARK    6  A    between atoms: C_8  and  C_9
REMARK    7  A    between atoms: C_9  and  N_10
REMARK    8  A    between atoms: C_11  and  O_13
REMARK    9  A    between atoms: O_13  and  C_14
REMARK   10  A    between atoms: C_14  and  C_15
REMARK   11  A    between atoms: C_14  and  C_16
REMARK   12  A    between atoms: C_24  and  O_25
REMARK   13  A    between atoms: O_25  and  C_26
REMARK   14  A    between atoms: C_26  and  C_27
REMARK                            x       y       z     vdW  Elec       q    Type
REMARK                         _______ _______ _______ _____ _____    ______ ____
ROOT
ATOM      1  C   UNL     1       0.174  10.447  19.414  0.00  0.00    +0.000 C 
ENDROOT
BRANCH   1   4
ATOM      2  C   UNL     1       2.138  13.569  20.557  0.00  0.00    +0.000 A 
ATOM      3  C   UNL     1       1.397  12.368  20.658  0.00  0.00    +0.000 A 
ATOM      4  C   UNL     1       0.651  11.883  19.569  0.00  0.00    +0.000 A 
ATOM      5  C   UNL     1       0.536  12.685  18.436  0.00  0.00    +0.000 A 
ATOM      6  C   UNL     1       1.394  13.756  18.278  0.00  0.00    +0.000 A 
ATOM      7  C   UNL     1       2.245  14.188  19.301  0.00  0.00    +0.000 A 
BRANCH   2   9
ATOM      8  C   UNL     1       4.146  13.927  21.738  0.00  0.00    +0.000 C 
ATOM      9  O   UNL     1       2.728  14.029  21.707  0.00  0.00    +0.000 OA
ENDBRANCH   2   9
BRANCH   7  10
ATOM     10  O   UNL     1       3.200  15.179  19.111  0.00  0.00    +0.000 OA
BRANCH  10  11
ATOM     11  C   UNL     1       4.179  14.799  18.142  0.00  0.00    +0.000 C 
BRANCH  11  12
ATOM     12  C   UNL     1       5.549  15.388  18.237  0.00  0.00    +0.000 A 
ATOM     13  C   UNL     1       6.706  14.790  17.730  0.00  0.00    +0.000 A 
ATOM     14  C   UNL     1       7.929  15.451  17.897  0.00  0.00    +0.000 A 
ATOM     15  C   UNL     1       8.006  16.686  18.561  0.00  0.00    +0.000 A 
ATOM     16  C   UNL     1       6.851  17.276  19.064  0.00  0.00    +0.000 A 
ATOM     17  C   UNL     1       5.632  16.633  18.891  0.00  0.00    +0.000 A 
ENDBRANCH  11  12
ENDBRANCH  10  11
ENDBRANCH   7  10
ENDBRANCH   1   4
BRANCH   1  18
ATOM     18  N   UNL     1       1.097   9.387  19.804  0.00  0.00    +0.000 N 
ATOM     19  C   UNL     1       1.806   8.801  18.767  0.00  0.00    +0.000 C 
ATOM     20  O   UNL     1       1.867   9.248  17.628  0.00  0.00    +0.000 OA
BRANCH  18  21
ATOM     21  C   UNL     1       0.815   8.616  21.032  0.00  0.00    +0.000 C 
BRANCH  21  22
ATOM     22  C   UNL     1       1.351   9.194  22.367  0.00  0.00    +0.000 C 
BRANCH  22  23
ATOM     23  N   UNL     1       0.353   9.858  23.206  0.00  0.00    +0.000 NA
ATOM     24  H   UNL     1       0.093  10.739  22.759  0.00  0.00    +0.000 HD
ATOM     25  H   UNL     1       0.795  10.129  24.085  0.00  0.00    +0.000 HD
ENDBRANCH  22  23
ENDBRANCH  21  22
ENDBRANCH  18  21
BRANCH  19  26
ATOM     26  O   UNL     1       2.416   7.657  19.159  0.00  0.00    +0.000 OA
BRANCH  26  27
ATOM     27  C   UNL     1       2.564   6.632  18.168  0.00  0.00    +0.000 C 
ATOM     28  C   UNL     1       4.044   6.470  17.818  0.00  0.00    +0.000 C 
BRANCH  27  29
ATOM     29  C   UNL     1       2.007   5.352  18.766  0.00  0.00    +0.000 A 
ATOM     30  C   UNL     1       1.647   4.286  17.928  0.00  0.00    +0.000 A 
ATOM     31  C   UNL     1       1.163   3.093  18.466  0.00  0.00    +0.000 A 
ATOM     32  C   UNL     1       1.025   2.949  19.846  0.00  0.00    +0.000 A 
ATOM     33  C   UNL     1       1.364   4.000  20.690  0.00  0.00    +0.000 A 
ATOM     34  C   UNL     1       1.849   5.195  20.156  0.00  0.00    +0.000 A 
ENDBRANCH  27  29
ENDBRANCH  26  27
ENDBRANCH  19  26
ENDBRANCH   1  18
TORSDOF 12
ENDMDL
MODEL 9
REMARK VINA RESULT:      -6.8      4.983      7.515
REMARK  Name = 
REMARK  14 active torsions:
REMARK  status: ('A' for Active; 'I' for Inactive)
REMARK    1  A    between atoms: C_1  and  O_2
REMARK    2  A    between atoms: O_2  and  C_3
REMARK    3  A    between atoms: C_5  and  C_6
REMARK    4  A    between atoms: C_6  and  N_7
REMARK    5  A    between atoms: N_7  and  C_8
REMARK    6  A    between atoms: C_8  and  C_9
REMARK    7  A    between atoms: C_9  and  N_10
REMARK    8  A    between atoms: C_11  and  O_13
REMARK    9  A    between atoms: O_13  and  C_14
REMARK   10  A    between atoms: C_14  and  C_15
REMARK   11  A    between atoms: C_14  and  C_16
REMARK   12  A    between atoms: C_24  and  O_25
REMARK   13  A    between atoms: O_25  and  C_26
REMARK   14  A    between atoms: C_26  and  C_27
REMARK                            x       y       z     vdW  Elec       q    Type
REMARK                         _______ _______ _______ _____ _____    ______ ____
ROOT
ATOM      1  C   UNL     1       3.740   4.442  19.665  0.00  0.00    +0.000 C 
ENDROOT
BRANCH   1   4
ATOM      2  C   UNL     1       1.775   7.687  20.388  0.00  0.00    +0.000 A 
ATOM      3  C   UNL     1       2.321   6.401  20.607  0.00  0.00    +0.000 A 
ATOM      4  C   UNL     1       2.781   5.616  19.535  0.00  0.00    +0.000 A 
ATOM      5  C   UNL     1       2.553   6.069  18.237  0.00  0.00    +0.000 A 
ATOM      6  C   UNL     1       2.186   7.386  18.038  0.00  0.00    +0.000 A 
ATOM      7  C   UNL     1       1.845   8.234  19.096  0.00  0.00    +0.000 A 
BRANCH   2   9
ATOM      8  C   UNL     1      -0.179   8.236  21.586  0.00  0.00    +0.000 C 
ATOM      9  O   UNL     1       1.236   8.324  21.477  0.00  0.00    +0.000 OA
ENDBRANCH   2   9
BRANCH   7  10
ATOM     10  O   UNL     1       1.601   9.591  18.920  0.00  0.00    +0.000 OA
BRANCH  10  11
ATOM     11  C   UNL     1       0.555   9.827  17.975  0.00  0.00    +0.000 C 
BRANCH  11  12
ATOM     12  C   UNL     1      -0.646  10.601  18.414  0.00  0.00    +0.000 A 
ATOM     13  C   UNL     1      -1.839  10.690  17.691  0.00  0.00    +0.000 A 
ATOM     14  C   UNL     1      -2.884  11.459  18.218  0.00  0.00    +0.000 A 
ATOM     15  C   UNL     1      -2.748  12.133  19.442  0.00  0.00    +0.000 A 
ATOM     16  C   UNL     1      -1.558  12.041  20.156  0.00  0.00    +0.000 A 
ATOM     17  C   UNL     1      -0.521  11.270  19.648  0.00  0.00    +0.000 A 
ENDBRANCH  11  12
ENDBRANCH  10  11
ENDBRANCH   7  10
ENDBRANCH   1   4
BRANCH   1  18
ATOM     18  N   UNL     1       4.401   3.978  18.451  0.00  0.00    +0.000 N 
ATOM     19  C   UNL     1       5.488   4.732  18.037  0.00  0.00    +0.000 C 
ATOM     20  O   UNL     1       6.038   5.590  18.718  0.00  0.00    +0.000 OA
BRANCH  18  21
ATOM     21  C   UNL     1       3.614   3.216  17.460  0.00  0.00    +0.000 C 
BRANCH  21  22
ATOM     22  C   UNL     1       2.868   1.956  17.969  0.00  0.00    +0.000 C 
BRANCH  22  23
ATOM     23  N   UNL     1       1.423   2.110  18.138  0.00  0.00    +0.000 NA
ATOM     24  H   UNL     1       1.247   3.011  18.587  0.00  0.00    +0.000 HD
ATOM     25  H   UNL     1       1.097   1.413  18.809  0.00  0.00    +0.000 HD
ENDBRANCH  22  23
ENDBRANCH  21  22
ENDBRANCH  18  21
BRANCH  19  26
ATOM     26  O   UNL     1       5.867   4.419  16.775  0.00  0.00    +0.000 OA
BRANCH  26  27
ATOM     27  C   UNL     1       5.171   5.076  15.710  0.00  0.00    +0.000 C 
ATOM     28  C   UNL     1       5.233   6.590  15.916  0.00  0.00    +0.000 C 
BRANCH  27  29
ATOM     29  C   UNL     1       5.860   4.678  14.416  0.00  0.00    +0.000 A 
ATOM     30  C   UNL     1       7.112   5.223  14.092  0.00  0.00    +0.000 A 
ATOM     31  C   UNL     1       7.769   4.842  12.922  0.00  0.00    +0.000 A 
ATOM     32  C   UNL     1       7.186   3.917  12.056  0.00  0.00    +0.000 A 
ATOM     33  C   UNL     1       5.940   3.378  12.356  0.00  0.00    +0.000 A 
ATOM     34  C   UNL     1       5.279   3.756  13.524  0.00  0.00    +0.000 A 
ENDBRANCH  27  29
ENDBRANCH  26  27
ENDBRANCH  19  26
ENDBRANCH   1  18
TORSDOF 12
ENDMDL
