MODEL 1
REMARK VINA RESULT:      -8.5      0.000      0.000
REMARK  Name = 
REMARK  11 active torsions:
REMARK  status: ('A' for Active; 'I' for Inactive)
REMARK    1  A    between atoms: C_1  and  O_2
REMARK    2  A    between atoms: O_2  and  C_3
REMARK    3  A    between atoms: C_6  and  C_7
REMARK    4  A    between atoms: C_10  and  C_11
REMARK    5  A    between atoms: C_15  and  N_16
REMARK    6  A    between atoms: C_17  and  C_19
REMARK    7  A    between atoms: C_24  and  O_26
REMARK    8  A    between atoms: O_26  and  C_27
REMARK    9  A    between atoms: C_27  and  C_28
REMARK   10  A    between atoms: C_27  and  C_29
REMARK   11  A    between atoms: C_27  and  C_30
REMARK                            x       y       z     vdW  Elec       q    Type
REMARK                         _______ _______ _______ _____ _____    ______ ____
ROOT
ATOM      1  C   UNL     1       0.904   9.369  20.162  0.00  0.00    +0.000 A 
ATOM      2  C   UNL     1       1.023  10.207  19.043  0.00  0.00    +0.000 A 
ATOM      3  C   UNL     1       1.735   9.790  17.922  0.00  0.00    +0.000 A 
ATOM      4  C   UNL     1       2.341   8.539  17.910  0.00  0.00    +0.000 A 
ATOM      5  C   UNL     1       2.248   7.679  19.007  0.00  0.00    +0.000 A 
ATOM      6  C   UNL     1       1.505   8.094  20.120  0.00  0.00    +0.000 A 
ENDROOT
BRANCH   1  10
ATOM      7  C   UNL     1      -1.251  11.159  22.366  0.00  0.00    +0.000 A 
ATOM      8  C   UNL     1      -0.766  10.291  23.325  0.00  0.00    +0.000 A 
ATOM      9  C   UNL     1       0.172   9.452  22.676  0.00  0.00    +0.000 A 
ATOM     10  C   UNL     1       0.206   9.844  21.353  0.00  0.00    +0.000 A 
ATOM     11  O   UNL     1      -0.650  10.890  21.170  0.00  0.00    +0.000 OA
BRANCH   7  15
ATOM     12  C   UNL     1      -4.053  14.394  22.416  0.00  0.00    +0.000 A 
ATOM     13  C   UNL     1      -4.038  13.455  23.445  0.00  0.00    +0.000 A 
ATOM     14  C   UNL     1      -3.125  12.398  23.428  0.00  0.00    +0.000 A 
ATOM     15  C   UNL     1      -2.220  12.249  22.369  0.00  0.00    +0.000 A 
ATOM     16  C   UNL     1      -2.275  13.178  21.318  0.00  0.00    +0.000 A 
ATOM     17  C   UNL     1      -3.181  14.244  21.339  0.00  0.00    +0.000 A 
BRANCH  12  19
ATOM     18  C   UNL     1      -6.229  15.148  21.906  0.00  0.00    +0.000 C 
ATOM     19  O   UNL     1      -4.980  15.392  22.545  0.00  0.00    +0.000 OA
ENDBRANCH  12  19
ENDBRANCH   7  15
ENDBRANCH   1  10
BRANCH   5  20
ATOM     20  N   UNL     1       2.860   6.406  19.044  0.00  0.00    +0.000 N 
ATOM     21  C   UNL     1       2.416   5.285  18.366  0.00  0.00    +0.000 C 
ATOM     22  O   UNL     1       1.449   5.241  17.603  0.00  0.00    +0.000 OA
ATOM     23  H   UNL     1       3.755   6.329  19.514  0.00  0.00    +0.000 HD
BRANCH  21  24
ATOM     24  C   UNL     1       3.125   3.973  18.714  0.00  0.00    +0.000 C 
ATOM     25  C   UNL     1       2.416   3.279  19.886  0.00  0.00    +0.000 C 
ATOM     26  C   UNL     1       3.393   2.176  20.276  0.00  0.00    +0.000 C 
ATOM     27  C   UNL     1       4.761   2.751  19.928  0.00  0.00    +0.000 C 
ATOM     28  N   UNL     1       4.500   3.978  19.195  0.00  0.00    +0.000 N 
ATOM     29  C   UNL     1       5.563   4.604  18.584  0.00  0.00    +0.000 C 
ATOM     30  O   UNL     1       6.726   4.315  18.860  0.00  0.00    +0.000 OA
BRANCH  29  31
ATOM     31  O   UNL     1       5.197   5.592  17.730  0.00  0.00    +0.000 OA
BRANCH  31  32
ATOM     32  C   UNL     1       5.665   5.552  16.350  0.00  0.00    +0.000 C 
ATOM     33  C   UNL     1       7.198   5.613  16.271  0.00  0.00    +0.000 C 
ATOM     34  C   UNL     1       5.209   4.202  15.770  0.00  0.00    +0.000 C 
ATOM     35  C   UNL     1       5.004   6.661  15.521  0.00  0.00    +0.000 C 
ENDBRANCH  31  32
ENDBRANCH  29  31
ENDBRANCH  21  24
ENDBRANCH   5  20
TORSDOF 7
ENDMDL
MODEL 2
REMARK VINA RESULT:      -8.4      0.563      1.276
REMARK  Name = 
REMARK  11 active torsions:
REMARK  status: ('A' for Active; 'I' for Inactive)
REMARK    1  A    between atoms: C_1  and  O_2
REMARK    2  A    between atoms: O_2  and  C_3
REMARK    3  A    between atoms: C_6  and  C_7
REMARK    4  A    between atoms: C_10  and  C_11
REMARK    5  A    between atoms: C_15  and  N_16
REMARK    6  A    between atoms: C_17  and  C_19
REMARK    7  A    between atoms: C_24  and  O_26
REMARK    8  A    between atoms: O_26  and  C_27
REMARK    9  A    between atoms: C_27  and  C_28
REMARK   10  A    between atoms: C_27  and  C_29
REMARK   11  A    between atoms: C_27  and  C_30
REMARK                            x       y       z     vdW  Elec       q    Type
REMARK                         _______ _______ _______ _____ _____    ______ ____
ROOT
ATOM      1  C   UNL     1       0.920   9.315  20.155  0.00  0.00    +0.000 A 
ATOM      2  C   UNL     1       1.000  10.152  19.032  0.00  0.00    +0.000 A 
ATOM      3  C   UNL     1       1.695   9.744  17.897  0.00  0.00    +0.000 A 
ATOM      4  C   UNL     1       2.321   8.503  17.873  0.00  0.00    +0.000 A 
ATOM      5  C   UNL     1       2.266   7.645  18.974  0.00  0.00    +0.000 A 
ATOM      6  C   UNL     1       1.541   8.050  20.103  0.00  0.00    +0.000 A 
ENDROOT
BRANCH   1  10
ATOM      7  C   UNL     1      -1.193  11.096  22.407  0.00  0.00    +0.000 A 
ATOM      8  C   UNL     1      -0.705  10.212  23.348  0.00  0.00    +0.000 A 
ATOM      9  C   UNL     1       0.219   9.373  22.678  0.00  0.00    +0.000 A 
ATOM     10  C   UNL     1       0.240   9.781  21.360  0.00  0.00    +0.000 A 
ATOM     11  O   UNL     1      -0.609  10.836  21.200  0.00  0.00    +0.000 OA
BRANCH   7  15
ATOM     12  C   UNL     1      -4.050  14.283  22.441  0.00  0.00    +0.000 A 
ATOM     13  C   UNL     1      -3.089  14.205  21.436  0.00  0.00    +0.000 A 
ATOM     14  C   UNL     1      -2.155  13.166  21.425  0.00  0.00    +0.000 A 
ATOM     15  C   UNL     1      -2.153  12.194  22.434  0.00  0.00    +0.000 A 
ATOM     16  C   UNL     1      -3.100  12.309  23.464  0.00  0.00    +0.000 A 
ATOM     17  C   UNL     1      -4.043  13.342  23.469  0.00  0.00    +0.000 A 
BRANCH  12  19
ATOM     18  C   UNL     1      -4.314  16.620  22.266  0.00  0.00    +0.000 C 
ATOM     19  O   UNL     1      -4.920  15.334  22.342  0.00  0.00    +0.000 OA
ENDBRANCH  12  19
ENDBRANCH   7  15
ENDBRANCH   1  10
BRANCH   5  20
ATOM     20  N   UNL     1       2.900   6.382  19.001  0.00  0.00    +0.000 N 
ATOM     21  C   UNL     1       2.485   5.263  18.300  0.00  0.00    +0.000 C 
ATOM     22  O   UNL     1       1.528   5.215  17.523  0.00  0.00    +0.000 OA
ATOM     23  H   UNL     1       3.790   6.313  19.481  0.00  0.00    +0.000 HD
BRANCH  21  24
ATOM     24  C   UNL     1       3.212   3.959  18.637  0.00  0.00    +0.000 C 
ATOM     25  C   UNL     1       2.377   3.123  19.618  0.00  0.00    +0.000 C 
ATOM     26  C   UNL     1       3.349   2.035  20.058  0.00  0.00    +0.000 C 
ATOM     27  C   UNL     1       4.716   2.704  19.980  0.00  0.00    +0.000 C 
ATOM     28  N   UNL     1       4.495   3.982  19.326  0.00  0.00    +0.000 N 
ATOM     29  C   UNL     1       5.598   4.714  18.946  0.00  0.00    +0.000 C 
ATOM     30  O   UNL     1       6.721   4.454  19.374  0.00  0.00    +0.000 OA
BRANCH  29  31
ATOM     31  O   UNL     1       5.305   5.761  18.136  0.00  0.00    +0.000 OA
BRANCH  31  32
ATOM     32  C   UNL     1       5.953   5.857  16.834  0.00  0.00    +0.000 C 
ATOM     33  C   UNL     1       5.076   6.604  15.819  0.00  0.00    +0.000 C 
ATOM     34  C   UNL     1       7.242   6.671  17.043  0.00  0.00    +0.000 C 
ATOM     35  C   UNL     1       6.359   4.467  16.327  0.00  0.00    +0.000 C 
ENDBRANCH  31  32
ENDBRANCH  29  31
ENDBRANCH  21  24
ENDBRANCH   5  20
TORSDOF 7
ENDMDL
MODEL 3
REMARK VINA RESULT:      -8.4      1.153      1.440
REMARK  Name = 
REMARK  11 active torsions:
REMARK  status: ('A' for Active; 'I' for Inactive)
REMARK    1  A    between atoms: C_1  and  O_2
REMARK    2  A    between atoms: O_2  and  C_3
REMARK    3  A    between atoms: C_6  and  C_7
REMARK    4  A    between atoms: C_10  and  C_11
REMARK    5  A    between atoms: C_15  and  N_16
REMARK    6  A    between atoms: C_17  and  C_19
REMARK    7  A    between atoms: C_24  and  O_26
REMARK    8  A    between atoms: O_26  and  C_27
REMARK    9  A    between atoms: C_27  and  C_28
REMARK   10  A    between atoms: C_27  and  C_29
REMARK   11  A    between atoms: C_27  and  C_30
REMARK                            x       y       z     vdW  Elec       q    Type
REMARK                         _______ _______ _______ _____ _____    ______ ____
ROOT
ATOM      1  C   UNL     1       0.879   9.386  20.211  0.00  0.00    +0.000 A 
ATOM      2  C   UNL     1       0.999  10.231  19.098  0.00  0.00    +0.000 A 
ATOM      3  C   UNL     1       1.714   9.822  17.976  0.00  0.00    +0.000 A 
ATOM      4  C   UNL     1       2.321   8.571  17.956  0.00  0.00    +0.000 A 
ATOM      5  C   UNL     1       2.226   7.704  19.048  0.00  0.00    +0.000 A 
ATOM      6  C   UNL     1       1.481   8.112  20.163  0.00  0.00    +0.000 A 
ENDROOT
BRANCH   1  10
ATOM      7  C   UNL     1      -0.830  11.424  22.584  0.00  0.00    +0.000 A 
ATOM      8  C   UNL     1      -0.952  10.250  23.301  0.00  0.00    +0.000 A 
ATOM      9  C   UNL     1      -0.299   9.244  22.546  0.00  0.00    +0.000 A 
ATOM     10  C   UNL     1       0.178   9.854  21.403  0.00  0.00    +0.000 A 
ATOM     11  O   UNL     1      -0.135  11.181  21.435  0.00  0.00    +0.000 OA
BRANCH   7  15
ATOM     12  C   UNL     1      -2.101  15.456  23.261  0.00  0.00    +0.000 A 
ATOM     13  C   UNL     1      -2.966  14.391  23.502  0.00  0.00    +0.000 A 
ATOM     14  C   UNL     1      -2.553  13.075  23.279  0.00  0.00    +0.000 A 
ATOM     15  C   UNL     1      -1.268  12.800  22.792  0.00  0.00    +0.000 A 
ATOM     16  C   UNL     1      -0.421  13.885  22.514  0.00  0.00    +0.000 A 
ATOM     17  C   UNL     1      -0.831  15.202  22.747  0.00  0.00    +0.000 A 
BRANCH  12  19
ATOM     18  C   UNL     1      -3.554  17.184  22.580  0.00  0.00    +0.000 C 
ATOM     19  O   UNL     1      -2.609  16.697  23.528  0.00  0.00    +0.000 OA
ENDBRANCH  12  19
ENDBRANCH   7  15
ENDBRANCH   1  10
BRANCH   5  20
ATOM     20  N   UNL     1       2.839   6.431  19.078  0.00  0.00    +0.000 N 
ATOM     21  C   UNL     1       2.458   5.342  18.314  0.00  0.00    +0.000 C 
ATOM     22  O   UNL     1       1.559   5.333  17.472  0.00  0.00    +0.000 OA
ATOM     23  H   UNL     1       3.691   6.333  19.618  0.00  0.00    +0.000 HD
BRANCH  21  24
ATOM     24  C   UNL     1       3.141   4.016  18.661  0.00  0.00    +0.000 C 
ATOM     25  C   UNL     1       2.285   3.220  19.657  0.00  0.00    +0.000 C 
ATOM     26  C   UNL     1       3.222   2.103  20.101  0.00  0.00    +0.000 C 
ATOM     27  C   UNL     1       4.611   2.722  20.005  0.00  0.00    +0.000 C 
ATOM     28  N   UNL     1       4.430   4.001  19.339  0.00  0.00    +0.000 N 
ATOM     29  C   UNL     1       5.555   4.688  18.943  0.00  0.00    +0.000 C 
ATOM     30  O   UNL     1       6.672   4.393  19.365  0.00  0.00    +0.000 OA
BRANCH  29  31
ATOM     31  O   UNL     1       5.293   5.737  18.124  0.00  0.00    +0.000 OA
BRANCH  31  32
ATOM     32  C   UNL     1       5.937   5.799  16.818  0.00  0.00    +0.000 C 
ATOM     33  C   UNL     1       5.071   6.547  15.794  0.00  0.00    +0.000 C 
ATOM     34  C   UNL     1       7.243   6.590  17.009  0.00  0.00    +0.000 C 
ATOM     35  C   UNL     1       6.313   4.393  16.332  0.00  0.00    +0.000 C 
ENDBRANCH  31  32
ENDBRANCH  29  31
ENDBRANCH  21  24
ENDBRANCH   5  20
TORSDOF 7
ENDMDL
MODEL 4
REMARK VINA RESULT:      -8.3      1.050      1.303
REMARK  Name = 
REMARK  11 active torsions:
REMARK  status: ('A' for Active; 'I' for Inactive)
REMARK    1  A    between atoms: C_1  and  O_2
REMARK    2  A    between atoms: O_2  and  C_3
REMARK    3  A    between atoms: C_6  and  C_7
REMARK    4  A    between atoms: C_10  and  C_11
REMARK    5  A    between atoms: C_15  and  N_16
REMARK    6  A    between atoms: C_17  and  C_19
REMARK    7  A    between atoms: C_24  and  O_26
REMARK    8  A    between atoms: O_26  and  C_27
REMARK    9  A    between atoms: C_27  and  C_28
REMARK   10  A    between atoms: C_27  and  C_29
REMARK   11  A    between atoms: C_27  and  C_30
REMARK                            x       y       z     vdW  Elec       q    Type
REMARK                         _______ _______ _______ _____ _____    ______ ____
ROOT
ATOM      1  C   UNL     1       0.873   9.381  20.207  0.00  0.00    +0.000 A 
ATOM      2  C   UNL     1       0.995  10.242  19.106  0.00  0.00    +0.000 A 
ATOM      3  C   UNL     1       1.708   9.846  17.978  0.00  0.00    +0.000 A 
ATOM      4  C   UNL     1       2.311   8.594  17.940  0.00  0.00    +0.000 A 
ATOM      5  C   UNL     1       2.214   7.712  19.020  0.00  0.00    +0.000 A 
ATOM      6  C   UNL     1       1.471   8.106  20.140  0.00  0.00    +0.000 A 
ENDROOT
BRANCH   1  10
ATOM      7  C   UNL     1      -0.987  11.332  22.540  0.00  0.00    +0.000 A 
ATOM      8  C   UNL     1      -0.903  10.208  23.338  0.00  0.00    +0.000 A 
ATOM      9  C   UNL     1      -0.153   9.250  22.613  0.00  0.00    +0.000 A 
ATOM     10  C   UNL     1       0.174   9.834  21.406  0.00  0.00    +0.000 A 
ATOM     11  O   UNL     1      -0.323  11.103  21.369  0.00  0.00    +0.000 OA
BRANCH   7  15
ATOM     12  C   UNL     1      -2.794  15.196  22.891  0.00  0.00    +0.000 A 
ATOM     13  C   UNL     1      -1.408  15.062  22.880  0.00  0.00    +0.000 A 
ATOM     14  C   UNL     1      -0.817  13.800  22.768  0.00  0.00    +0.000 A 
ATOM     15  C   UNL     1      -1.605  12.645  22.683  0.00  0.00    +0.000 A 
ATOM     16  C   UNL     1      -3.001  12.792  22.737  0.00  0.00    +0.000 A 
ATOM     17  C   UNL     1      -3.593  14.055  22.839  0.00  0.00    +0.000 A 
BRANCH  12  19
ATOM     18  C   UNL     1      -2.480  17.346  23.810  0.00  0.00    +0.000 C 
ATOM     19  O   UNL     1      -3.259  16.479  22.991  0.00  0.00    +0.000 OA
ENDBRANCH  12  19
ENDBRANCH   7  15
ENDBRANCH   1  10
BRANCH   5  20
ATOM     20  N   UNL     1       2.823   6.437  19.031  0.00  0.00    +0.000 N 
ATOM     21  C   UNL     1       2.398   5.340  18.303  0.00  0.00    +0.000 C 
ATOM     22  O   UNL     1       1.453   5.325  17.511  0.00  0.00    +0.000 OA
ATOM     23  H   UNL     1       3.704   6.342  19.524  0.00  0.00    +0.000 HD
BRANCH  21  24
ATOM     24  C   UNL     1       3.095   4.016  18.627  0.00  0.00    +0.000 C 
ATOM     25  C   UNL     1       2.248   3.196  19.611  0.00  0.00    +0.000 C 
ATOM     26  C   UNL     1       3.197   2.081  20.036  0.00  0.00    +0.000 C 
ATOM     27  C   UNL     1       4.579   2.716  19.948  0.00  0.00    +0.000 C 
ATOM     28  N   UNL     1       4.384   4.003  19.303  0.00  0.00    +0.000 N 
ATOM     29  C   UNL     1       5.502   4.708  18.917  0.00  0.00    +0.000 C 
ATOM     30  O   UNL     1       6.623   4.417  19.332  0.00  0.00    +0.000 OA
BRANCH  29  31
ATOM     31  O   UNL     1       5.228   5.767  18.115  0.00  0.00    +0.000 OA
BRANCH  31  32
ATOM     32  C   UNL     1       5.950   5.913  16.856  0.00  0.00    +0.000 C 
ATOM     33  C   UNL     1       7.290   6.637  17.052  0.00  0.00    +0.000 C 
ATOM     34  C   UNL     1       6.243   4.490  16.350  0.00  0.00    +0.000 C 
ATOM     35  C   UNL     1       5.072   6.607  15.807  0.00  0.00    +0.000 C 
ENDBRANCH  31  32
ENDBRANCH  29  31
ENDBRANCH  21  24
ENDBRANCH   5  20
TORSDOF 7
ENDMDL
MODEL 5
REMARK VINA RESULT:      -8.2      3.106     10.533
REMARK  Name = 
REMARK  11 active torsions:
REMARK  status: ('A' for Active; 'I' for Inactive)
REMARK    1  A    between atoms: C_1  and  O_2
REMARK    2  A    between atoms: O_2  and  C_3
REMARK    3  A    between atoms: C_6  and  C_7
REMARK    4  A    between atoms: C_10  and  C_11
REMARK    5  A    between atoms: C_15  and  N_16
REMARK    6  A    between atoms: C_17  and  C_19
REMARK    7  A    between atoms: C_24  and  O_26
REMARK    8  A    between atoms: O_26  and  C_27
REMARK    9  A    between atoms: C_27  and  C_28
REMARK   10  A    between atoms: C_27  and  C_29
REMARK   11  A    between atoms: C_27  and  C_30
REMARK                            x       y       z     vdW  Elec       q    Type
REMARK                         _______ _______ _______ _____ _____    ______ ____
ROOT
ATOM      1  C   UNL     1       0.972   8.167  20.946  0.00  0.00    +0.000 A 
ATOM      2  C   UNL     1       0.123   8.155  22.062  0.00  0.00    +0.000 A 
ATOM      3  C   UNL     1      -0.405   9.343  22.560  0.00  0.00    +0.000 A 
ATOM      4  C   UNL     1      -0.085  10.553  21.954  0.00  0.00    +0.000 A 
ATOM      5  C   UNL     1       0.761  10.604  20.843  0.00  0.00    +0.000 A 
ATOM      6  C   UNL     1       1.265   9.402  20.330  0.00  0.00    +0.000 A 
ENDROOT
BRANCH   1  10
ATOM      7  C   UNL     1       2.853   5.772  19.094  0.00  0.00    +0.000 A 
ATOM      8  C   UNL     1       2.396   4.881  20.045  0.00  0.00    +0.000 A 
ATOM      9  C   UNL     1       1.566   5.616  20.926  0.00  0.00    +0.000 A 
ATOM     10  C   UNL     1       1.566   6.920  20.473  0.00  0.00    +0.000 A 
ATOM     11  O   UNL     1       2.339   7.010  19.353  0.00  0.00    +0.000 OA
BRANCH   7  15
ATOM     12  C   UNL     1       5.469   5.474  15.719  0.00  0.00    +0.000 A 
ATOM     13  C   UNL     1       5.124   6.719  16.239  0.00  0.00    +0.000 A 
ATOM     14  C   UNL     1       4.268   6.817  17.339  0.00  0.00    +0.000 A 
ATOM     15  C   UNL     1       3.726   5.668  17.930  0.00  0.00    +0.000 A 
ATOM     16  C   UNL     1       4.049   4.422  17.370  0.00  0.00    +0.000 A 
ATOM     17  C   UNL     1       4.914   4.323  16.275  0.00  0.00    +0.000 A 
BRANCH  12  19
ATOM     18  C   UNL     1       6.501   4.255  13.984  0.00  0.00    +0.000 C 
ATOM     19  O   UNL     1       6.323   5.500  14.651  0.00  0.00    +0.000 OA
ENDBRANCH  12  19
ENDBRANCH   7  15
ENDBRANCH   1  10
BRANCH   5  20
ATOM     20  N   UNL     1       1.125  11.812  20.205  0.00  0.00    +0.000 N 
ATOM     21  C   UNL     1       0.524  12.331  19.072  0.00  0.00    +0.000 C 
ATOM     22  O   UNL     1      -0.437  11.839  18.478  0.00  0.00    +0.000 OA
ATOM     23  H   UNL     1       1.804  12.403  20.671  0.00  0.00    +0.000 HD
BRANCH  21  24
ATOM     24  C   UNL     1       1.215  13.548  18.451  0.00  0.00    +0.000 C 
ATOM     25  C   UNL     1       2.728  13.305  18.346  0.00  0.00    +0.000 C 
ATOM     26  C   UNL     1       3.275  14.682  17.991  0.00  0.00    +0.000 C 
ATOM     27  C   UNL     1       2.301  15.651  18.651  0.00  0.00    +0.000 C 
ATOM     28  N   UNL     1       1.195  14.838  19.127  0.00  0.00    +0.000 N 
ATOM     29  C   UNL     1       0.071  15.484  19.593  0.00  0.00    +0.000 C 
ATOM     30  O   UNL     1       0.084  16.683  19.863  0.00  0.00    +0.000 OA
BRANCH  29  31
ATOM     31  O   UNL     1      -0.990  14.662  19.784  0.00  0.00    +0.000 OA
BRANCH  31  32
ATOM     32  C   UNL     1      -1.569  14.544  21.117  0.00  0.00    +0.000 C 
ATOM     33  C   UNL     1      -2.470  15.742  21.450  0.00  0.00    +0.000 C 
ATOM     34  C   UNL     1      -2.440  13.276  21.107  0.00  0.00    +0.000 C 
ATOM     35  C   UNL     1      -0.470  14.344  22.169  0.00  0.00    +0.000 C 
ENDBRANCH  31  32
ENDBRANCH  29  31
ENDBRANCH  21  24
ENDBRANCH   5  20
TORSDOF 7
ENDMDL
MODEL 6
REMARK VINA RESULT:      -8.1      3.097     10.503
REMARK  Name = 
REMARK  11 active torsions:
REMARK  status: ('A' for Active; 'I' for Inactive)
REMARK    1  A    between atoms: C_1  and  O_2
REMARK    2  A    between atoms: O_2  and  C_3
REMARK    3  A    between atoms: C_6  and  C_7
REMARK    4  A    between atoms: C_10  and  C_11
REMARK    5  A    between atoms: C_15  and  N_16
REMARK    6  A    between atoms: C_17  and  C_19
REMARK    7  A    between atoms: C_24  and  O_26
REMARK    8  A    between atoms: O_26  and  C_27
REMARK    9  A    between atoms: C_27  and  C_28
REMARK   10  A    between atoms: C_27  and  C_29
REMARK   11  A    between atoms: C_27  and  C_30
REMARK                            x       y       z     vdW  Elec       q    Type
REMARK                         _______ _______ _______ _____ _____    ______ ____
ROOT
ATOM      1  C   UNL     1       0.949   8.212  20.982  0.00  0.00    +0.000 A 
ATOM      2  C   UNL     1       0.127   8.185  22.117  0.00  0.00    +0.000 A 
ATOM      3  C   UNL     1      -0.407   9.364  22.629  0.00  0.00    +0.000 A 
ATOM      4  C   UNL     1      -0.119  10.580  22.019  0.00  0.00    +0.000 A 
ATOM      5  C   UNL     1       0.699  10.645  20.888  0.00  0.00    +0.000 A 
ATOM      6  C   UNL     1       1.209   9.452  20.362  0.00  0.00    +0.000 A 
ENDROOT
BRANCH   1  10
ATOM      7  C   UNL     1       2.866   5.855  19.116  0.00  0.00    +0.000 A 
ATOM      8  C   UNL     1       2.385   4.943  20.035  0.00  0.00    +0.000 A 
ATOM      9  C   UNL     1       1.537   5.660  20.914  0.00  0.00    +0.000 A 
ATOM     10  C   UNL     1       1.551   6.974  20.493  0.00  0.00    +0.000 A 
ATOM     11  O   UNL     1       2.349   7.088  19.393  0.00  0.00    +0.000 OA
BRANCH   7  15
ATOM     12  C   UNL     1       5.446   5.615  15.709  0.00  0.00    +0.000 A 
ATOM     13  C   UNL     1       4.990   4.457  16.334  0.00  0.00    +0.000 A 
ATOM     14  C   UNL     1       4.149   4.535  17.448  0.00  0.00    +0.000 A 
ATOM     15  C   UNL     1       3.764   5.776  17.970  0.00  0.00    +0.000 A 
ATOM     16  C   UNL     1       4.265   6.935  17.356  0.00  0.00    +0.000 A 
ATOM     17  C   UNL     1       5.098   6.858  16.234  0.00  0.00    +0.000 A 
BRANCH  12  19
ATOM     18  C   UNL     1       6.283   4.084  14.123  0.00  0.00    +0.000 C 
ATOM     19  O   UNL     1       6.251   5.417  14.622  0.00  0.00    +0.000 OA
ENDBRANCH  12  19
ENDBRANCH   7  15
ENDBRANCH   1  10
BRANCH   5  20
ATOM     20  N   UNL     1       1.030  11.859  20.245  0.00  0.00    +0.000 N 
ATOM     21  C   UNL     1       0.474  12.316  19.064  0.00  0.00    +0.000 C 
ATOM     22  O   UNL     1      -0.416  11.753  18.423  0.00  0.00    +0.000 OA
ATOM     23  H   UNL     1       1.642  12.501  20.738  0.00  0.00    +0.000 HD
BRANCH  21  24
ATOM     24  C   UNL     1       1.129  13.560  18.457  0.00  0.00    +0.000 C 
ATOM     25  C   UNL     1       2.638  13.335  18.282  0.00  0.00    +0.000 C 
ATOM     26  C   UNL     1       3.159  14.728  17.952  0.00  0.00    +0.000 C 
ATOM     27  C   UNL     1       2.206  15.664  18.685  0.00  0.00    +0.000 C 
ATOM     28  N   UNL     1       1.127  14.825  19.178  0.00  0.00    +0.000 N 
ATOM     29  C   UNL     1       0.019  15.445  19.711  0.00  0.00    +0.000 C 
ATOM     30  O   UNL     1       0.034  16.635  20.022  0.00  0.00    +0.000 OA
BRANCH  29  31
ATOM     31  O   UNL     1      -1.027  14.607  19.917  0.00  0.00    +0.000 OA
BRANCH  31  32
ATOM     32  C   UNL     1      -1.539  14.426  21.270  0.00  0.00    +0.000 C 
ATOM     33  C   UNL     1      -0.402  14.361  22.301  0.00  0.00    +0.000 C 
ATOM     34  C   UNL     1      -2.400  15.662  21.584  0.00  0.00    +0.000 C 
ATOM     35  C   UNL     1      -2.450  13.194  21.345  0.00  0.00    +0.000 C 
ENDBRANCH  31  32
ENDBRANCH  29  31
ENDBRANCH  21  24
ENDBRANCH   5  20
TORSDOF 7
ENDMDL
MODEL 7
REMARK VINA RESULT:      -8.0      3.855     10.805
REMARK  Name = 
REMARK  11 active torsions:
REMARK  status: ('A' for Active; 'I' for Inactive)
REMARK    1  A    between atoms: C_1  and  O_2
REMARK    2  A    between atoms: O_2  and  C_3
REMARK    3  A    between atoms: C_6  and  C_7
REMARK    4  A    between atoms: C_10  and  C_11
REMARK    5  A    between atoms: C_15  and  N_16
REMARK    6  A    between atoms: C_17  and  C_19
REMARK    7  A    between atoms: C_24  and  O_26
REMARK    8  A    between atoms: O_26  and  C_27
REMARK    9  A    between atoms: C_27  and  C_28
REMARK   10  A    between atoms: C_27  and  C_29
REMARK   11  A    between atoms: C_27  and  C_30
REMARK                            x       y       z     vdW  Elec       q    Type
REMARK                         _______ _______ _______ _____ _____    ______ ____
ROOT
ATOM      1  C   UNL     1       0.548   9.907  20.619  0.00  0.00    +0.000 A 
ATOM      2  C   UNL     1       0.220   9.269  21.824  0.00  0.00    +0.000 A 
ATOM      3  C   UNL     1      -0.453   9.961  22.828  0.00  0.00    +0.000 A 
ATOM      4  C   UNL     1      -0.797  11.295  22.642  0.00  0.00    +0.000 A 
ATOM      5  C   UNL     1      -0.482  11.964  21.456  0.00  0.00    +0.000 A 
ATOM      6  C   UNL     1       0.169  11.253  20.439  0.00  0.00    +0.000 A 
ENDROOT
BRANCH   1  10
ATOM      7  C   UNL     1       2.383   7.402  18.868  0.00  0.00    +0.000 A 
ATOM      8  C   UNL     1       2.357   8.307  17.824  0.00  0.00    +0.000 A 
ATOM      9  C   UNL     1       1.673   9.453  18.297  0.00  0.00    +0.000 A 
ATOM     10  C   UNL     1       1.308   9.186  19.601  0.00  0.00    +0.000 A 
ATOM     11  O   UNL     1       1.751   7.944  19.949  0.00  0.00    +0.000 OA
BRANCH   7  15
ATOM     12  C   UNL     1       3.908   3.431  19.343  0.00  0.00    +0.000 A 
ATOM     13  C   UNL     1       2.855   3.884  20.134  0.00  0.00    +0.000 A 
ATOM     14  C   UNL     1       2.358   5.181  19.981  0.00  0.00    +0.000 A 
ATOM     15  C   UNL     1       2.920   6.058  19.043  0.00  0.00    +0.000 A 
ATOM     16  C   UNL     1       4.008   5.602  18.282  0.00  0.00    +0.000 A 
ATOM     17  C   UNL     1       4.499   4.299  18.427  0.00  0.00    +0.000 A 
BRANCH  12  19
ATOM     18  C   UNL     1       3.816   1.182  18.636  0.00  0.00    +0.000 C 
ATOM     19  O   UNL     1       4.301   2.141  19.571  0.00  0.00    +0.000 OA
ENDBRANCH  12  19
ENDBRANCH   7  15
ENDBRANCH   1  10
BRANCH   5  20
ATOM     20  N   UNL     1      -0.799  13.322  21.229  0.00  0.00    +0.000 N 
ATOM     21  C   UNL     1      -0.079  14.402  21.709  0.00  0.00    +0.000 C 
ATOM     22  O   UNL     1       0.961  14.338  22.368  0.00  0.00    +0.000 OA
ATOM     23  H   UNL     1      -1.546  13.528  20.575  0.00  0.00    +0.000 HD
BRANCH  21  24
ATOM     24  C   UNL     1      -0.722  15.776  21.501  0.00  0.00    +0.000 C 
ATOM     25  C   UNL     1      -2.089  15.835  22.199  0.00  0.00    +0.000 C 
ATOM     26  C   UNL     1      -2.695  17.125  21.661  0.00  0.00    +0.000 C 
ATOM     27  C   UNL     1      -2.103  17.260  20.263  0.00  0.00    +0.000 C 
ATOM     28  N   UNL     1      -1.081  16.232  20.165  0.00  0.00    +0.000 N 
ATOM     29  C   UNL     1      -0.245  16.254  19.071  0.00  0.00    +0.000 C 
ATOM     30  O   UNL     1      -0.504  16.929  18.076  0.00  0.00    +0.000 OA
BRANCH  29  31
ATOM     31  O   UNL     1       0.819  15.420  19.182  0.00  0.00    +0.000 OA
BRANCH  31  32
ATOM     32  C   UNL     1       2.165  15.979  19.180  0.00  0.00    +0.000 C 
ATOM     33  C   UNL     1       2.278  17.186  20.123  0.00  0.00    +0.000 C 
ATOM     34  C   UNL     1       3.101  14.875  19.700  0.00  0.00    +0.000 C 
ATOM     35  C   UNL     1       2.606  16.325  17.751  0.00  0.00    +0.000 C 
ENDBRANCH  31  32
ENDBRANCH  29  31
ENDBRANCH  21  24
ENDBRANCH   5  20
TORSDOF 7
ENDMDL
MODEL 8
REMARK VINA RESULT:      -7.9      1.305      1.830
REMARK  Name = 
REMARK  11 active torsions:
REMARK  status: ('A' for Active; 'I' for Inactive)
REMARK    1  A    between atoms: C_1  and  O_2
REMARK    2  A    between atoms: O_2  and  C_3
REMARK    3  A    between atoms: C_6  and  C_7
REMARK    4  A    between atoms: C_10  and  C_11
REMARK    5  A    between atoms: C_15  and  N_16
REMARK    6  A    between atoms: C_17  and  C_19
REMARK    7  A    between atoms: C_24  and  O_26
REMARK    8  A    between atoms: O_26  and  C_27
REMARK    9  A    between atoms: C_27  and  C_28
REMARK   10  A    between atoms: C_27  and  C_29
REMARK   11  A    between atoms: C_27  and  C_30
REMARK                            x       y       z     vdW  Elec       q    Type
REMARK                         _______ _______ _______ _____ _____    ______ ____
ROOT
ATOM      1  C   UNL     1       0.713   9.818  20.246  0.00  0.00    +0.000 A 
ATOM      2  C   UNL     1       1.082  10.810  19.326  0.00  0.00    +0.000 A 
ATOM      3  C   UNL     1       1.823  10.481  18.194  0.00  0.00    +0.000 A 
ATOM      4  C   UNL     1       2.210   9.164  17.975  0.00  0.00    +0.000 A 
ATOM      5  C   UNL     1       1.864   8.150  18.872  0.00  0.00    +0.000 A 
ATOM      6  C   UNL     1       1.094   8.483  19.993  0.00  0.00    +0.000 A 
ENDROOT
BRANCH   1  10
ATOM      7  C   UNL     1      -1.552  11.348  22.534  0.00  0.00    +0.000 A 
ATOM      8  C   UNL     1      -1.004  10.472  23.450  0.00  0.00    +0.000 A 
ATOM      9  C   UNL     1      -0.012   9.732  22.762  0.00  0.00    +0.000 A 
ATOM     10  C   UNL     1      -0.011  10.187  21.459  0.00  0.00    +0.000 A 
ATOM     11  O   UNL     1      -0.940  11.177  21.325  0.00  0.00    +0.000 OA
BRANCH   7  15
ATOM     12  C   UNL     1      -4.660  14.289  22.666  0.00  0.00    +0.000 A 
ATOM     13  C   UNL     1      -3.960  14.051  21.485  0.00  0.00    +0.000 A 
ATOM     14  C   UNL     1      -2.944  13.093  21.442  0.00  0.00    +0.000 A 
ATOM     15  C   UNL     1      -2.595  12.366  22.588  0.00  0.00    +0.000 A 
ATOM     16  C   UNL     1      -3.280  12.645  23.781  0.00  0.00    +0.000 A 
ATOM     17  C   UNL     1      -4.305  13.596  23.823  0.00  0.00    +0.000 A 
BRANCH  12  19
ATOM     18  C   UNL     1      -6.272  15.566  23.820  0.00  0.00    +0.000 C 
ATOM     19  O   UNL     1      -5.640  15.238  22.586  0.00  0.00    +0.000 OA
ENDBRANCH  12  19
ENDBRANCH   7  15
ENDBRANCH   1  10
BRANCH   5  20
ATOM     20  N   UNL     1       2.248   6.801  18.697  0.00  0.00    +0.000 N 
ATOM     21  C   UNL     1       3.165   6.345  17.766  0.00  0.00    +0.000 C 
ATOM     22  O   UNL     1       3.807   7.048  16.983  0.00  0.00    +0.000 OA
ATOM     23  H   UNL     1       1.913   6.126  19.374  0.00  0.00    +0.000 HD
BRANCH  21  24
ATOM     24  C   UNL     1       3.273   4.824  17.630  0.00  0.00    +0.000 C 
ATOM     25  C   UNL     1       1.878   4.184  17.686  0.00  0.00    +0.000 C 
ATOM     26  C   UNL     1       2.185   2.698  17.825  0.00  0.00    +0.000 C 
ATOM     27  C   UNL     1       3.507   2.661  18.583  0.00  0.00    +0.000 C 
ATOM     28  N   UNL     1       3.971   4.036  18.636  0.00  0.00    +0.000 N 
ATOM     29  C   UNL     1       5.249   4.270  19.095  0.00  0.00    +0.000 C 
ATOM     30  O   UNL     1       5.885   3.406  19.697  0.00  0.00    +0.000 OA
BRANCH  29  31
ATOM     31  O   UNL     1       5.681   5.538  18.883  0.00  0.00    +0.000 OA
BRANCH  31  32
ATOM     32  C   UNL     1       6.981   5.752  18.259  0.00  0.00    +0.000 C 
ATOM     33  C   UNL     1       7.302   4.659  17.229  0.00  0.00    +0.000 C 
ATOM     34  C   UNL     1       6.898   7.098  17.519  0.00  0.00    +0.000 C 
ATOM     35  C   UNL     1       8.079   5.875  19.325  0.00  0.00    +0.000 C 
ENDBRANCH  31  32
ENDBRANCH  29  31
ENDBRANCH  21  24
ENDBRANCH   5  20
TORSDOF 7
ENDMDL
MODEL 9
REMARK VINA RESULT:      -7.9      3.255     10.515
REMARK  Name = 
REMARK  11 active torsions:
REMARK  status: ('A' for Active; 'I' for Inactive)
REMARK    1  A    between atoms: C_1  and  O_2
REMARK    2  A    between atoms: O_2  and  C_3
REMARK    3  A    between atoms: C_6  and  C_7
REMARK    4  A    between atoms: C_10  and  C_11
REMARK    5  A    between atoms: C_15  and  N_16
REMARK    6  A    between atoms: C_17  and  C_19
REMARK    7  A    between atoms: C_24  and  O_26
REMARK    8  A    between atoms: O_26  and  C_27
REMARK    9  A    between atoms: C_27  and  C_28
REMARK   10  A    between atoms: C_27  and  C_29
REMARK   11  A    between atoms: C_27  and  C_30
REMARK                            x       y       z     vdW  Elec       q    Type
REMARK                         _______ _______ _______ _____ _____    ______ ____
ROOT
ATOM      1  C   UNL     1       0.929   8.295  20.981  0.00  0.00    +0.000 A 
ATOM      2  C   UNL     1      -0.022   8.259  22.011  0.00  0.00    +0.000 A 
ATOM      3  C   UNL     1      -0.549   9.440  22.527  0.00  0.00    +0.000 A 
ATOM      4  C   UNL     1      -0.127  10.666  22.025  0.00  0.00    +0.000 A 
ATOM      5  C   UNL     1       0.822  10.741  21.002  0.00  0.00    +0.000 A 
ATOM      6  C   UNL     1       1.326   9.548  20.469  0.00  0.00    +0.000 A 
ENDROOT
BRANCH   1  10
ATOM      7  C   UNL     1       2.831   5.918  19.127  0.00  0.00    +0.000 A 
ATOM      8  C   UNL     1       2.324   5.009  20.034  0.00  0.00    +0.000 A 
ATOM      9  C   UNL     1       1.477   5.735  20.907  0.00  0.00    +0.000 A 
ATOM     10  C   UNL     1       1.517   7.051  20.493  0.00  0.00    +0.000 A 
ATOM     11  O   UNL     1       2.331   7.158  19.404  0.00  0.00    +0.000 OA
BRANCH   7  15
ATOM     12  C   UNL     1       5.451   5.651  15.752  0.00  0.00    +0.000 A 
ATOM     13  C   UNL     1       5.035   4.500  16.418  0.00  0.00    +0.000 A 
ATOM     14  C   UNL     1       4.182   4.587  17.521  0.00  0.00    +0.000 A 
ATOM     15  C   UNL     1       3.742   5.832  17.991  0.00  0.00    +0.000 A 
ATOM     16  C   UNL     1       4.203   6.985  17.336  0.00  0.00    +0.000 A 
ATOM     17  C   UNL     1       5.048   6.899  16.225  0.00  0.00    +0.000 A 
BRANCH  12  19
ATOM     18  C   UNL     1       6.189   4.151  14.089  0.00  0.00    +0.000 C 
ATOM     19  O   UNL     1       6.273   5.443  14.680  0.00  0.00    +0.000 OA
ENDBRANCH  12  19
ENDBRANCH   7  15
ENDBRANCH   1  10
BRANCH   5  20
ATOM     20  N   UNL     1       1.290  11.965  20.473  0.00  0.00    +0.000 N 
ATOM     21  C   UNL     1       0.733  12.639  19.400  0.00  0.00    +0.000 C 
ATOM     22  O   UNL     1      -0.272  12.292  18.777  0.00  0.00    +0.000 OA
ATOM     23  H   UNL     1       2.023  12.447  20.981  0.00  0.00    +0.000 HD
BRANCH  21  24
ATOM     24  C   UNL     1       1.529  13.840  18.884  0.00  0.00    +0.000 C 
ATOM     25  C   UNL     1       2.829  13.370  18.214  0.00  0.00    +0.000 C 
ATOM     26  C   UNL     1       3.608  14.666  18.026  0.00  0.00    +0.000 C 
ATOM     27  C   UNL     1       3.156  15.543  19.188  0.00  0.00    +0.000 C 
ATOM     28  N   UNL     1       2.048  14.839  19.808  0.00  0.00    +0.000 N 
ATOM     29  C   UNL     1       1.316  15.503  20.768  0.00  0.00    +0.000 C 
ATOM     30  O   UNL     1       1.728  16.537  21.291  0.00  0.00    +0.000 OA
BRANCH  29  31
ATOM     31  O   UNL     1       0.167  14.870  21.112  0.00  0.00    +0.000 OA
BRANCH  31  32
ATOM     32  C   UNL     1      -1.106  15.555  20.928  0.00  0.00    +0.000 C 
ATOM     33  C   UNL     1      -1.121  16.385  19.636  0.00  0.00    +0.000 C 
ATOM     34  C   UNL     1      -2.181  14.460  20.805  0.00  0.00    +0.000 C 
ATOM     35  C   UNL     1      -1.447  16.405  22.159  0.00  0.00    +0.000 C 
ENDBRANCH  31  32
ENDBRANCH  29  31
ENDBRANCH  21  24
ENDBRANCH   5  20
TORSDOF 7
ENDMDL
