MODEL 1
REMARK VINA RESULT:      -8.3      0.000      0.000
REMARK  Name = 
REMARK  16 active torsions:
REMARK  status: ('A' for Active; 'I' for Inactive)
REMARK    1  A    between atoms: C_1  and  C_2
REMARK    2  A    between atoms: C_2  and  C_3
REMARK    3  A    between atoms: C_3  and  C_4
REMARK    4  A    between atoms: C_4  and  C_5
REMARK    5  A    between atoms: C_5  and  C_6
REMARK    6  A    between atoms: C_6  and  C_7
REMARK    7  A    between atoms: C_7  and  C_8
REMARK    8  A    between atoms: C_8  and  N_9
REMARK    9  A    between atoms: C_11  and  C_12
REMARK   10  A    between atoms: C_12  and  N_13
REMARK   11  A    between atoms: N_13  and  C_14
REMARK   12  A    between atoms: N_13  and  C_16
REMARK   13  A    between atoms: C_14  and  C_15
REMARK   14  A    between atoms: C_16  and  C_17
REMARK   15  A    between atoms: C_20  and  C_21
REMARK   16  A    between atoms: C_25  and  C_26
REMARK                            x       y       z     vdW  Elec       q    Type
REMARK                         _______ _______ _______ _____ _____    ______ ____
ROOT
ATOM      1  N   UNL     1       5.394   4.353  16.646  0.00  0.00    +0.000 N 
ATOM      2  C   UNL     1       4.607   3.233  16.670  0.00  0.00    +0.000 A 
ATOM      3  C   UNL     1       3.443   3.538  17.353  0.00  0.00    +0.000 A 
ATOM      4  C   UNL     1       3.455   4.959  17.556  0.00  0.00    +0.000 A 
ATOM      5  C   UNL     1       2.527   5.885  18.084  0.00  0.00    +0.000 A 
ATOM      6  C   UNL     1       2.849   7.253  18.220  0.00  0.00    +0.000 A 
ATOM      7  C   UNL     1       4.144   7.655  17.859  0.00  0.00    +0.000 A 
ATOM      8  C   UNL     1       5.077   6.772  17.309  0.00  0.00    +0.000 A 
ATOM      9  C   UNL     1       4.701   5.433  17.145  0.00  0.00    +0.000 A 
ENDROOT
BRANCH   6  10
ATOM     10  C   UNL     1       1.863   8.235  18.719  0.00  0.00    +0.000 A 
ATOM     11  C   UNL     1       1.253   9.159  17.848  0.00  0.00    +0.000 A 
ATOM     12  C   UNL     1       0.328  10.095  18.312  0.00  0.00    +0.000 A 
ATOM     13  C   UNL     1      -0.022  10.120  19.659  0.00  0.00    +0.000 A 
ATOM     14  C   UNL     1       0.555   9.212  20.550  0.00  0.00    +0.000 A 
ATOM     15  C   UNL     1       0.179   9.204  22.001  0.00  0.00    +0.000 C 
ATOM     16  C   UNL     1       1.489   8.282  20.073  0.00  0.00    +0.000 A 
ENDBRANCH   6  10
BRANCH   1  17
ATOM     17  C   UNL     1       6.798   4.362  16.269  0.00  0.00    +0.000 C 
BRANCH  17  18
ATOM     18  C   UNL     1       7.012   4.702  14.792  0.00  0.00    +0.000 C 
BRANCH  18  19
ATOM     19  C   UNL     1       6.135   3.871  13.852  0.00  0.00    +0.000 C 
BRANCH  19  20
ATOM     20  C   UNL     1       6.598   4.018  12.407  0.00  0.00    +0.000 C 
BRANCH  20  21
ATOM     21  C   UNL     1       6.629   2.669  11.694  0.00  0.00    +0.000 C 
BRANCH  21  22
ATOM     22  C   UNL     1       5.212   2.236  11.327  0.00  0.00    +0.000 C 
BRANCH  22  24
ATOM     23  C   UNL     1       3.266   3.384  10.242  0.00  0.00    +0.000 C 
ATOM     24  C   UNL     1       4.225   3.395  11.420  0.00  0.00    +0.000 C 
ENDBRANCH  22  24
ENDBRANCH  21  22
ENDBRANCH  20  21
ENDBRANCH  19  20
ENDBRANCH  18  19
ENDBRANCH  17  18
ENDBRANCH   1  17
BRANCH   3  25
ATOM     25  C   UNL     1       2.387   2.575  17.812  0.00  0.00    +0.000 C 
BRANCH  25  26
ATOM     26  N   UNL     1       2.375   2.413  19.286  0.00  0.00    +0.000 NA
BRANCH  26  27
ATOM     27  C   UNL     1       3.593   2.908  19.954  0.00  0.00    +0.000 C 
ATOM     28  C   UNL     1       4.677   1.884  20.272  0.00  0.00    +0.000 C 
ENDBRANCH  26  27
BRANCH  26  29
ATOM     29  C   UNL     1       1.132   2.994  19.824  0.00  0.00    +0.000 C 
ATOM     30  C   UNL     1       1.330   3.991  20.963  0.00  0.00    +0.000 C 
ENDBRANCH  26  29
ENDBRANCH  25  26
ENDBRANCH   3  25
TORSDOF 12
ENDMDL
MODEL 2
REMARK VINA RESULT:      -8.1      0.754      1.433
REMARK  Name = 
REMARK  16 active torsions:
REMARK  status: ('A' for Active; 'I' for Inactive)
REMARK    1  A    between atoms: C_1  and  C_2
REMARK    2  A    between atoms: C_2  and  C_3
REMARK    3  A    between atoms: C_3  and  C_4
REMARK    4  A    between atoms: C_4  and  C_5
REMARK    5  A    between atoms: C_5  and  C_6
REMARK    6  A    between atoms: C_6  and  C_7
REMARK    7  A    between atoms: C_7  and  C_8
REMARK    8  A    between atoms: C_8  and  N_9
REMARK    9  A    between atoms: C_11  and  C_12
REMARK   10  A    between atoms: C_12  and  N_13
REMARK   11  A    between atoms: N_13  and  C_14
REMARK   12  A    between atoms: N_13  and  C_16
REMARK   13  A    between atoms: C_14  and  C_15
REMARK   14  A    between atoms: C_16  and  C_17
REMARK   15  A    between atoms: C_20  and  C_21
REMARK   16  A    between atoms: C_25  and  C_26
REMARK                            x       y       z     vdW  Elec       q    Type
REMARK                         _______ _______ _______ _____ _____    ______ ____
ROOT
ATOM      1  N   UNL     1       4.809   4.631  16.489  0.00  0.00    +0.000 N 
ATOM      2  C   UNL     1       4.081   3.479  16.624  0.00  0.00    +0.000 A 
ATOM      3  C   UNL     1       3.058   3.719  17.525  0.00  0.00    +0.000 A 
ATOM      4  C   UNL     1       3.057   5.133  17.767  0.00  0.00    +0.000 A 
ATOM      5  C   UNL     1       2.213   6.007  18.490  0.00  0.00    +0.000 A 
ATOM      6  C   UNL     1       2.506   7.383  18.607  0.00  0.00    +0.000 A 
ATOM      7  C   UNL     1       3.695   7.847  18.021  0.00  0.00    +0.000 A 
ATOM      8  C   UNL     1       4.537   7.017  17.276  0.00  0.00    +0.000 A 
ATOM      9  C   UNL     1       4.184   5.669  17.144  0.00  0.00    +0.000 A 
ENDROOT
BRANCH   6  10
ATOM     10  C   UNL     1       1.598   8.311  19.313  0.00  0.00    +0.000 A 
ATOM     11  C   UNL     1       1.313   8.148  20.684  0.00  0.00    +0.000 A 
ATOM     12  C   UNL     1       0.450   9.014  21.355  0.00  0.00    +0.000 A 
ATOM     13  C   UNL     1      -0.139  10.076  20.676  0.00  0.00    +0.000 A 
ATOM     14  C   UNL     1       0.127  10.275  19.319  0.00  0.00    +0.000 A 
ATOM     15  C   UNL     1      -0.478  11.423  18.570  0.00  0.00    +0.000 C 
ATOM     16  C   UNL     1       0.990   9.393  18.653  0.00  0.00    +0.000 A 
ENDBRANCH   6  10
BRANCH   1  17
ATOM     17  C   UNL     1       6.114   4.706  15.854  0.00  0.00    +0.000 C 
BRANCH  17  18
ATOM     18  C   UNL     1       6.275   3.703  14.709  0.00  0.00    +0.000 C 
BRANCH  18  19
ATOM     19  C   UNL     1       6.851   4.332  13.438  0.00  0.00    +0.000 C 
BRANCH  19  20
ATOM     20  C   UNL     1       6.443   3.534  12.206  0.00  0.00    +0.000 C 
BRANCH  20  21
ATOM     21  C   UNL     1       4.941   3.263  12.191  0.00  0.00    +0.000 C 
BRANCH  21  22
ATOM     22  C   UNL     1       4.470   2.996  10.763  0.00  0.00    +0.000 C 
BRANCH  22  24
ATOM     23  C   UNL     1       2.859   4.322   9.375  0.00  0.00    +0.000 C 
ATOM     24  C   UNL     1       3.010   3.392  10.566  0.00  0.00    +0.000 C 
ENDBRANCH  22  24
ENDBRANCH  21  22
ENDBRANCH  20  21
ENDBRANCH  19  20
ENDBRANCH  18  19
ENDBRANCH  17  18
ENDBRANCH   1  17
BRANCH   3  25
ATOM     25  C   UNL     1       2.143   2.702  18.143  0.00  0.00    +0.000 C 
BRANCH  25  26
ATOM     26  N   UNL     1       2.571   2.317  19.510  0.00  0.00    +0.000 NA
BRANCH  26  27
ATOM     27  C   UNL     1       3.938   2.749  19.855  0.00  0.00    +0.000 C 
ATOM     28  C   UNL     1       4.854   1.709  20.491  0.00  0.00    +0.000 C 
ENDBRANCH  26  27
BRANCH  26  29
ATOM     29  C   UNL     1       1.552   2.767  20.476  0.00  0.00    +0.000 C 
ATOM     30  C   UNL     1       2.033   3.818  21.473  0.00  0.00    +0.000 C 
ENDBRANCH  26  29
ENDBRANCH  25  26
ENDBRANCH   3  25
TORSDOF 12
ENDMDL
MODEL 3
REMARK VINA RESULT:      -7.9      2.323      4.533
REMARK  Name = 
REMARK  16 active torsions:
REMARK  status: ('A' for Active; 'I' for Inactive)
REMARK    1  A    between atoms: C_1  and  C_2
REMARK    2  A    between atoms: C_2  and  C_3
REMARK    3  A    between atoms: C_3  and  C_4
REMARK    4  A    between atoms: C_4  and  C_5
REMARK    5  A    between atoms: C_5  and  C_6
REMARK    6  A    between atoms: C_6  and  C_7
REMARK    7  A    between atoms: C_7  and  C_8
REMARK    8  A    between atoms: C_8  and  N_9
REMARK    9  A    between atoms: C_11  and  C_12
REMARK   10  A    between atoms: C_12  and  N_13
REMARK   11  A    between atoms: N_13  and  C_14
REMARK   12  A    between atoms: N_13  and  C_16
REMARK   13  A    between atoms: C_14  and  C_15
REMARK   14  A    between atoms: C_16  and  C_17
REMARK   15  A    between atoms: C_20  and  C_21
REMARK   16  A    between atoms: C_25  and  C_26
REMARK                            x       y       z     vdW  Elec       q    Type
REMARK                         _______ _______ _______ _____ _____    ______ ____
ROOT
ATOM      1  N   UNL     1       4.602   5.108  16.618  0.00  0.00    +0.000 N 
ATOM      2  C   UNL     1       4.109   3.918  17.085  0.00  0.00    +0.000 A 
ATOM      3  C   UNL     1       3.221   4.192  18.110  0.00  0.00    +0.000 A 
ATOM      4  C   UNL     1       3.023   5.614  18.103  0.00  0.00    +0.000 A 
ATOM      5  C   UNL     1       2.175   6.492  18.815  0.00  0.00    +0.000 A 
ATOM      6  C   UNL     1       2.248   7.891  18.637  0.00  0.00    +0.000 A 
ATOM      7  C   UNL     1       3.230   8.385  17.764  0.00  0.00    +0.000 A 
ATOM      8  C   UNL     1       4.067   7.544  17.024  0.00  0.00    +0.000 A 
ATOM      9  C   UNL     1       3.928   6.161  17.193  0.00  0.00    +0.000 A 
ENDROOT
BRANCH   6  10
ATOM     10  C   UNL     1       1.325   8.810  19.336  0.00  0.00    +0.000 A 
ATOM     11  C   UNL     1       0.600   9.790  18.628  0.00  0.00    +0.000 A 
ATOM     12  C   UNL     1      -0.265  10.667  19.282  0.00  0.00    +0.000 A 
ATOM     13  C   UNL     1      -0.441  10.576  20.660  0.00  0.00    +0.000 A 
ATOM     14  C   UNL     1       0.252   9.610  21.393  0.00  0.00    +0.000 A 
ATOM     15  C   UNL     1       0.065   9.477  22.873  0.00  0.00    +0.000 C 
ATOM     16  C   UNL     1       1.126   8.740  20.725  0.00  0.00    +0.000 A 
ENDBRANCH   6  10
BRANCH   1  17
ATOM     17  C   UNL     1       5.755   5.230  15.741  0.00  0.00    +0.000 C 
BRANCH  17  18
ATOM     18  C   UNL     1       7.058   4.788  16.412  0.00  0.00    +0.000 C 
BRANCH  18  19
ATOM     19  C   UNL     1       7.381   5.585  17.677  0.00  0.00    +0.000 C 
BRANCH  19  20
ATOM     20  C   UNL     1       7.514   7.071  17.363  0.00  0.00    +0.000 C 
BRANCH  20  21
ATOM     21  C   UNL     1       8.312   7.798  18.443  0.00  0.00    +0.000 C 
BRANCH  21  22
ATOM     22  C   UNL     1       8.362   9.293  18.140  0.00  0.00    +0.000 C 
BRANCH  22  24
ATOM     23  C   UNL     1       9.884  11.253  18.495  0.00  0.00    +0.000 C 
ATOM     24  C   UNL     1       9.232  10.044  19.144  0.00  0.00    +0.000 C 
ENDBRANCH  22  24
ENDBRANCH  21  22
ENDBRANCH  20  21
ENDBRANCH  19  20
ENDBRANCH  18  19
ENDBRANCH  17  18
ENDBRANCH   1  17
BRANCH   3  25
ATOM     25  C   UNL     1       2.603   3.205  19.056  0.00  0.00    +0.000 C 
BRANCH  25  26
ATOM     26  N   UNL     1       3.476   2.919  20.221  0.00  0.00    +0.000 NA
BRANCH  26  27
ATOM     27  C   UNL     1       2.745   2.734  21.488  0.00  0.00    +0.000 C 
ATOM     28  C   UNL     1       1.223   2.806  21.428  0.00  0.00    +0.000 C 
ENDBRANCH  26  27
BRANCH  26  29
ATOM     29  C   UNL     1       4.368   1.794  19.888  0.00  0.00    +0.000 C 
ATOM     30  C   UNL     1       5.257   1.319  21.034  0.00  0.00    +0.000 C 
ENDBRANCH  26  29
ENDBRANCH  25  26
ENDBRANCH   3  25
TORSDOF 12
ENDMDL
MODEL 4
REMARK VINA RESULT:      -7.8      0.793      1.476
REMARK  Name = 
REMARK  16 active torsions:
REMARK  status: ('A' for Active; 'I' for Inactive)
REMARK    1  A    between atoms: C_1  and  C_2
REMARK    2  A    between atoms: C_2  and  C_3
REMARK    3  A    between atoms: C_3  and  C_4
REMARK    4  A    between atoms: C_4  and  C_5
REMARK    5  A    between atoms: C_5  and  C_6
REMARK    6  A    between atoms: C_6  and  C_7
REMARK    7  A    between atoms: C_7  and  C_8
REMARK    8  A    between atoms: C_8  and  N_9
REMARK    9  A    between atoms: C_11  and  C_12
REMARK   10  A    between atoms: C_12  and  N_13
REMARK   11  A    between atoms: N_13  and  C_14
REMARK   12  A    between atoms: N_13  and  C_16
REMARK   13  A    between atoms: C_14  and  C_15
REMARK   14  A    between atoms: C_16  and  C_17
REMARK   15  A    between atoms: C_20  and  C_21
REMARK   16  A    between atoms: C_25  and  C_26
REMARK                            x       y       z     vdW  Elec       q    Type
REMARK                         _______ _______ _______ _____ _____    ______ ____
ROOT
ATOM      1  N   UNL     1       4.894   4.667  16.494  0.00  0.00    +0.000 N 
ATOM      2  C   UNL     1       4.297   3.505  16.906  0.00  0.00    +0.000 A 
ATOM      3  C   UNL     1       3.332   3.826  17.845  0.00  0.00    +0.000 A 
ATOM      4  C   UNL     1       3.211   5.256  17.827  0.00  0.00    +0.000 A 
ATOM      5  C   UNL     1       2.348   6.178  18.461  0.00  0.00    +0.000 A 
ATOM      6  C   UNL     1       2.511   7.571  18.299  0.00  0.00    +0.000 A 
ATOM      7  C   UNL     1       3.596   8.012  17.525  0.00  0.00    +0.000 A 
ATOM      8  C   UNL     1       4.453   7.129  16.862  0.00  0.00    +0.000 A 
ATOM      9  C   UNL     1       4.225   5.755  17.010  0.00  0.00    +0.000 A 
ENDROOT
BRANCH   6  10
ATOM     10  C   UNL     1       1.577   8.537  18.914  0.00  0.00    +0.000 A 
ATOM     11  C   UNL     1       0.936   9.524  18.137  0.00  0.00    +0.000 A 
ATOM     12  C   UNL     1       0.060  10.445  18.711  0.00  0.00    +0.000 A 
ATOM     13  C   UNL     1      -0.210  10.394  20.076  0.00  0.00    +0.000 A 
ATOM     14  C   UNL     1       0.399   9.424  20.876  0.00  0.00    +0.000 A 
ATOM     15  C   UNL     1       0.110   9.334  22.343  0.00  0.00    +0.000 C 
ATOM     16  C   UNL     1       1.285   8.509  20.288  0.00  0.00    +0.000 A 
ENDBRANCH   6  10
BRANCH   1  17
ATOM     17  C   UNL     1       6.129   4.729  15.730  0.00  0.00    +0.000 C 
BRANCH  17  18
ATOM     18  C   UNL     1       6.147   3.750  14.553  0.00  0.00    +0.000 C 
BRANCH  18  19
ATOM     19  C   UNL     1       7.071   4.196  13.418  0.00  0.00    +0.000 C 
BRANCH  19  20
ATOM     20  C   UNL     1       6.504   3.785  12.064  0.00  0.00    +0.000 C 
BRANCH  20  21
ATOM     21  C   UNL     1       4.978   3.803  12.072  0.00  0.00    +0.000 C 
BRANCH  21  22
ATOM     22  C   UNL     1       4.436   2.744  11.116  0.00  0.00    +0.000 C 
BRANCH  22  24
ATOM     23  C   UNL     1       3.050   4.233   9.651  0.00  0.00    +0.000 C 
ATOM     24  C   UNL     1       3.025   3.081  10.640  0.00  0.00    +0.000 C 
ENDBRANCH  22  24
ENDBRANCH  21  22
ENDBRANCH  20  21
ENDBRANCH  19  20
ENDBRANCH  18  19
ENDBRANCH  17  18
ENDBRANCH   1  17
BRANCH   3  25
ATOM     25  C   UNL     1       2.576   2.872  18.723  0.00  0.00    +0.000 C 
BRANCH  25  26
ATOM     26  N   UNL     1       2.545   3.315  20.139  0.00  0.00    +0.000 NA
BRANCH  26  27
ATOM     27  C   UNL     1       1.240   3.128  20.798  0.00  0.00    +0.000 C 
ATOM     28  C   UNL     1       1.242   2.446  22.162  0.00  0.00    +0.000 C 
ENDBRANCH  26  27
BRANCH  26  29
ATOM     29  C   UNL     1       3.664   2.686  20.863  0.00  0.00    +0.000 C 
ATOM     30  C   UNL     1       4.534   1.757  20.020  0.00  0.00    +0.000 C 
ENDBRANCH  26  29
ENDBRANCH  25  26
ENDBRANCH   3  25
TORSDOF 12
ENDMDL
MODEL 5
REMARK VINA RESULT:      -7.6      1.127      1.716
REMARK  Name = 
REMARK  16 active torsions:
REMARK  status: ('A' for Active; 'I' for Inactive)
REMARK    1  A    between atoms: C_1  and  C_2
REMARK    2  A    between atoms: C_2  and  C_3
REMARK    3  A    between atoms: C_3  and  C_4
REMARK    4  A    between atoms: C_4  and  C_5
REMARK    5  A    between atoms: C_5  and  C_6
REMARK    6  A    between atoms: C_6  and  C_7
REMARK    7  A    between atoms: C_7  and  C_8
REMARK    8  A    between atoms: C_8  and  N_9
REMARK    9  A    between atoms: C_11  and  C_12
REMARK   10  A    between atoms: C_12  and  N_13
REMARK   11  A    between atoms: N_13  and  C_14
REMARK   12  A    between atoms: N_13  and  C_16
REMARK   13  A    between atoms: C_14  and  C_15
REMARK   14  A    between atoms: C_16  and  C_17
REMARK   15  A    between atoms: C_20  and  C_21
REMARK   16  A    between atoms: C_25  and  C_26
REMARK                            x       y       z     vdW  Elec       q    Type
REMARK                         _______ _______ _______ _____ _____    ______ ____
ROOT
ATOM      1  N   UNL     1       5.765   5.149  16.910  0.00  0.00    +0.000 N 
ATOM      2  C   UNL     1       5.636   4.043  17.707  0.00  0.00    +0.000 A 
ATOM      3  C   UNL     1       4.744   4.344  18.721  0.00  0.00    +0.000 A 
ATOM      4  C   UNL     1       4.162   5.612  18.384  0.00  0.00    +0.000 A 
ATOM      5  C   UNL     1       3.131   6.401  18.943  0.00  0.00    +0.000 A 
ATOM      6  C   UNL     1       2.810   7.672  18.418  0.00  0.00    +0.000 A 
ATOM      7  C   UNL     1       3.586   8.149  17.349  0.00  0.00    +0.000 A 
ATOM      8  C   UNL     1       4.594   7.384  16.755  0.00  0.00    +0.000 A 
ATOM      9  C   UNL     1       4.848   6.109  17.275  0.00  0.00    +0.000 A 
ENDROOT
BRANCH   6  10
ATOM     10  C   UNL     1       1.696   8.476  18.962  0.00  0.00    +0.000 A 
ATOM     11  C   UNL     1       0.959   9.350  18.138  0.00  0.00    +0.000 A 
ATOM     12  C   UNL     1      -0.088  10.119  18.646  0.00  0.00    +0.000 A 
ATOM     13  C   UNL     1      -0.436  10.022  19.990  0.00  0.00    +0.000 A 
ATOM     14  C   UNL     1       0.265   9.158  20.835  0.00  0.00    +0.000 A 
ATOM     15  C   UNL     1      -0.103   9.020  22.281  0.00  0.00    +0.000 C 
ATOM     16  C   UNL     1       1.321   8.397  20.315  0.00  0.00    +0.000 A 
ENDBRANCH   6  10
BRANCH   1  17
ATOM     17  C   UNL     1       6.807   5.324  15.912  0.00  0.00    +0.000 C 
BRANCH  17  18
ATOM     18  C   UNL     1       6.870   4.166  14.912  0.00  0.00    +0.000 C 
BRANCH  18  19
ATOM     19  C   UNL     1       5.754   4.218  13.865  0.00  0.00    +0.000 C 
BRANCH  19  20
ATOM     20  C   UNL     1       6.176   3.505  12.587  0.00  0.00    +0.000 C 
BRANCH  20  21
ATOM     21  C   UNL     1       4.972   2.920  11.852  0.00  0.00    +0.000 C 
BRANCH  21  22
ATOM     22  C   UNL     1       5.437   1.941  10.778  0.00  0.00    +0.000 C 
BRANCH  22  24
ATOM     23  C   UNL     1       6.103  -0.411  11.334  0.00  0.00    +0.000 C 
ATOM     24  C   UNL     1       6.558   1.037  11.284  0.00  0.00    +0.000 C 
ENDBRANCH  22  24
ENDBRANCH  21  22
ENDBRANCH  20  21
ENDBRANCH  19  20
ENDBRANCH  18  19
ENDBRANCH  17  18
ENDBRANCH   1  17
BRANCH   3  25
ATOM     25  C   UNL     1       4.456   3.521  19.943  0.00  0.00    +0.000 C 
BRANCH  25  26
ATOM     26  N   UNL     1       3.028   3.129  20.034  0.00  0.00    +0.000 NA
BRANCH  26  27
ATOM     27  C   UNL     1       2.656   2.010  19.149  0.00  0.00    +0.000 C 
ATOM     28  C   UNL     1       2.257   2.358  17.719  0.00  0.00    +0.000 C 
ENDBRANCH  26  27
BRANCH  26  29
ATOM     29  C   UNL     1       2.681   2.901  21.448  0.00  0.00    +0.000 C 
ATOM     30  C   UNL     1       1.201   2.637  21.711  0.00  0.00    +0.000 C 
ENDBRANCH  26  29
ENDBRANCH  25  26
ENDBRANCH   3  25
TORSDOF 12
ENDMDL
MODEL 6
REMARK VINA RESULT:      -7.6      1.330      3.071
REMARK  Name = 
REMARK  16 active torsions:
REMARK  status: ('A' for Active; 'I' for Inactive)
REMARK    1  A    between atoms: C_1  and  C_2
REMARK    2  A    between atoms: C_2  and  C_3
REMARK    3  A    between atoms: C_3  and  C_4
REMARK    4  A    between atoms: C_4  and  C_5
REMARK    5  A    between atoms: C_5  and  C_6
REMARK    6  A    between atoms: C_6  and  C_7
REMARK    7  A    between atoms: C_7  and  C_8
REMARK    8  A    between atoms: C_8  and  N_9
REMARK    9  A    between atoms: C_11  and  C_12
REMARK   10  A    between atoms: C_12  and  N_13
REMARK   11  A    between atoms: N_13  and  C_14
REMARK   12  A    between atoms: N_13  and  C_16
REMARK   13  A    between atoms: C_14  and  C_15
REMARK   14  A    between atoms: C_16  and  C_17
REMARK   15  A    between atoms: C_20  and  C_21
REMARK   16  A    between atoms: C_25  and  C_26
REMARK                            x       y       z     vdW  Elec       q    Type
REMARK                         _______ _______ _______ _____ _____    ______ ____
ROOT
ATOM      1  N   UNL     1       3.698   6.082  17.686  0.00  0.00    +0.000 N 
ATOM      2  C   UNL     1       3.674   4.933  18.432  0.00  0.00    +0.000 A 
ATOM      3  C   UNL     1       3.078   5.221  19.647  0.00  0.00    +0.000 A 
ATOM      4  C   UNL     1       2.538   6.545  19.529  0.00  0.00    +0.000 A 
ATOM      5  C   UNL     1       1.738   7.359  20.363  0.00  0.00    +0.000 A 
ATOM      6  C   UNL     1       1.406   8.682  19.999  0.00  0.00    +0.000 A 
ATOM      7  C   UNL     1       1.940   9.181  18.801  0.00  0.00    +0.000 A 
ATOM      8  C   UNL     1       2.711   8.395  17.939  0.00  0.00    +0.000 A 
ATOM      9  C   UNL     1       2.977   7.072  18.315  0.00  0.00    +0.000 A 
ENDROOT
BRANCH   6  10
ATOM     10  C   UNL     1       0.523   9.518  20.840  0.00  0.00    +0.000 A 
ATOM     11  C   UNL     1       0.309   9.212  22.199  0.00  0.00    +0.000 A 
ATOM     12  C   UNL     1      -0.529   9.991  22.997  0.00  0.00    +0.000 A 
ATOM     13  C   UNL     1      -1.164  11.107  22.459  0.00  0.00    +0.000 A 
ATOM     14  C   UNL     1      -0.968  11.447  21.118  0.00  0.00    +0.000 A 
ATOM     15  C   UNL     1      -1.623  12.655  20.520  0.00  0.00    +0.000 C 
ATOM     16  C   UNL     1      -0.129  10.651  20.325  0.00  0.00    +0.000 A 
ENDBRANCH   6  10
BRANCH   1  17
ATOM     17  C   UNL     1       4.482   6.257  16.475  0.00  0.00    +0.000 C 
BRANCH  17  18
ATOM     18  C   UNL     1       5.990   6.236  16.738  0.00  0.00    +0.000 C 
BRANCH  18  19
ATOM     19  C   UNL     1       6.611   4.850  16.549  0.00  0.00    +0.000 C 
BRANCH  19  20
ATOM     20  C   UNL     1       7.070   4.654  15.109  0.00  0.00    +0.000 C 
BRANCH  20  21
ATOM     21  C   UNL     1       6.032   3.886  14.294  0.00  0.00    +0.000 C 
BRANCH  21  22
ATOM     22  C   UNL     1       6.442   3.846  12.825  0.00  0.00    +0.000 C 
BRANCH  22  24
ATOM     23  C   UNL     1       5.853   1.852  11.423  0.00  0.00    +0.000 C 
ATOM     24  C   UNL     1       5.372   3.191  11.956  0.00  0.00    +0.000 C 
ENDBRANCH  22  24
ENDBRANCH  21  22
ENDBRANCH  20  21
ENDBRANCH  19  20
ENDBRANCH  18  19
ENDBRANCH  17  18
ENDBRANCH   1  17
BRANCH   3  25
ATOM     25  C   UNL     1       3.024   4.334  20.858  0.00  0.00    +0.000 C 
BRANCH  25  26
ATOM     26  N   UNL     1       2.313   3.060  20.591  0.00  0.00    +0.000 NA
BRANCH  26  27
ATOM     27  C   UNL     1       0.946   3.234  20.068  0.00  0.00    +0.000 C 
ATOM     28  C   UNL     1       0.615   2.549  18.747  0.00  0.00    +0.000 C 
ENDBRANCH  26  27
BRANCH  26  29
ATOM     29  C   UNL     1       3.162   2.205  19.742  0.00  0.00    +0.000 C 
ATOM     30  C   UNL     1       4.565   1.951  20.286  0.00  0.00    +0.000 C 
ENDBRANCH  26  29
ENDBRANCH  25  26
ENDBRANCH   3  25
TORSDOF 12
ENDMDL
MODEL 7
REMARK VINA RESULT:      -7.6      2.717      4.782
REMARK  Name = 
REMARK  16 active torsions:
REMARK  status: ('A' for Active; 'I' for Inactive)
REMARK    1  A    between atoms: C_1  and  C_2
REMARK    2  A    between atoms: C_2  and  C_3
REMARK    3  A    between atoms: C_3  and  C_4
REMARK    4  A    between atoms: C_4  and  C_5
REMARK    5  A    between atoms: C_5  and  C_6
REMARK    6  A    between atoms: C_6  and  C_7
REMARK    7  A    between atoms: C_7  and  C_8
REMARK    8  A    between atoms: C_8  and  N_9
REMARK    9  A    between atoms: C_11  and  C_12
REMARK   10  A    between atoms: C_12  and  N_13
REMARK   11  A    between atoms: N_13  and  C_14
REMARK   12  A    between atoms: N_13  and  C_16
REMARK   13  A    between atoms: C_14  and  C_15
REMARK   14  A    between atoms: C_16  and  C_17
REMARK   15  A    between atoms: C_20  and  C_21
REMARK   16  A    between atoms: C_25  and  C_26
REMARK                            x       y       z     vdW  Elec       q    Type
REMARK                         _______ _______ _______ _____ _____    ______ ____
ROOT
ATOM      1  N   UNL     1       4.605   5.949  17.108  0.00  0.00    +0.000 N 
ATOM      2  C   UNL     1       4.358   4.750  17.722  0.00  0.00    +0.000 A 
ATOM      3  C   UNL     1       3.500   4.978  18.783  0.00  0.00    +0.000 A 
ATOM      4  C   UNL     1       3.055   6.337  18.658  0.00  0.00    +0.000 A 
ATOM      5  C   UNL     1       2.111   7.131  19.348  0.00  0.00    +0.000 A 
ATOM      6  C   UNL     1       1.927   8.495  19.034  0.00  0.00    +0.000 A 
ATOM      7  C   UNL     1       2.752   9.052  18.044  0.00  0.00    +0.000 A 
ATOM      8  C   UNL     1       3.677   8.290  17.324  0.00  0.00    +0.000 A 
ATOM      9  C   UNL     1       3.793   6.929  17.633  0.00  0.00    +0.000 A 
ENDROOT
BRANCH   6  10
ATOM     10  C   UNL     1       0.901   9.314  19.713  0.00  0.00    +0.000 A 
ATOM     11  C   UNL     1       0.083  10.204  18.987  0.00  0.00    +0.000 A 
ATOM     12  C   UNL     1      -0.881  10.987  19.622  0.00  0.00    +0.000 A 
ATOM     13  C   UNL     1      -1.062  10.890  20.999  0.00  0.00    +0.000 A 
ATOM     14  C   UNL     1      -0.276  10.012  21.750  0.00  0.00    +0.000 A 
ATOM     15  C   UNL     1      -0.466   9.874  23.230  0.00  0.00    +0.000 C 
ATOM     16  C   UNL     1       0.695   9.236  21.101  0.00  0.00    +0.000 A 
ENDBRANCH   6  10
BRANCH   1  17
ATOM     17  C   UNL     1       5.663   6.170  16.137  0.00  0.00    +0.000 C 
BRANCH  17  18
ATOM     18  C   UNL     1       7.058   5.893  16.706  0.00  0.00    +0.000 C 
BRANCH  18  19
ATOM     19  C   UNL     1       7.394   6.765  17.917  0.00  0.00    +0.000 C 
BRANCH  19  20
ATOM     20  C   UNL     1       7.675   8.201  17.490  0.00  0.00    +0.000 C 
BRANCH  20  21
ATOM     21  C   UNL     1       8.597   8.905  18.482  0.00  0.00    +0.000 C 
BRANCH  21  22
ATOM     22  C   UNL     1       8.503  10.418  18.303  0.00  0.00    +0.000 C 
BRANCH  22  24
ATOM     23  C   UNL     1       9.750  12.500  17.674  0.00  0.00    +0.000 C 
ATOM     24  C   UNL     1       9.878  11.052  18.115  0.00  0.00    +0.000 C 
ENDBRANCH  22  24
ENDBRANCH  21  22
ENDBRANCH  20  21
ENDBRANCH  19  20
ENDBRANCH  18  19
ENDBRANCH  17  18
ENDBRANCH   1  17
BRANCH   3  25
ATOM     25  C   UNL     1       3.122   4.007  19.864  0.00  0.00    +0.000 C 
BRANCH  25  26
ATOM     26  N   UNL     1       1.986   3.139  19.468  0.00  0.00    +0.000 NA
BRANCH  26  27
ATOM     27  C   UNL     1       2.321   2.146  18.431  0.00  0.00    +0.000 C 
ATOM     28  C   UNL     1       3.573   1.304  18.654  0.00  0.00    +0.000 C 
ENDBRANCH  26  27
BRANCH  26  29
ATOM     29  C   UNL     1       1.391   2.545  20.679  0.00  0.00    +0.000 C 
ATOM     30  C   UNL     1       2.108   2.889  21.981  0.00  0.00    +0.000 C 
ENDBRANCH  26  29
ENDBRANCH  25  26
ENDBRANCH   3  25
TORSDOF 12
ENDMDL
MODEL 8
REMARK VINA RESULT:      -7.6      1.268      2.454
REMARK  Name = 
REMARK  16 active torsions:
REMARK  status: ('A' for Active; 'I' for Inactive)
REMARK    1  A    between atoms: C_1  and  C_2
REMARK    2  A    between atoms: C_2  and  C_3
REMARK    3  A    between atoms: C_3  and  C_4
REMARK    4  A    between atoms: C_4  and  C_5
REMARK    5  A    between atoms: C_5  and  C_6
REMARK    6  A    between atoms: C_6  and  C_7
REMARK    7  A    between atoms: C_7  and  C_8
REMARK    8  A    between atoms: C_8  and  N_9
REMARK    9  A    between atoms: C_11  and  C_12
REMARK   10  A    between atoms: C_12  and  N_13
REMARK   11  A    between atoms: N_13  and  C_14
REMARK   12  A    between atoms: N_13  and  C_16
REMARK   13  A    between atoms: C_14  and  C_15
REMARK   14  A    between atoms: C_16  and  C_17
REMARK   15  A    between atoms: C_20  and  C_21
REMARK   16  A    between atoms: C_25  and  C_26
REMARK                            x       y       z     vdW  Elec       q    Type
REMARK                         _______ _______ _______ _____ _____    ______ ____
ROOT
ATOM      1  N   UNL     1       4.545   5.563  16.831  0.00  0.00    +0.000 N 
ATOM      2  C   UNL     1       4.724   4.460  17.624  0.00  0.00    +0.000 A 
ATOM      3  C   UNL     1       4.201   4.739  18.874  0.00  0.00    +0.000 A 
ATOM      4  C   UNL     1       3.493   5.981  18.748  0.00  0.00    +0.000 A 
ATOM      5  C   UNL     1       2.671   6.737  19.614  0.00  0.00    +0.000 A 
ATOM      6  C   UNL     1       2.149   7.990  19.226  0.00  0.00    +0.000 A 
ATOM      7  C   UNL     1       2.517   8.485  17.964  0.00  0.00    +0.000 A 
ATOM      8  C   UNL     1       3.305   7.752  17.072  0.00  0.00    +0.000 A 
ATOM      9  C   UNL     1       3.762   6.492  17.478  0.00  0.00    +0.000 A 
ENDROOT
BRANCH   6  10
ATOM     10  C   UNL     1       1.243   8.758  20.105  0.00  0.00    +0.000 A 
ATOM     11  C   UNL     1       1.025   8.370  21.442  0.00  0.00    +0.000 A 
ATOM     12  C   UNL     1       0.164   9.085  22.275  0.00  0.00    +0.000 A 
ATOM     13  C   UNL     1      -0.489  10.217  21.797  0.00  0.00    +0.000 A 
ATOM     14  C   UNL     1      -0.290  10.637  20.480  0.00  0.00    +0.000 A 
ATOM     15  C   UNL     1      -0.965  11.864  19.946  0.00  0.00    +0.000 C 
ATOM     16  C   UNL     1       0.571   9.906  19.649  0.00  0.00    +0.000 A 
ENDBRANCH   6  10
BRANCH   1  17
ATOM     17  C   UNL     1       5.199   5.766  15.549  0.00  0.00    +0.000 C 
BRANCH  17  18
ATOM     18  C   UNL     1       5.909   4.508  15.040  0.00  0.00    +0.000 C 
BRANCH  18  19
ATOM     19  C   UNL     1       7.016   4.814  14.029  0.00  0.00    +0.000 C 
BRANCH  19  20
ATOM     20  C   UNL     1       6.732   4.139  12.693  0.00  0.00    +0.000 C 
BRANCH  20  21
ATOM     21  C   UNL     1       5.456   3.302  12.754  0.00  0.00    +0.000 C 
BRANCH  21  22
ATOM     22  C   UNL     1       5.298   2.492  11.470  0.00  0.00    +0.000 C 
BRANCH  22  24
ATOM     23  C   UNL     1       6.124   0.142  11.193  0.00  0.00    +0.000 C 
ATOM     24  C   UNL     1       6.514   1.610  11.204  0.00  0.00    +0.000 C 
ENDBRANCH  22  24
ENDBRANCH  21  22
ENDBRANCH  20  21
ENDBRANCH  19  20
ENDBRANCH  18  19
ENDBRANCH  17  18
ENDBRANCH   1  17
BRANCH   3  25
ATOM     25  C   UNL     1       4.357   3.917  20.121  0.00  0.00    +0.000 C 
BRANCH  25  26
ATOM     26  N   UNL     1       3.265   2.925  20.282  0.00  0.00    +0.000 NA
BRANCH  26  27
ATOM     27  C   UNL     1       2.132   3.406  21.092  0.00  0.00    +0.000 C 
ATOM     28  C   UNL     1       0.861   3.800  20.345  0.00  0.00    +0.000 C 
ENDBRANCH  26  27
BRANCH  26  29
ATOM     29  C   UNL     1       2.868   2.429  18.952  0.00  0.00    +0.000 C 
ATOM     30  C   UNL     1       3.674   1.237  18.445  0.00  0.00    +0.000 C 
ENDBRANCH  26  29
ENDBRANCH  25  26
ENDBRANCH   3  25
TORSDOF 12
ENDMDL
MODEL 9
REMARK VINA RESULT:      -7.5      2.286      4.384
REMARK  Name = 
REMARK  16 active torsions:
REMARK  status: ('A' for Active; 'I' for Inactive)
REMARK    1  A    between atoms: C_1  and  C_2
REMARK    2  A    between atoms: C_2  and  C_3
REMARK    3  A    between atoms: C_3  and  C_4
REMARK    4  A    between atoms: C_4  and  C_5
REMARK    5  A    between atoms: C_5  and  C_6
REMARK    6  A    between atoms: C_6  and  C_7
REMARK    7  A    between atoms: C_7  and  C_8
REMARK    8  A    between atoms: C_8  and  N_9
REMARK    9  A    between atoms: C_11  and  C_12
REMARK   10  A    between atoms: C_12  and  N_13
REMARK   11  A    between atoms: N_13  and  C_14
REMARK   12  A    between atoms: N_13  and  C_16
REMARK   13  A    between atoms: C_14  and  C_15
REMARK   14  A    between atoms: C_16  and  C_17
REMARK   15  A    between atoms: C_20  and  C_21
REMARK   16  A    between atoms: C_25  and  C_26
REMARK                            x       y       z     vdW  Elec       q    Type
REMARK                         _______ _______ _______ _____ _____    ______ ____
ROOT
ATOM      1  N   UNL     1       4.858   4.640  16.695  0.00  0.00    +0.000 N 
ATOM      2  C   UNL     1       4.165   3.489  16.963  0.00  0.00    +0.000 A 
ATOM      3  C   UNL     1       3.108   3.807  17.797  0.00  0.00    +0.000 A 
ATOM      4  C   UNL     1       3.053   5.240  17.851  0.00  0.00    +0.000 A 
ATOM      5  C   UNL     1       2.160   6.169  18.432  0.00  0.00    +0.000 A 
ATOM      6  C   UNL     1       2.403   7.558  18.374  0.00  0.00    +0.000 A 
ATOM      7  C   UNL     1       3.592   7.986  17.762  0.00  0.00    +0.000 A 
ATOM      8  C   UNL     1       4.484   7.097  17.154  0.00  0.00    +0.000 A 
ATOM      9  C   UNL     1       4.180   5.731  17.191  0.00  0.00    +0.000 A 
ENDROOT
BRANCH   6  10
ATOM     10  C   UNL     1       1.444   8.537  18.929  0.00  0.00    +0.000 A 
ATOM     11  C   UNL     1       0.802   9.478  18.099  0.00  0.00    +0.000 A 
ATOM     12  C   UNL     1      -0.098  10.409  18.617  0.00  0.00    +0.000 A 
ATOM     13  C   UNL     1      -0.390  10.414  19.978  0.00  0.00    +0.000 A 
ATOM     14  C   UNL     1       0.220   9.490  20.830  0.00  0.00    +0.000 A 
ATOM     15  C   UNL     1      -0.094   9.461  22.295  0.00  0.00    +0.000 C 
ATOM     16  C   UNL     1       1.128   8.564  20.299  0.00  0.00    +0.000 A 
ENDBRANCH   6  10
BRANCH   1  17
ATOM     17  C   UNL     1       6.178   4.680  16.089  0.00  0.00    +0.000 C 
BRANCH  17  18
ATOM     18  C   UNL     1       7.251   5.216  17.041  0.00  0.00    +0.000 C 
BRANCH  18  19
ATOM     19  C   UNL     1       7.626   6.673  16.760  0.00  0.00    +0.000 C 
BRANCH  19  20
ATOM     20  C   UNL     1       7.925   7.415  18.058  0.00  0.00    +0.000 C 
BRANCH  20  21
ATOM     21  C   UNL     1       8.046   8.919  17.823  0.00  0.00    +0.000 C 
BRANCH  21  22
ATOM     22  C   UNL     1       8.890   9.555  18.923  0.00  0.00    +0.000 C 
BRANCH  22  24
ATOM     23  C   UNL     1       8.774  11.840  17.898  0.00  0.00    +0.000 C 
ATOM     24  C   UNL     1       9.695  10.743  18.403  0.00  0.00    +0.000 C 
ENDBRANCH  22  24
ENDBRANCH  21  22
ENDBRANCH  20  21
ENDBRANCH  19  20
ENDBRANCH  18  19
ENDBRANCH  17  18
ENDBRANCH   1  17
BRANCH   3  25
ATOM     25  C   UNL     1       2.209   2.847  18.521  0.00  0.00    +0.000 C 
BRANCH  25  26
ATOM     26  N   UNL     1       2.813   2.353  19.783  0.00  0.00    +0.000 NA
BRANCH  26  27
ATOM     27  C   UNL     1       4.280   2.489  19.840  0.00  0.00    +0.000 C 
ATOM     28  C   UNL     1       5.027   1.558  20.789  0.00  0.00    +0.000 C 
ENDBRANCH  26  27
BRANCH  26  29
ATOM     29  C   UNL     1       2.121   2.979  20.924  0.00  0.00    +0.000 C 
ATOM     30  C   UNL     1       0.829   3.710  20.568  0.00  0.00    +0.000 C 
ENDBRANCH  26  29
ENDBRANCH  25  26
ENDBRANCH   3  25
TORSDOF 12
ENDMDL
