MODEL 1
REMARK VINA RESULT:      -6.7      0.000      0.000
REMARK  Name = 
REMARK  12 active torsions:
REMARK  status: ('A' for Active; 'I' for Inactive)
REMARK    1  A    between atoms: C_1  and  C_2
REMARK    2  A    between atoms: C_2  and  C_4
REMARK    3  A    between atoms: C_4  and  C_5
REMARK    4  A    between atoms: C_5  and  N_6
REMARK    5  A    between atoms: N_9  and  C_10
REMARK    6  A    between atoms: C_10  and  C_11
REMARK    7  A    between atoms: C_11  and  C_12
REMARK    8  A    between atoms: C_12  and  C_13
REMARK    9  A    between atoms: N_17  and  C_18
REMARK   10  A    between atoms: C_18  and  C_19
REMARK   11  A    between atoms: C_19  and  C_20
REMARK   12  A    between atoms: C_20  and  C_21
REMARK                            x       y       z     vdW  Elec       q    Type
REMARK                         _______ _______ _______ _____ _____    ______ ____
ROOT
ATOM      1  N   UNL     1       3.509   4.790  19.511  0.00  0.00    +0.000 N 
ATOM      2  C   UNL     1       4.787   4.652  18.997  0.00  0.00    +0.000 A 
ATOM      3  O   UNL     1       5.568   3.799  19.432  0.00  0.00    +0.000 OA
ATOM      4  N   UNL     1       5.149   5.515  17.973  0.00  0.00    +0.000 N 
ATOM      5  C   UNL     1       4.277   6.458  17.471  0.00  0.00    +0.000 A 
ATOM      6  O   UNL     1       4.497   7.065  16.422  0.00  0.00    +0.000 OA
ATOM      7  N   UNL     1       3.130   6.707  18.203  0.00  0.00    +0.000 N 
ATOM      8  C   UNL     1       2.731   5.892  19.233  0.00  0.00    +0.000 A 
ATOM      9  O   UNL     1       1.729   6.149  19.897  0.00  0.00    +0.000 OA
ENDROOT
BRANCH   1  10
ATOM     10  C   UNL     1       3.128   3.911  20.642  0.00  0.00    +0.000 C 
BRANCH  10  11
ATOM     11  C   UNL     1       1.899   3.022  20.411  0.00  0.00    +0.000 C 
BRANCH  11  13
ATOM     12  C   UNL     1       2.992   1.579  18.610  0.00  0.00    +0.000 C 
ATOM     13  C   UNL     1       1.825   2.448  19.013  0.00  0.00    +0.000 C 
ATOM     14  O   UNL     1       0.903   2.690  18.240  0.00  0.00    +0.000 OA
ENDBRANCH  11  13
ENDBRANCH  10  11
ENDBRANCH   1  10
BRANCH   4  15
ATOM     15  C   UNL     1       6.420   5.217  17.273  0.00  0.00    +0.000 C 
BRANCH  15  16
ATOM     16  C   UNL     1       6.405   4.122  16.200  0.00  0.00    +0.000 C 
BRANCH  16  17
ATOM     17  C   UNL     1       6.832   4.647  14.842  0.00  0.00    +0.000 C 
ATOM     18  C   UNL     1       6.239   3.969  13.631  0.00  0.00    +0.000 C 
ATOM     19  O   UNL     1       7.644   5.562  14.710  0.00  0.00    +0.000 OA
ENDBRANCH  16  17
ENDBRANCH  15  16
ENDBRANCH   4  15
BRANCH   7  20
ATOM     20  C   UNL     1       2.236   7.759  17.678  0.00  0.00    +0.000 C 
BRANCH  20  21
ATOM     21  C   UNL     1       2.343   9.176  18.268  0.00  0.00    +0.000 C 
BRANCH  21  22
ATOM     22  C   UNL     1       1.021   9.638  18.844  0.00  0.00    +0.000 C 
ATOM     23  C   UNL     1       0.863   9.579  20.341  0.00  0.00    +0.000 C 
ATOM     24  O   UNL     1       0.096  10.024  18.135  0.00  0.00    +0.000 OA
ENDBRANCH  21  22
ENDBRANCH  20  21
ENDBRANCH   7  20
TORSDOF 9
ENDMDL
MODEL 2
REMARK VINA RESULT:      -6.7      1.473      2.117
REMARK  Name = 
REMARK  12 active torsions:
REMARK  status: ('A' for Active; 'I' for Inactive)
REMARK    1  A    between atoms: C_1  and  C_2
REMARK    2  A    between atoms: C_2  and  C_4
REMARK    3  A    between atoms: C_4  and  C_5
REMARK    4  A    between atoms: C_5  and  N_6
REMARK    5  A    between atoms: N_9  and  C_10
REMARK    6  A    between atoms: C_10  and  C_11
REMARK    7  A    between atoms: C_11  and  C_12
REMARK    8  A    between atoms: C_12  and  C_13
REMARK    9  A    between atoms: N_17  and  C_18
REMARK   10  A    between atoms: C_18  and  C_19
REMARK   11  A    between atoms: C_19  and  C_20
REMARK   12  A    between atoms: C_20  and  C_21
REMARK                            x       y       z     vdW  Elec       q    Type
REMARK                         _______ _______ _______ _____ _____    ______ ____
ROOT
ATOM      1  N   UNL     1       3.313   4.910  19.577  0.00  0.00    +0.000 N 
ATOM      2  C   UNL     1       4.491   4.384  19.077  0.00  0.00    +0.000 A 
ATOM      3  O   UNL     1       4.958   3.323  19.508  0.00  0.00    +0.000 OA
ATOM      4  N   UNL     1       5.124   5.101  18.072  0.00  0.00    +0.000 N 
ATOM      5  C   UNL     1       4.601   6.276  17.575  0.00  0.00    +0.000 A 
ATOM      6  O   UNL     1       5.018   6.795  16.538  0.00  0.00    +0.000 OA
ATOM      7  N   UNL     1       3.578   6.864  18.296  0.00  0.00    +0.000 N 
ATOM      8  C   UNL     1       2.925   6.204  19.307  0.00  0.00    +0.000 A 
ATOM      9  O   UNL     1       2.043   6.755  19.963  0.00  0.00    +0.000 OA
ENDROOT
BRANCH   1  10
ATOM     10  C   UNL     1       2.655   4.182  20.689  0.00  0.00    +0.000 C 
BRANCH  10  11
ATOM     11  C   UNL     1       1.311   3.524  20.352  0.00  0.00    +0.000 C 
BRANCH  11  13
ATOM     12  C   UNL     1       2.020   1.576  18.861  0.00  0.00    +0.000 C 
ATOM     13  C   UNL     1       1.280   2.887  18.980  0.00  0.00    +0.000 C 
ATOM     14  O   UNL     1       0.723   3.404  18.016  0.00  0.00    +0.000 OA
ENDBRANCH  11  13
ENDBRANCH  10  11
ENDBRANCH   1  10
BRANCH   4  15
ATOM     15  C   UNL     1       6.248   4.427  17.383  0.00  0.00    +0.000 C 
BRANCH  15  16
ATOM     16  C   UNL     1       7.651   4.585  17.983  0.00  0.00    +0.000 C 
BRANCH  16  17
ATOM     17  C   UNL     1       7.719   5.722  18.984  0.00  0.00    +0.000 C 
ATOM     18  C   UNL     1       7.943   7.108  18.429  0.00  0.00    +0.000 C 
ATOM     19  O   UNL     1       7.627   5.543  20.198  0.00  0.00    +0.000 OA
ENDBRANCH  16  17
ENDBRANCH  15  16
ENDBRANCH   4  15
BRANCH   7  20
ATOM     20  C   UNL     1       3.068   8.150  17.777  0.00  0.00    +0.000 C 
BRANCH  20  21
ATOM     21  C   UNL     1       1.560   8.437  17.877  0.00  0.00    +0.000 C 
BRANCH  21  22
ATOM     22  C   UNL     1       1.292   9.900  18.162  0.00  0.00    +0.000 C 
ATOM     23  C   UNL     1      -0.074  10.263  18.680  0.00  0.00    +0.000 C 
ATOM     24  O   UNL     1       2.134  10.772  17.962  0.00  0.00    +0.000 OA
ENDBRANCH  21  22
ENDBRANCH  20  21
ENDBRANCH   7  20
TORSDOF 9
ENDMDL
MODEL 3
REMARK VINA RESULT:      -6.6      0.712      4.827
REMARK  Name = 
REMARK  12 active torsions:
REMARK  status: ('A' for Active; 'I' for Inactive)
REMARK    1  A    between atoms: C_1  and  C_2
REMARK    2  A    between atoms: C_2  and  C_4
REMARK    3  A    between atoms: C_4  and  C_5
REMARK    4  A    between atoms: C_5  and  N_6
REMARK    5  A    between atoms: N_9  and  C_10
REMARK    6  A    between atoms: C_10  and  C_11
REMARK    7  A    between atoms: C_11  and  C_12
REMARK    8  A    between atoms: C_12  and  C_13
REMARK    9  A    between atoms: N_17  and  C_18
REMARK   10  A    between atoms: C_18  and  C_19
REMARK   11  A    between atoms: C_19  and  C_20
REMARK   12  A    between atoms: C_20  and  C_21
REMARK                            x       y       z     vdW  Elec       q    Type
REMARK                         _______ _______ _______ _____ _____    ______ ____
ROOT
ATOM      1  N   UNL     1       3.329   6.710  18.001  0.00  0.00    +0.000 N 
ATOM      2  C   UNL     1       4.555   6.567  17.376  0.00  0.00    +0.000 A 
ATOM      3  O   UNL     1       4.890   7.298  16.437  0.00  0.00    +0.000 OA
ATOM      4  N   UNL     1       5.390   5.566  17.851  0.00  0.00    +0.000 N 
ATOM      5  C   UNL     1       5.030   4.756  18.908  0.00  0.00    +0.000 A 
ATOM      6  O   UNL     1       5.840   4.030  19.485  0.00  0.00    +0.000 OA
ATOM      7  N   UNL     1       3.705   4.787  19.301  0.00  0.00    +0.000 N 
ATOM      8  C   UNL     1       2.833   5.748  18.853  0.00  0.00    +0.000 A 
ATOM      9  O   UNL     1       1.649   5.738  19.183  0.00  0.00    +0.000 OA
ENDROOT
BRANCH   1  10
ATOM     10  C   UNL     1       2.405   7.740  17.469  0.00  0.00    +0.000 C 
BRANCH  10  11
ATOM     11  C   UNL     1       2.445   9.101  18.176  0.00  0.00    +0.000 C 
BRANCH  11  13
ATOM     12  C   UNL     1       1.003   9.048  20.283  0.00  0.00    +0.000 C 
ATOM     13  C   UNL     1       1.138   9.473  18.840  0.00  0.00    +0.000 C 
ATOM     14  O   UNL     1       0.230  10.053  18.250  0.00  0.00    +0.000 OA
ENDBRANCH  11  13
ENDBRANCH  10  11
ENDBRANCH   1  10
BRANCH   4  15
ATOM     15  C   UNL     1       6.781   5.564  17.341  0.00  0.00    +0.000 C 
BRANCH  15  16
ATOM     16  C   UNL     1       7.190   4.435  16.387  0.00  0.00    +0.000 C 
BRANCH  16  17
ATOM     17  C   UNL     1       6.952   4.801  14.935  0.00  0.00    +0.000 C 
ATOM     18  C   UNL     1       5.678   4.293  14.303  0.00  0.00    +0.000 C 
ATOM     19  O   UNL     1       7.758   5.454  14.274  0.00  0.00    +0.000 OA
ENDBRANCH  16  17
ENDBRANCH  15  16
ENDBRANCH   4  15
BRANCH   7  20
ATOM     20  C   UNL     1       3.328   3.873  20.399  0.00  0.00    +0.000 C 
BRANCH  20  21
ATOM     21  C   UNL     1       3.084   2.390  20.069  0.00  0.00    +0.000 C 
BRANCH  21  22
ATOM     22  C   UNL     1       2.292   2.230  18.789  0.00  0.00    +0.000 C 
ATOM     23  C   UNL     1       0.801   2.428  18.871  0.00  0.00    +0.000 C 
ATOM     24  O   UNL     1       2.822   1.927  17.723  0.00  0.00    +0.000 OA
ENDBRANCH  21  22
ENDBRANCH  20  21
ENDBRANCH   7  20
TORSDOF 9
ENDMDL
MODEL 4
REMARK VINA RESULT:      -6.6      1.469      4.933
REMARK  Name = 
REMARK  12 active torsions:
REMARK  status: ('A' for Active; 'I' for Inactive)
REMARK    1  A    between atoms: C_1  and  C_2
REMARK    2  A    between atoms: C_2  and  C_4
REMARK    3  A    between atoms: C_4  and  C_5
REMARK    4  A    between atoms: C_5  and  N_6
REMARK    5  A    between atoms: N_9  and  C_10
REMARK    6  A    between atoms: C_10  and  C_11
REMARK    7  A    between atoms: C_11  and  C_12
REMARK    8  A    between atoms: C_12  and  C_13
REMARK    9  A    between atoms: N_17  and  C_18
REMARK   10  A    between atoms: C_18  and  C_19
REMARK   11  A    between atoms: C_19  and  C_20
REMARK   12  A    between atoms: C_20  and  C_21
REMARK                            x       y       z     vdW  Elec       q    Type
REMARK                         _______ _______ _______ _____ _____    ______ ____
ROOT
ATOM      1  N   UNL     1       2.466   6.838  19.467  0.00  0.00    +0.000 N 
ATOM      2  C   UNL     1       3.333   7.164  18.439  0.00  0.00    +0.000 A 
ATOM      3  O   UNL     1       3.263   8.252  17.857  0.00  0.00    +0.000 OA
ATOM      4  N   UNL     1       4.283   6.214  18.092  0.00  0.00    +0.000 N 
ATOM      5  C   UNL     1       4.377   5.004  18.747  0.00  0.00    +0.000 A 
ATOM      6  O   UNL     1       5.347   4.258  18.613  0.00  0.00    +0.000 OA
ATOM      7  N   UNL     1       3.325   4.651  19.572  0.00  0.00    +0.000 N 
ATOM      8  C   UNL     1       2.352   5.548  19.938  0.00  0.00    +0.000 A 
ATOM      9  O   UNL     1       1.403   5.208  20.641  0.00  0.00    +0.000 OA
ENDROOT
BRANCH   1  10
ATOM     10  C   UNL     1       1.411   7.822  19.812  0.00  0.00    +0.000 C 
BRANCH  10  11
ATOM     11  C   UNL     1       1.432   8.343  21.254  0.00  0.00    +0.000 C 
BRANCH  11  13
ATOM     12  C   UNL     1       0.011   9.461  23.056  0.00  0.00    +0.000 C 
ATOM     13  C   UNL     1       0.268   9.251  21.583  0.00  0.00    +0.000 C 
ATOM     14  O   UNL     1      -0.446   9.761  20.724  0.00  0.00    +0.000 OA
ENDBRANCH  11  13
ENDBRANCH  10  11
ENDBRANCH   1  10
BRANCH   4  15
ATOM     15  C   UNL     1       5.347   6.650  17.159  0.00  0.00    +0.000 C 
BRANCH  15  16
ATOM     16  C   UNL     1       5.234   6.215  15.693  0.00  0.00    +0.000 C 
BRANCH  16  17
ATOM     17  C   UNL     1       6.327   5.238  15.302  0.00  0.00    +0.000 C 
ATOM     18  C   UNL     1       5.953   3.776  15.266  0.00  0.00    +0.000 C 
ATOM     19  O   UNL     1       7.477   5.594  15.052  0.00  0.00    +0.000 OA
ENDBRANCH  16  17
ENDBRANCH  15  16
ENDBRANCH   4  15
BRANCH   7  20
ATOM     20  C   UNL     1       3.420   3.329  20.222  0.00  0.00    +0.000 C 
BRANCH  20  21
ATOM     21  C   UNL     1       3.096   2.075  19.389  0.00  0.00    +0.000 C 
BRANCH  21  22
ATOM     22  C   UNL     1       2.022   2.356  18.360  0.00  0.00    +0.000 C 
ATOM     23  C   UNL     1       0.591   2.308  18.826  0.00  0.00    +0.000 C 
ATOM     24  O   UNL     1       2.286   2.591  17.184  0.00  0.00    +0.000 OA
ENDBRANCH  21  22
ENDBRANCH  20  21
ENDBRANCH   7  20
TORSDOF 9
ENDMDL
MODEL 5
REMARK VINA RESULT:      -6.6      0.844      1.004
REMARK  Name = 
REMARK  12 active torsions:
REMARK  status: ('A' for Active; 'I' for Inactive)
REMARK    1  A    between atoms: C_1  and  C_2
REMARK    2  A    between atoms: C_2  and  C_4
REMARK    3  A    between atoms: C_4  and  C_5
REMARK    4  A    between atoms: C_5  and  N_6
REMARK    5  A    between atoms: N_9  and  C_10
REMARK    6  A    between atoms: C_10  and  C_11
REMARK    7  A    between atoms: C_11  and  C_12
REMARK    8  A    between atoms: C_12  and  C_13
REMARK    9  A    between atoms: N_17  and  C_18
REMARK   10  A    between atoms: C_18  and  C_19
REMARK   11  A    between atoms: C_19  and  C_20
REMARK   12  A    between atoms: C_20  and  C_21
REMARK                            x       y       z     vdW  Elec       q    Type
REMARK                         _______ _______ _______ _____ _____    ______ ____
ROOT
ATOM      1  N   UNL     1       3.441   4.719  19.783  0.00  0.00    +0.000 N 
ATOM      2  C   UNL     1       4.667   4.543  19.165  0.00  0.00    +0.000 A 
ATOM      3  O   UNL     1       5.470   3.690  19.559  0.00  0.00    +0.000 OA
ATOM      4  N   UNL     1       4.951   5.367  18.086  0.00  0.00    +0.000 N 
ATOM      5  C   UNL     1       4.053   6.309  17.631  0.00  0.00    +0.000 A 
ATOM      6  O   UNL     1       4.189   6.878  16.547  0.00  0.00    +0.000 OA
ATOM      7  N   UNL     1       2.978   6.601  18.450  0.00  0.00    +0.000 N 
ATOM      8  C   UNL     1       2.658   5.826  19.538  0.00  0.00    +0.000 A 
ATOM      9  O   UNL     1       1.721   6.121  20.277  0.00  0.00    +0.000 OA
ENDROOT
BRANCH   1  10
ATOM     10  C   UNL     1       3.146   3.883  20.971  0.00  0.00    +0.000 C 
BRANCH  10  11
ATOM     11  C   UNL     1       2.051   2.825  20.786  0.00  0.00    +0.000 C 
BRANCH  11  13
ATOM     12  C   UNL     1       0.737   2.526  18.617  0.00  0.00    +0.000 C 
ATOM     13  C   UNL     1       2.004   2.244  19.390  0.00  0.00    +0.000 C 
ATOM     14  O   UNL     1       2.910   1.564  18.918  0.00  0.00    +0.000 OA
ENDBRANCH  11  13
ENDBRANCH  10  11
ENDBRANCH   1  10
BRANCH   4  15
ATOM     15  C   UNL     1       6.152   5.025  17.289  0.00  0.00    +0.000 C 
BRANCH  15  16
ATOM     16  C   UNL     1       5.976   4.060  16.110  0.00  0.00    +0.000 C 
BRANCH  16  17
ATOM     17  C   UNL     1       6.696   4.543  14.865  0.00  0.00    +0.000 C 
ATOM     18  C   UNL     1       6.272   3.932  13.551  0.00  0.00    +0.000 C 
ATOM     19  O   UNL     1       7.605   5.370  14.904  0.00  0.00    +0.000 OA
ENDBRANCH  16  17
ENDBRANCH  15  16
ENDBRANCH   4  15
BRANCH   7  20
ATOM     20  C   UNL     1       2.057   7.651  17.970  0.00  0.00    +0.000 C 
BRANCH  20  21
ATOM     21  C   UNL     1       2.318   9.107  18.395  0.00  0.00    +0.000 C 
BRANCH  21  22
ATOM     22  C   UNL     1       1.175   9.657  19.222  0.00  0.00    +0.000 C 
ATOM     23  C   UNL     1       0.510  10.915  18.729  0.00  0.00    +0.000 C 
ATOM     24  O   UNL     1       0.807   9.127  20.267  0.00  0.00    +0.000 OA
ENDBRANCH  21  22
ENDBRANCH  20  21
ENDBRANCH   7  20
TORSDOF 9
ENDMDL
MODEL 6
REMARK VINA RESULT:      -6.5      0.466      6.099
REMARK  Name = 
REMARK  12 active torsions:
REMARK  status: ('A' for Active; 'I' for Inactive)
REMARK    1  A    between atoms: C_1  and  C_2
REMARK    2  A    between atoms: C_2  and  C_4
REMARK    3  A    between atoms: C_4  and  C_5
REMARK    4  A    between atoms: C_5  and  N_6
REMARK    5  A    between atoms: N_9  and  C_10
REMARK    6  A    between atoms: C_10  and  C_11
REMARK    7  A    between atoms: C_11  and  C_12
REMARK    8  A    between atoms: C_12  and  C_13
REMARK    9  A    between atoms: N_17  and  C_18
REMARK   10  A    between atoms: C_18  and  C_19
REMARK   11  A    between atoms: C_19  and  C_20
REMARK   12  A    between atoms: C_20  and  C_21
REMARK                            x       y       z     vdW  Elec       q    Type
REMARK                         _______ _______ _______ _____ _____    ______ ____
ROOT
ATOM      1  N   UNL     1       5.003   5.307  17.757  0.00  0.00    +0.000 N 
ATOM      2  C   UNL     1       4.297   6.437  17.384  0.00  0.00    +0.000 A 
ATOM      3  O   UNL     1       4.669   7.146  16.442  0.00  0.00    +0.000 OA
ATOM      4  N   UNL     1       3.156   6.736  18.113  0.00  0.00    +0.000 N 
ATOM      5  C   UNL     1       2.727   5.940  19.155  0.00  0.00    +0.000 A 
ATOM      6  O   UNL     1       1.607   6.057  19.654  0.00  0.00    +0.000 OA
ATOM      7  N   UNL     1       3.615   4.992  19.630  0.00  0.00    +0.000 N 
ATOM      8  C   UNL     1       4.765   4.665  18.953  0.00  0.00    +0.000 A 
ATOM      9  O   UNL     1       5.562   3.848  19.409  0.00  0.00    +0.000 OA
ENDROOT
BRANCH   1  10
ATOM     10  C   UNL     1       6.254   5.005  17.021  0.00  0.00    +0.000 C 
BRANCH  10  11
ATOM     11  C   UNL     1       6.124   4.004  15.867  0.00  0.00    +0.000 C 
BRANCH  11  13
ATOM     12  C   UNL     1       6.190   3.846  13.320  0.00  0.00    +0.000 C 
ATOM     13  C   UNL     1       6.731   4.494  14.571  0.00  0.00    +0.000 C 
ATOM     14  O   UNL     1       7.623   5.337  14.528  0.00  0.00    +0.000 OA
ENDBRANCH  11  13
ENDBRANCH  10  11
ENDBRANCH   1  10
BRANCH   4  15
ATOM     15  C   UNL     1       2.283   7.802  17.572  0.00  0.00    +0.000 C 
BRANCH  15  16
ATOM     16  C   UNL     1       2.340   9.181  18.241  0.00  0.00    +0.000 C 
BRANCH  16  17
ATOM     17  C   UNL     1       0.972   9.650  18.699  0.00  0.00    +0.000 C 
ATOM     18  C   UNL     1       0.789   9.879  20.180  0.00  0.00    +0.000 C 
ATOM     19  O   UNL     1       0.032   9.813  17.922  0.00  0.00    +0.000 OA
ENDBRANCH  16  17
ENDBRANCH  15  16
ENDBRANCH   4  15
BRANCH   7  20
ATOM     20  C   UNL     1       3.157   4.187  20.780  0.00  0.00    +0.000 C 
BRANCH  20  21
ATOM     21  C   UNL     1       2.796   2.709  20.545  0.00  0.00    +0.000 C 
BRANCH  21  22
ATOM     22  C   UNL     1       1.798   2.555  19.417  0.00  0.00    +0.000 C 
ATOM     23  C   UNL     1       2.324   2.073  18.091  0.00  0.00    +0.000 C 
ATOM     24  O   UNL     1       0.608   2.830  19.551  0.00  0.00    +0.000 OA
ENDBRANCH  21  22
ENDBRANCH  20  21
ENDBRANCH   7  20
TORSDOF 9
ENDMDL
MODEL 7
REMARK VINA RESULT:      -6.5      0.664      4.547
REMARK  Name = 
REMARK  12 active torsions:
REMARK  status: ('A' for Active; 'I' for Inactive)
REMARK    1  A    between atoms: C_1  and  C_2
REMARK    2  A    between atoms: C_2  and  C_4
REMARK    3  A    between atoms: C_4  and  C_5
REMARK    4  A    between atoms: C_5  and  N_6
REMARK    5  A    between atoms: N_9  and  C_10
REMARK    6  A    between atoms: C_10  and  C_11
REMARK    7  A    between atoms: C_11  and  C_12
REMARK    8  A    between atoms: C_12  and  C_13
REMARK    9  A    between atoms: N_17  and  C_18
REMARK   10  A    between atoms: C_18  and  C_19
REMARK   11  A    between atoms: C_19  and  C_20
REMARK   12  A    between atoms: C_20  and  C_21
REMARK                            x       y       z     vdW  Elec       q    Type
REMARK                         _______ _______ _______ _____ _____    ______ ____
ROOT
ATOM      1  N   UNL     1       5.228   5.550  18.200  0.00  0.00    +0.000 N 
ATOM      2  C   UNL     1       4.888   4.595  19.142  0.00  0.00    +0.000 A 
ATOM      3  O   UNL     1       5.678   3.704  19.471  0.00  0.00    +0.000 OA
ATOM      4  N   UNL     1       3.621   4.686  19.700  0.00  0.00    +0.000 N 
ATOM      5  C   UNL     1       2.739   5.688  19.349  0.00  0.00    +0.000 A 
ATOM      6  O   UNL     1       1.716   5.918  19.995  0.00  0.00    +0.000 OA
ATOM      7  N   UNL     1       3.049   6.434  18.227  0.00  0.00    +0.000 N 
ATOM      8  C   UNL     1       4.284   6.375  17.629  0.00  0.00    +0.000 A 
ATOM      9  O   UNL     1       4.530   7.016  16.610  0.00  0.00    +0.000 OA
ENDROOT
BRANCH   1  10
ATOM     10  C   UNL     1       6.559   5.433  17.557  0.00  0.00    +0.000 C 
BRANCH  10  11
ATOM     11  C   UNL     1       6.714   4.289  16.548  0.00  0.00    +0.000 C 
BRANCH  11  13
ATOM     12  C   UNL     1       5.704   4.288  14.203  0.00  0.00    +0.000 C 
ATOM     13  C   UNL     1       6.813   4.758  15.114  0.00  0.00    +0.000 C 
ATOM     14  O   UNL     1       7.741   5.447  14.699  0.00  0.00    +0.000 OA
ENDBRANCH  11  13
ENDBRANCH  10  11
ENDBRANCH   1  10
BRANCH   4  15
ATOM     15  C   UNL     1       3.344   3.814  20.864  0.00  0.00    +0.000 C 
BRANCH  15  16
ATOM     16  C   UNL     1       2.229   2.769  20.726  0.00  0.00    +0.000 C 
BRANCH  16  17
ATOM     17  C   UNL     1       2.132   2.223  19.315  0.00  0.00    +0.000 C 
ATOM     18  C   UNL     1       0.830   2.450  18.583  0.00  0.00    +0.000 C 
ATOM     19  O   UNL     1       3.045   1.596  18.782  0.00  0.00    +0.000 OA
ENDBRANCH  16  17
ENDBRANCH  15  16
ENDBRANCH   4  15
BRANCH   7  20
ATOM     20  C   UNL     1       2.067   7.466  17.838  0.00  0.00    +0.000 C 
BRANCH  20  21
ATOM     21  C   UNL     1       2.349   8.930  18.217  0.00  0.00    +0.000 C 
BRANCH  21  22
ATOM     22  C   UNL     1       1.158   9.564  18.905  0.00  0.00    +0.000 C 
ATOM     23  C   UNL     1       0.930   9.214  20.352  0.00  0.00    +0.000 C 
ATOM     24  O   UNL     1       0.385  10.316  18.317  0.00  0.00    +0.000 OA
ENDBRANCH  21  22
ENDBRANCH  20  21
ENDBRANCH   7  20
TORSDOF 9
ENDMDL
MODEL 8
REMARK VINA RESULT:      -6.5      3.260      7.211
REMARK  Name = 
REMARK  12 active torsions:
REMARK  status: ('A' for Active; 'I' for Inactive)
REMARK    1  A    between atoms: C_1  and  C_2
REMARK    2  A    between atoms: C_2  and  C_4
REMARK    3  A    between atoms: C_4  and  C_5
REMARK    4  A    between atoms: C_5  and  N_6
REMARK    5  A    between atoms: N_9  and  C_10
REMARK    6  A    between atoms: C_10  and  C_11
REMARK    7  A    between atoms: C_11  and  C_12
REMARK    8  A    between atoms: C_12  and  C_13
REMARK    9  A    between atoms: N_17  and  C_18
REMARK   10  A    between atoms: C_18  and  C_19
REMARK   11  A    between atoms: C_19  and  C_20
REMARK   12  A    between atoms: C_20  and  C_21
REMARK                            x       y       z     vdW  Elec       q    Type
REMARK                         _______ _______ _______ _____ _____    ______ ____
ROOT
ATOM      1  N   UNL     1       6.803   6.127  17.666  0.00  0.00    +0.000 N 
ATOM      2  C   UNL     1       6.089   5.530  18.690  0.00  0.00    +0.000 A 
ATOM      3  O   UNL     1       6.342   5.767  19.876  0.00  0.00    +0.000 OA
ATOM      4  N   UNL     1       5.077   4.654  18.324  0.00  0.00    +0.000 N 
ATOM      5  C   UNL     1       4.778   4.396  17.002  0.00  0.00    +0.000 A 
ATOM      6  O   UNL     1       3.747   3.814  16.663  0.00  0.00    +0.000 OA
ATOM      7  N   UNL     1       5.693   4.819  16.056  0.00  0.00    +0.000 N 
ATOM      8  C   UNL     1       6.720   5.677  16.366  0.00  0.00    +0.000 A 
ATOM      9  O   UNL     1       7.547   6.013  15.521  0.00  0.00    +0.000 OA
ENDROOT
BRANCH   1  10
ATOM     10  C   UNL     1       7.922   7.023  18.043  0.00  0.00    +0.000 C 
BRANCH  10  11
ATOM     11  C   UNL     1       7.795   8.479  17.580  0.00  0.00    +0.000 C 
BRANCH  11  13
ATOM     12  C   UNL     1       8.722  10.844  17.843  0.00  0.00    +0.000 C 
ATOM     13  C   UNL     1       8.610   9.448  18.408  0.00  0.00    +0.000 C 
ATOM     14  O   UNL     1       9.173   9.127  19.451  0.00  0.00    +0.000 OA
ENDBRANCH  11  13
ENDBRANCH  10  11
ENDBRANCH   1  10
BRANCH   4  15
ATOM     15  C   UNL     1       4.170   4.200  19.403  0.00  0.00    +0.000 C 
BRANCH  15  16
ATOM     16  C   UNL     1       3.966   2.689  19.576  0.00  0.00    +0.000 C 
BRANCH  16  17
ATOM     17  C   UNL     1       2.508   2.332  19.792  0.00  0.00    +0.000 C 
ATOM     18  C   UNL     1       1.930   2.616  21.158  0.00  0.00    +0.000 C 
ATOM     19  O   UNL     1       1.817   1.808  18.920  0.00  0.00    +0.000 OA
ENDBRANCH  16  17
ENDBRANCH  15  16
ENDBRANCH   4  15
BRANCH   7  20
ATOM     20  C   UNL     1       5.381   4.486  14.652  0.00  0.00    +0.000 C 
BRANCH  20  21
ATOM     21  C   UNL     1       6.236   3.423  13.941  0.00  0.00    +0.000 C 
BRANCH  21  22
ATOM     22  C   UNL     1       6.107   3.522  12.436  0.00  0.00    +0.000 C 
ATOM     23  C   UNL     1       4.725   3.388  11.852  0.00  0.00    +0.000 C 
ATOM     24  O   UNL     1       7.079   3.681  11.702  0.00  0.00    +0.000 OA
ENDBRANCH  21  22
ENDBRANCH  20  21
ENDBRANCH   7  20
TORSDOF 9
ENDMDL
MODEL 9
REMARK VINA RESULT:      -6.5      1.761      6.253
REMARK  Name = 
REMARK  12 active torsions:
REMARK  status: ('A' for Active; 'I' for Inactive)
REMARK    1  A    between atoms: C_1  and  C_2
REMARK    2  A    between atoms: C_2  and  C_4
REMARK    3  A    between atoms: C_4  and  C_5
REMARK    4  A    between atoms: C_5  and  N_6
REMARK    5  A    between atoms: N_9  and  C_10
REMARK    6  A    between atoms: C_10  and  C_11
REMARK    7  A    between atoms: C_11  and  C_12
REMARK    8  A    between atoms: C_12  and  C_13
REMARK    9  A    between atoms: N_17  and  C_18
REMARK   10  A    between atoms: C_18  and  C_19
REMARK   11  A    between atoms: C_19  and  C_20
REMARK   12  A    between atoms: C_20  and  C_21
REMARK                            x       y       z     vdW  Elec       q    Type
REMARK                         _______ _______ _______ _____ _____    ______ ____
ROOT
ATOM      1  N   UNL     1       3.077   7.384  18.274  0.00  0.00    +0.000 N 
ATOM      2  C   UNL     1       2.604   6.836  19.454  0.00  0.00    +0.000 A 
ATOM      3  O   UNL     1       1.812   7.450  20.177  0.00  0.00    +0.000 OA
ATOM      4  N   UNL     1       3.060   5.569  19.785  0.00  0.00    +0.000 N 
ATOM      5  C   UNL     1       3.931   4.871  18.974  0.00  0.00    +0.000 A 
ATOM      6  O   UNL     1       4.159   3.672  19.132  0.00  0.00    +0.000 OA
ATOM      7  N   UNL     1       4.554   5.580  17.963  0.00  0.00    +0.000 N 
ATOM      8  C   UNL     1       4.150   6.842  17.601  0.00  0.00    +0.000 A 
ATOM      9  O   UNL     1       4.739   7.473  16.726  0.00  0.00    +0.000 OA
ENDROOT
BRANCH   1  10
ATOM     10  C   UNL     1       2.640   8.760  17.934  0.00  0.00    +0.000 C 
BRANCH  10  11
ATOM     11  C   UNL     1       1.164   8.915  17.550  0.00  0.00    +0.000 C 
BRANCH  11  13
ATOM     12  C   UNL     1      -1.012  10.175  17.993  0.00  0.00    +0.000 C 
ATOM     13  C   UNL     1       0.444   9.983  18.344  0.00  0.00    +0.000 C 
ATOM     14  O   UNL     1       1.000  10.674  19.193  0.00  0.00    +0.000 OA
ENDBRANCH  11  13
ENDBRANCH  10  11
ENDBRANCH   1  10
BRANCH   4  15
ATOM     15  C   UNL     1       2.382   4.895  20.916  0.00  0.00    +0.000 C 
BRANCH  15  16
ATOM     16  C   UNL     1       1.042   4.202  20.637  0.00  0.00    +0.000 C 
BRANCH  16  17
ATOM     17  C   UNL     1       1.225   2.758  20.212  0.00  0.00    +0.000 C 
ATOM     18  C   UNL     1       0.722   2.382  18.838  0.00  0.00    +0.000 C 
ATOM     19  O   UNL     1       1.728   1.909  20.946  0.00  0.00    +0.000 OA
ENDBRANCH  16  17
ENDBRANCH  15  16
ENDBRANCH   4  15
BRANCH   7  20
ATOM     20  C   UNL     1       5.523   4.829  17.141  0.00  0.00    +0.000 C 
BRANCH  20  21
ATOM     21  C   UNL     1       6.932   4.581  17.708  0.00  0.00    +0.000 C 
BRANCH  21  22
ATOM     22  C   UNL     1       7.319   5.644  18.716  0.00  0.00    +0.000 C 
ATOM     23  C   UNL     1       7.824   6.955  18.175  0.00  0.00    +0.000 C 
ATOM     24  O   UNL     1       7.252   5.454  19.928  0.00  0.00    +0.000 OA
ENDBRANCH  21  22
ENDBRANCH  20  21
ENDBRANCH   7  20
TORSDOF 9
ENDMDL
