MODEL 1
REMARK VINA RESULT:      -7.3      0.000      0.000
REMARK  Name = 
REMARK  6 active torsions:
REMARK  status: ('A' for Active; 'I' for Inactive)
REMARK    1  A    between atoms: C_1  and  N_2
REMARK    2  A    between atoms: C_5  and  S_6
REMARK    3  A    between atoms: S_6  and  O_9
REMARK    4  A    between atoms: O_9  and  C_10
REMARK    5  A    between atoms: N_18  and  C_19
REMARK    6  A    between atoms: C_19  and  C_20
REMARK                            x       y       z     vdW  Elec       q    Type
REMARK                         _______ _______ _______ _____ _____    ______ ____
ROOT
ATOM      1  C   UNL     1       4.813   3.898  19.189  0.00  0.00    +0.000 A 
ATOM      2  C   UNL     1       5.180   2.716  19.863  0.00  0.00    +0.000 A 
ATOM      3  C   UNL     1       4.341   1.583  19.881  0.00  0.00    +0.000 A 
ATOM      4  C   UNL     1       3.107   1.608  19.245  0.00  0.00    +0.000 A 
ATOM      5  C   UNL     1       2.741   2.785  18.627  0.00  0.00    +0.000 A 
ATOM      6  O   UNL     1       1.535   2.959  17.971  0.00  0.00    +0.000 OA
ATOM      7  C   UNL     1       1.621   4.282  17.535  0.00  0.00    +0.000 A 
ATOM      8  O   UNL     1       0.738   4.816  16.878  0.00  0.00    +0.000 OA
ATOM      9  N   UNL     1       2.812   4.860  17.928  0.00  0.00    +0.000 N 
ATOM     10  C   UNL     1       3.554   3.911  18.606  0.00  0.00    +0.000 A 
ENDROOT
BRANCH   1  11
ATOM     11  O   UNL     1       5.637   4.998  19.116  0.00  0.00    +0.000 OA
BRANCH  11  12
ATOM     12  S   UNL     1       6.832   5.020  17.996  0.00  0.00    +0.000 S 
ATOM     13  O   UNL     1       6.299   4.710  16.683  0.00  0.00    +0.000 OA
ATOM     14  O   UNL     1       8.022   4.370  18.515  0.00  0.00    +0.000 OA
BRANCH  12  19
ATOM     15  C   UNL     1       9.125   9.590  18.988  0.00  0.00    +0.000 C 
ATOM     16  N   UNL     1       8.307   8.581  18.362  0.00  0.00    +0.000 N 
ATOM     17  C   UNL     1       7.413   8.765  17.347  0.00  0.00    +0.000 A 
ATOM     18  N   UNL     1       6.798   7.645  17.029  0.00  0.00    +0.000 NA
ATOM     19  C   UNL     1       7.331   6.687  17.878  0.00  0.00    +0.000 A 
ATOM     20  C   UNL     1       8.272   7.265  18.715  0.00  0.00    +0.000 A 
ENDBRANCH  12  19
ENDBRANCH  11  12
ENDBRANCH   1  11
BRANCH   9  21
ATOM     21  C   UNL     1       3.196   6.206  17.596  0.00  0.00    +0.000 C 
BRANCH  21  22
ATOM     22  C   UNL     1       2.495   7.253  18.429  0.00  0.00    +0.000 A 
ATOM     23  C   UNL     1       2.294   7.090  19.808  0.00  0.00    +0.000 A 
ATOM     24  C   UNL     1       1.580   8.039  20.539  0.00  0.00    +0.000 A 
ATOM     25  C   UNL     1       1.092   9.179  19.908  0.00  0.00    +0.000 A 
ATOM     26  C   UNL     1       1.348   9.389  18.555  0.00  0.00    +0.000 A 
ATOM     27  C   UNL     1       2.056   8.437  17.823  0.00  0.00    +0.000 A 
ENDBRANCH  21  22
ENDBRANCH   9  21
TORSDOF 5
ENDMDL
MODEL 2
REMARK VINA RESULT:      -7.2      1.826      2.527
REMARK  Name = 
REMARK  6 active torsions:
REMARK  status: ('A' for Active; 'I' for Inactive)
REMARK    1  A    between atoms: C_1  and  N_2
REMARK    2  A    between atoms: C_5  and  S_6
REMARK    3  A    between atoms: S_6  and  O_9
REMARK    4  A    between atoms: O_9  and  C_10
REMARK    5  A    between atoms: N_18  and  C_19
REMARK    6  A    between atoms: C_19  and  C_20
REMARK                            x       y       z     vdW  Elec       q    Type
REMARK                         _______ _______ _______ _____ _____    ______ ____
ROOT
ATOM      1  C   UNL     1       4.879   4.306  19.278  0.00  0.00    +0.000 A 
ATOM      2  C   UNL     1       5.349   3.166  19.961  0.00  0.00    +0.000 A 
ATOM      3  C   UNL     1       4.618   1.961  19.982  0.00  0.00    +0.000 A 
ATOM      4  C   UNL     1       3.389   1.869  19.341  0.00  0.00    +0.000 A 
ATOM      5  C   UNL     1       2.921   3.005  18.714  0.00  0.00    +0.000 A 
ATOM      6  O   UNL     1       1.706   3.065  18.051  0.00  0.00    +0.000 OA
ATOM      7  C   UNL     1       1.673   4.387  17.608  0.00  0.00    +0.000 A 
ATOM      8  O   UNL     1       0.748   4.835  16.945  0.00  0.00    +0.000 OA
ATOM      9  N   UNL     1       2.805   5.074  18.003  0.00  0.00    +0.000 N 
ATOM     10  C   UNL     1       3.627   4.201  18.690  0.00  0.00    +0.000 A 
ENDROOT
BRANCH   1  11
ATOM     11  O   UNL     1       5.599   5.476  19.203  0.00  0.00    +0.000 OA
BRANCH  11  12
ATOM     12  S   UNL     1       6.947   5.519  18.272  0.00  0.00    +0.000 S 
ATOM     13  O   UNL     1       7.757   4.339  18.503  0.00  0.00    +0.000 OA
ATOM     14  O   UNL     1       7.516   6.855  18.271  0.00  0.00    +0.000 OA
BRANCH  12  19
ATOM     15  C   UNL     1       6.128   3.634  13.487  0.00  0.00    +0.000 C 
ATOM     16  N   UNL     1       6.098   4.509  14.632  0.00  0.00    +0.000 N 
ATOM     17  C   UNL     1       5.602   5.780  14.680  0.00  0.00    +0.000 A 
ATOM     18  N   UNL     1       5.761   6.322  15.869  0.00  0.00    +0.000 NA
ATOM     19  C   UNL     1       6.386   5.345  16.630  0.00  0.00    +0.000 A 
ATOM     20  C   UNL     1       6.601   4.212  15.863  0.00  0.00    +0.000 A 
ENDBRANCH  12  19
ENDBRANCH  11  12
ENDBRANCH   1  11
BRANCH   9  21
ATOM     21  C   UNL     1       3.066   6.448  17.666  0.00  0.00    +0.000 C 
BRANCH  21  22
ATOM     22  C   UNL     1       2.354   7.432  18.564  0.00  0.00    +0.000 A 
ATOM     23  C   UNL     1       2.181   7.193  19.936  0.00  0.00    +0.000 A 
ATOM     24  C   UNL     1       1.458   8.084  20.726  0.00  0.00    +0.000 A 
ATOM     25  C   UNL     1       0.932   9.244  20.164  0.00  0.00    +0.000 A 
ATOM     26  C   UNL     1       1.160   9.530  18.821  0.00  0.00    +0.000 A 
ATOM     27  C   UNL     1       1.877   8.635  18.028  0.00  0.00    +0.000 A 
ENDBRANCH  21  22
ENDBRANCH   9  21
TORSDOF 5
ENDMDL
MODEL 3
REMARK VINA RESULT:      -7.1      2.801      5.528
REMARK  Name = 
REMARK  6 active torsions:
REMARK  status: ('A' for Active; 'I' for Inactive)
REMARK    1  A    between atoms: C_1  and  N_2
REMARK    2  A    between atoms: C_5  and  S_6
REMARK    3  A    between atoms: S_6  and  O_9
REMARK    4  A    between atoms: O_9  and  C_10
REMARK    5  A    between atoms: N_18  and  C_19
REMARK    6  A    between atoms: C_19  and  C_20
REMARK                            x       y       z     vdW  Elec       q    Type
REMARK                         _______ _______ _______ _____ _____    ______ ____
ROOT
ATOM      1  C   UNL     1       2.574   5.743  19.587  0.00  0.00    +0.000 A 
ATOM      2  C   UNL     1       1.676   5.259  20.560  0.00  0.00    +0.000 A 
ATOM      3  C   UNL     1       1.348   3.891  20.649  0.00  0.00    +0.000 A 
ATOM      4  C   UNL     1       1.890   2.975  19.757  0.00  0.00    +0.000 A 
ATOM      5  C   UNL     1       2.732   3.468  18.783  0.00  0.00    +0.000 A 
ATOM      6  O   UNL     1       3.331   2.675  17.819  0.00  0.00    +0.000 OA
ATOM      7  C   UNL     1       4.058   3.606  17.077  0.00  0.00    +0.000 A 
ATOM      8  O   UNL     1       4.759   3.285  16.127  0.00  0.00    +0.000 OA
ATOM      9  N   UNL     1       3.885   4.884  17.572  0.00  0.00    +0.000 N 
ATOM     10  C   UNL     1       3.060   4.814  18.679  0.00  0.00    +0.000 A 
ENDROOT
BRANCH   1  11
ATOM     11  O   UNL     1       2.946   7.065  19.513  0.00  0.00    +0.000 OA
BRANCH  11  12
ATOM     12  S   UNL     1       2.087   8.078  18.554  0.00  0.00    +0.000 S 
ATOM     13  O   UNL     1       1.119   7.333  17.773  0.00  0.00    +0.000 OA
ATOM     14  O   UNL     1       2.963   9.067  17.951  0.00  0.00    +0.000 OA
BRANCH  12  19
ATOM     15  C   UNL     1      -0.300   9.827  22.839  0.00  0.00    +0.000 C 
ATOM     16  N   UNL     1       0.130   9.710  21.468  0.00  0.00    +0.000 N 
ATOM     17  C   UNL     1      -0.325  10.433  20.403  0.00  0.00    +0.000 A 
ATOM     18  N   UNL     1       0.245  10.055  19.278  0.00  0.00    +0.000 NA
ATOM     19  C   UNL     1       1.119   9.041  19.639  0.00  0.00    +0.000 A 
ATOM     20  C   UNL     1       1.050   8.819  21.005  0.00  0.00    +0.000 A 
ENDBRANCH  12  19
ENDBRANCH  11  12
ENDBRANCH   1  11
BRANCH   9  21
ATOM     21  C   UNL     1       4.536   6.047  17.031  0.00  0.00    +0.000 C 
BRANCH  21  22
ATOM     22  C   UNL     1       5.882   6.327  17.655  0.00  0.00    +0.000 A 
ATOM     23  C   UNL     1       6.435   5.485  18.633  0.00  0.00    +0.000 A 
ATOM     24  C   UNL     1       7.646   5.805  19.244  0.00  0.00    +0.000 A 
ATOM     25  C   UNL     1       8.338   6.951  18.859  0.00  0.00    +0.000 A 
ATOM     26  C   UNL     1       7.837   7.755  17.839  0.00  0.00    +0.000 A 
ATOM     27  C   UNL     1       6.622   7.439  17.232  0.00  0.00    +0.000 A 
ENDBRANCH  21  22
ENDBRANCH   9  21
TORSDOF 5
ENDMDL
MODEL 4
REMARK VINA RESULT:      -7.1      2.702      3.550
REMARK  Name = 
REMARK  6 active torsions:
REMARK  status: ('A' for Active; 'I' for Inactive)
REMARK    1  A    between atoms: C_1  and  N_2
REMARK    2  A    between atoms: C_5  and  S_6
REMARK    3  A    between atoms: S_6  and  O_9
REMARK    4  A    between atoms: O_9  and  C_10
REMARK    5  A    between atoms: N_18  and  C_19
REMARK    6  A    between atoms: C_19  and  C_20
REMARK                            x       y       z     vdW  Elec       q    Type
REMARK                         _______ _______ _______ _____ _____    ______ ____
ROOT
ATOM      1  C   UNL     1       3.301   4.492  17.517  0.00  0.00    +0.000 A 
ATOM      2  C   UNL     1       3.239   3.182  17.002  0.00  0.00    +0.000 A 
ATOM      3  C   UNL     1       2.447   2.185  17.607  0.00  0.00    +0.000 A 
ATOM      4  C   UNL     1       1.714   2.464  18.753  0.00  0.00    +0.000 A 
ATOM      5  C   UNL     1       1.818   3.737  19.272  0.00  0.00    +0.000 A 
ATOM      6  O   UNL     1       1.159   4.151  20.418  0.00  0.00    +0.000 OA
ATOM      7  C   UNL     1       1.579   5.476  20.542  0.00  0.00    +0.000 A 
ATOM      8  O   UNL     1       1.187   6.208  21.439  0.00  0.00    +0.000 OA
ATOM      9  N   UNL     1       2.452   5.818  19.528  0.00  0.00    +0.000 N 
ATOM     10  C   UNL     1       2.599   4.728  18.691  0.00  0.00    +0.000 A 
ENDROOT
BRANCH   1  11
ATOM     11  O   UNL     1       4.027   5.494  16.916  0.00  0.00    +0.000 OA
BRANCH  11  12
ATOM     12  S   UNL     1       5.660   5.478  17.049  0.00  0.00    +0.000 S 
ATOM     13  O   UNL     1       6.088   4.362  17.869  0.00  0.00    +0.000 OA
ATOM     14  O   UNL     1       6.162   6.824  17.260  0.00  0.00    +0.000 OA
BRANCH  12  19
ATOM     15  C   UNL     1       6.174   3.338  12.329  0.00  0.00    +0.000 C 
ATOM     16  N   UNL     1       6.427   4.147  13.495  0.00  0.00    +0.000 N 
ATOM     17  C   UNL     1       7.533   4.909  13.740  0.00  0.00    +0.000 A 
ATOM     18  N   UNL     1       7.470   5.496  14.916  0.00  0.00    +0.000 NA
ATOM     19  C   UNL     1       6.256   5.098  15.454  0.00  0.00    +0.000 A 
ATOM     20  C   UNL     1       5.600   4.253  14.574  0.00  0.00    +0.000 A 
ENDBRANCH  12  19
ENDBRANCH  11  12
ENDBRANCH   1  11
BRANCH   9  21
ATOM     21  C   UNL     1       3.027   7.128  19.375  0.00  0.00    +0.000 C 
BRANCH  21  22
ATOM     22  C   UNL     1       2.000   8.212  19.148  0.00  0.00    +0.000 A 
ATOM     23  C   UNL     1       1.397   8.897  20.214  0.00  0.00    +0.000 A 
ATOM     24  C   UNL     1       0.400   9.842  19.978  0.00  0.00    +0.000 A 
ATOM     25  C   UNL     1       0.021  10.142  18.672  0.00  0.00    +0.000 A 
ATOM     26  C   UNL     1       0.663   9.523  17.603  0.00  0.00    +0.000 A 
ATOM     27  C   UNL     1       1.656   8.573  17.839  0.00  0.00    +0.000 A 
ENDBRANCH  21  22
ENDBRANCH   9  21
TORSDOF 5
ENDMDL
MODEL 5
REMARK VINA RESULT:      -7.0      2.869      5.667
REMARK  Name = 
REMARK  6 active torsions:
REMARK  status: ('A' for Active; 'I' for Inactive)
REMARK    1  A    between atoms: C_1  and  N_2
REMARK    2  A    between atoms: C_5  and  S_6
REMARK    3  A    between atoms: S_6  and  O_9
REMARK    4  A    between atoms: O_9  and  C_10
REMARK    5  A    between atoms: N_18  and  C_19
REMARK    6  A    between atoms: C_19  and  C_20
REMARK                            x       y       z     vdW  Elec       q    Type
REMARK                         _______ _______ _______ _____ _____    ______ ____
ROOT
ATOM      1  C   UNL     1       2.486   6.028  19.427  0.00  0.00    +0.000 A 
ATOM      2  C   UNL     1       1.537   5.648  20.395  0.00  0.00    +0.000 A 
ATOM      3  C   UNL     1       1.171   4.299  20.585  0.00  0.00    +0.000 A 
ATOM      4  C   UNL     1       1.729   3.299  19.799  0.00  0.00    +0.000 A 
ATOM      5  C   UNL     1       2.623   3.690  18.825  0.00  0.00    +0.000 A 
ATOM      6  O   UNL     1       3.243   2.806  17.958  0.00  0.00    +0.000 OA
ATOM      7  C   UNL     1       4.023   3.654  17.173  0.00  0.00    +0.000 A 
ATOM      8  O   UNL     1       4.756   3.240  16.286  0.00  0.00    +0.000 OA
ATOM      9  N   UNL     1       3.860   4.973  17.551  0.00  0.00    +0.000 N 
ATOM     10  C   UNL     1       2.988   5.015  18.622  0.00  0.00    +0.000 A 
ENDROOT
BRANCH   1  11
ATOM     11  O   UNL     1       2.894   7.331  19.258  0.00  0.00    +0.000 OA
BRANCH  11  12
ATOM     12  S   UNL     1       2.006   8.322  18.301  0.00  0.00    +0.000 S 
ATOM     13  O   UNL     1       1.044   7.553  17.534  0.00  0.00    +0.000 OA
ATOM     14  O   UNL     1       2.857   9.323  17.683  0.00  0.00    +0.000 OA
BRANCH  12  19
ATOM     15  C   UNL     1      -1.285  11.901  20.166  0.00  0.00    +0.000 C 
ATOM     16  N   UNL     1      -0.343  10.811  20.110  0.00  0.00    +0.000 N 
ATOM     17  C   UNL     1       0.251  10.186  21.168  0.00  0.00    +0.000 A 
ATOM     18  N   UNL     1       1.092   9.253  20.775  0.00  0.00    +0.000 NA
ATOM     19  C   UNL     1       1.031   9.273  19.390  0.00  0.00    +0.000 A 
ATOM     20  C   UNL     1       0.139  10.245  18.968  0.00  0.00    +0.000 A 
ENDBRANCH  12  19
ENDBRANCH  11  12
ENDBRANCH   1  11
BRANCH   9  21
ATOM     21  C   UNL     1       4.561   6.072  16.943  0.00  0.00    +0.000 C 
BRANCH  21  22
ATOM     22  C   UNL     1       5.897   6.362  17.587  0.00  0.00    +0.000 A 
ATOM     23  C   UNL     1       6.434   5.535  18.585  0.00  0.00    +0.000 A 
ATOM     24  C   UNL     1       7.634   5.865  19.212  0.00  0.00    +0.000 A 
ATOM     25  C   UNL     1       8.331   7.006  18.824  0.00  0.00    +0.000 A 
ATOM     26  C   UNL     1       7.846   7.796  17.785  0.00  0.00    +0.000 A 
ATOM     27  C   UNL     1       6.643   7.469  17.161  0.00  0.00    +0.000 A 
ENDBRANCH  21  22
ENDBRANCH   9  21
TORSDOF 5
ENDMDL
MODEL 6
REMARK VINA RESULT:      -6.7      1.393      1.810
REMARK  Name = 
REMARK  6 active torsions:
REMARK  status: ('A' for Active; 'I' for Inactive)
REMARK    1  A    between atoms: C_1  and  N_2
REMARK    2  A    between atoms: C_5  and  S_6
REMARK    3  A    between atoms: S_6  and  O_9
REMARK    4  A    between atoms: O_9  and  C_10
REMARK    5  A    between atoms: N_18  and  C_19
REMARK    6  A    between atoms: C_19  and  C_20
REMARK                            x       y       z     vdW  Elec       q    Type
REMARK                         _______ _______ _______ _____ _____    ______ ____
ROOT
ATOM      1  C   UNL     1       4.165   4.010  17.805  0.00  0.00    +0.000 A 
ATOM      2  C   UNL     1       4.260   2.700  17.296  0.00  0.00    +0.000 A 
ATOM      3  C   UNL     1       3.352   1.690  17.674  0.00  0.00    +0.000 A 
ATOM      4  C   UNL     1       2.339   1.957  18.586  0.00  0.00    +0.000 A 
ATOM      5  C   UNL     1       2.284   3.231  19.110  0.00  0.00    +0.000 A 
ATOM      6  O   UNL     1       1.340   3.633  20.040  0.00  0.00    +0.000 OA
ATOM      7  C   UNL     1       1.693   4.964  20.266  0.00  0.00    +0.000 A 
ATOM      8  O   UNL     1       1.067   5.690  21.027  0.00  0.00    +0.000 OA
ATOM      9  N   UNL     1       2.797   5.322  19.517  0.00  0.00    +0.000 N 
ATOM     10  C   UNL     1       3.175   4.234  18.752  0.00  0.00    +0.000 A 
ENDROOT
BRANCH   1  11
ATOM     11  O   UNL     1       5.009   5.023  17.412  0.00  0.00    +0.000 OA
BRANCH  11  12
ATOM     12  S   UNL     1       6.592   4.941  17.827  0.00  0.00    +0.000 S 
ATOM     13  O   UNL     1       7.348   4.254  16.799  0.00  0.00    +0.000 OA
ATOM     14  O   UNL     1       6.728   4.607  19.234  0.00  0.00    +0.000 OA
BRANCH  12  19
ATOM     15  C   UNL     1       9.070   9.365  19.014  0.00  0.00    +0.000 C 
ATOM     16  N   UNL     1       8.225   8.414  18.336  0.00  0.00    +0.000 N 
ATOM     17  C   UNL     1       7.375   8.668  17.298  0.00  0.00    +0.000 A 
ATOM     18  N   UNL     1       6.718   7.588  16.930  0.00  0.00    +0.000 NA
ATOM     19  C   UNL     1       7.175   6.584  17.771  0.00  0.00    +0.000 A 
ATOM     20  C   UNL     1       8.114   7.093  18.652  0.00  0.00    +0.000 A 
ENDBRANCH  12  19
ENDBRANCH  11  12
ENDBRANCH   1  11
BRANCH   9  21
ATOM     21  C   UNL     1       3.372   6.640  19.517  0.00  0.00    +0.000 C 
BRANCH  21  22
ATOM     22  C   UNL     1       2.383   7.727  19.164  0.00  0.00    +0.000 A 
ATOM     23  C   UNL     1       2.077   8.045  17.832  0.00  0.00    +0.000 A 
ATOM     24  C   UNL     1       1.216   9.100  17.534  0.00  0.00    +0.000 A 
ATOM     25  C   UNL     1       0.621   9.824  18.563  0.00  0.00    +0.000 A 
ATOM     26  C   UNL     1       0.860   9.472  19.889  0.00  0.00    +0.000 A 
ATOM     27  C   UNL     1       1.726   8.421  20.188  0.00  0.00    +0.000 A 
ENDBRANCH  21  22
ENDBRANCH   9  21
TORSDOF 5
ENDMDL
MODEL 7
REMARK VINA RESULT:      -6.7      2.976      5.280
REMARK  Name = 
REMARK  6 active torsions:
REMARK  status: ('A' for Active; 'I' for Inactive)
REMARK    1  A    between atoms: C_1  and  N_2
REMARK    2  A    between atoms: C_5  and  S_6
REMARK    3  A    between atoms: S_6  and  O_9
REMARK    4  A    between atoms: O_9  and  C_10
REMARK    5  A    between atoms: N_18  and  C_19
REMARK    6  A    between atoms: C_19  and  C_20
REMARK                            x       y       z     vdW  Elec       q    Type
REMARK                         _______ _______ _______ _____ _____    ______ ____
ROOT
ATOM      1  C   UNL     1       1.862   4.607  19.034  0.00  0.00    +0.000 A 
ATOM      2  C   UNL     1       1.153   4.733  20.245  0.00  0.00    +0.000 A 
ATOM      3  C   UNL     1       1.129   3.698  21.201  0.00  0.00    +0.000 A 
ATOM      4  C   UNL     1       1.795   2.502  20.964  0.00  0.00    +0.000 A 
ATOM      5  C   UNL     1       2.448   2.375  19.756  0.00  0.00    +0.000 A 
ATOM      6  O   UNL     1       3.138   1.235  19.378  0.00  0.00    +0.000 OA
ATOM      7  C   UNL     1       3.601   1.575  18.107  0.00  0.00    +0.000 A 
ATOM      8  O   UNL     1       4.291   0.820  17.435  0.00  0.00    +0.000 OA
ATOM      9  N   UNL     1       3.192   2.845  17.750  0.00  0.00    +0.000 N 
ATOM     10  C   UNL     1       2.475   3.383  18.802  0.00  0.00    +0.000 A 
ENDROOT
BRANCH   1  11
ATOM     11  O   UNL     1       1.940   5.622  18.109  0.00  0.00    +0.000 OA
BRANCH  11  12
ATOM     12  S   UNL     1       3.030   6.823  18.340  0.00  0.00    +0.000 S 
ATOM     13  O   UNL     1       3.680   7.162  17.089  0.00  0.00    +0.000 OA
ATOM     14  O   UNL     1       3.783   6.593  19.560  0.00  0.00    +0.000 OA
BRANCH  12  19
ATOM     15  C   UNL     1       0.030  10.223  20.903  0.00  0.00    +0.000 C 
ATOM     16  N   UNL     1       0.814   9.611  19.859  0.00  0.00    +0.000 N 
ATOM     17  C   UNL     1       0.940  10.042  18.570  0.00  0.00    +0.000 A 
ATOM     18  N   UNL     1       1.700   9.236  17.858  0.00  0.00    +0.000 NA
ATOM     19  C   UNL     1       2.090   8.238  18.737  0.00  0.00    +0.000 A 
ATOM     20  C   UNL     1       1.538   8.464  19.988  0.00  0.00    +0.000 A 
ENDBRANCH  12  19
ENDBRANCH  11  12
ENDBRANCH   1  11
BRANCH   9  21
ATOM     21  C   UNL     1       3.544   3.481  16.509  0.00  0.00    +0.000 C 
BRANCH  21  22
ATOM     22  C   UNL     1       4.968   3.984  16.474  0.00  0.00    +0.000 A 
ATOM     23  C   UNL     1       5.673   4.297  17.647  0.00  0.00    +0.000 A 
ATOM     24  C   UNL     1       6.960   4.827  17.582  0.00  0.00    +0.000 A 
ATOM     25  C   UNL     1       7.573   5.015  16.347  0.00  0.00    +0.000 A 
ATOM     26  C   UNL     1       6.914   4.641  15.179  0.00  0.00    +0.000 A 
ATOM     27  C   UNL     1       5.624   4.117  15.243  0.00  0.00    +0.000 A 
ENDBRANCH  21  22
ENDBRANCH   9  21
TORSDOF 5
ENDMDL
MODEL 8
REMARK VINA RESULT:      -6.6      3.108      5.366
REMARK  Name = 
REMARK  6 active torsions:
REMARK  status: ('A' for Active; 'I' for Inactive)
REMARK    1  A    between atoms: C_1  and  N_2
REMARK    2  A    between atoms: C_5  and  S_6
REMARK    3  A    between atoms: S_6  and  O_9
REMARK    4  A    between atoms: O_9  and  C_10
REMARK    5  A    between atoms: N_18  and  C_19
REMARK    6  A    between atoms: C_19  and  C_20
REMARK                            x       y       z     vdW  Elec       q    Type
REMARK                         _______ _______ _______ _____ _____    ______ ____
ROOT
ATOM      1  C   UNL     1       1.858   4.568  19.166  0.00  0.00    +0.000 A 
ATOM      2  C   UNL     1       1.202   4.655  20.410  0.00  0.00    +0.000 A 
ATOM      3  C   UNL     1       1.241   3.600  21.344  0.00  0.00    +0.000 A 
ATOM      4  C   UNL     1       1.919   2.423  21.052  0.00  0.00    +0.000 A 
ATOM      5  C   UNL     1       2.519   2.334  19.814  0.00  0.00    +0.000 A 
ATOM      6  O   UNL     1       3.213   1.216  19.381  0.00  0.00    +0.000 OA
ATOM      7  C   UNL     1       3.612   1.591  18.098  0.00  0.00    +0.000 A 
ATOM      8  O   UNL     1       4.285   0.864  17.381  0.00  0.00    +0.000 OA
ATOM      9  N   UNL     1       3.163   2.860  17.788  0.00  0.00    +0.000 N 
ATOM     10  C   UNL     1       2.483   3.362  18.881  0.00  0.00    +0.000 A 
ENDROOT
BRANCH   1  11
ATOM     11  O   UNL     1       1.874   5.603  18.260  0.00  0.00    +0.000 OA
BRANCH  11  12
ATOM     12  S   UNL     1       2.926   6.839  18.488  0.00  0.00    +0.000 S 
ATOM     13  O   UNL     1       3.434   7.310  17.214  0.00  0.00    +0.000 OA
ATOM     14  O   UNL     1       3.806   6.553  19.607  0.00  0.00    +0.000 OA
BRANCH  12  19
ATOM     15  C   UNL     1       0.504  11.434  18.867  0.00  0.00    +0.000 C 
ATOM     16  N   UNL     1       0.992  10.117  19.194  0.00  0.00    +0.000 N 
ATOM     17  C   UNL     1       0.895   9.484  20.400  0.00  0.00    +0.000 A 
ATOM     18  N   UNL     1       1.477   8.303  20.380  0.00  0.00    +0.000 NA
ATOM     19  C   UNL     1       1.966   8.165  19.090  0.00  0.00    +0.000 A 
ATOM     20  C   UNL     1       1.669   9.294  18.345  0.00  0.00    +0.000 A 
ENDBRANCH  12  19
ENDBRANCH  11  12
ENDBRANCH   1  11
BRANCH   9  21
ATOM     21  C   UNL     1       3.447   3.528  16.545  0.00  0.00    +0.000 C 
BRANCH  21  22
ATOM     22  C   UNL     1       4.868   4.030  16.444  0.00  0.00    +0.000 A 
ATOM     23  C   UNL     1       5.500   4.221  15.206  0.00  0.00    +0.000 A 
ATOM     24  C   UNL     1       6.835   4.617  15.143  0.00  0.00    +0.000 A 
ATOM     25  C   UNL     1       7.543   4.863  16.316  0.00  0.00    +0.000 A 
ATOM     26  C   UNL     1       6.907   4.749  17.549  0.00  0.00    +0.000 A 
ATOM     27  C   UNL     1       5.573   4.346  17.612  0.00  0.00    +0.000 A 
ENDBRANCH  21  22
ENDBRANCH   9  21
TORSDOF 5
ENDMDL
MODEL 9
REMARK VINA RESULT:      -6.5      3.265      6.876
REMARK  Name = 
REMARK  6 active torsions:
REMARK  status: ('A' for Active; 'I' for Inactive)
REMARK    1  A    between atoms: C_1  and  N_2
REMARK    2  A    between atoms: C_5  and  S_6
REMARK    3  A    between atoms: S_6  and  O_9
REMARK    4  A    between atoms: O_9  and  C_10
REMARK    5  A    between atoms: N_18  and  C_19
REMARK    6  A    between atoms: C_19  and  C_20
REMARK                            x       y       z     vdW  Elec       q    Type
REMARK                         _______ _______ _______ _____ _____    ______ ____
ROOT
ATOM      1  C   UNL     1       3.666   5.017  17.319  0.00  0.00    +0.000 A 
ATOM      2  C   UNL     1       2.469   5.550  17.835  0.00  0.00    +0.000 A 
ATOM      3  C   UNL     1       2.350   6.914  18.173  0.00  0.00    +0.000 A 
ATOM      4  C   UNL     1       3.429   7.775  18.024  0.00  0.00    +0.000 A 
ATOM      5  C   UNL     1       4.608   7.231  17.560  0.00  0.00    +0.000 A 
ATOM      6  O   UNL     1       5.768   7.965  17.379  0.00  0.00    +0.000 OA
ATOM      7  C   UNL     1       6.664   7.000  16.920  0.00  0.00    +0.000 A 
ATOM      8  O   UNL     1       7.819   7.266  16.616  0.00  0.00    +0.000 OA
ATOM      9  N   UNL     1       6.064   5.757  16.848  0.00  0.00    +0.000 N 
ATOM     10  C   UNL     1       4.742   5.889  17.229  0.00  0.00    +0.000 A 
ENDROOT
BRANCH   1  11
ATOM     11  O   UNL     1       3.790   3.701  16.936  0.00  0.00    +0.000 OA
BRANCH  11  12
ATOM     12  S   UNL     1       4.093   2.569  18.081  0.00  0.00    +0.000 S 
ATOM     13  O   UNL     1       5.190   2.990  18.930  0.00  0.00    +0.000 OA
ATOM     14  O   UNL     1       4.038   1.238  17.500  0.00  0.00    +0.000 OA
BRANCH  12  19
ATOM     15  C   UNL     1       1.098   2.566  22.341  0.00  0.00    +0.000 C 
ATOM     16  N   UNL     1       1.502   2.558  20.957  0.00  0.00    +0.000 N 
ATOM     17  C   UNL     1       0.694   2.399  19.869  0.00  0.00    +0.000 A 
ATOM     18  N   UNL     1       1.381   2.401  18.746  0.00  0.00    +0.000 NA
ATOM     19  C   UNL     1       2.701   2.581  19.131  0.00  0.00    +0.000 A 
ATOM     20  C   UNL     1       2.784   2.677  20.511  0.00  0.00    +0.000 A 
ENDBRANCH  12  19
ENDBRANCH  11  12
ENDBRANCH   1  11
BRANCH   9  21
ATOM     21  C   UNL     1       6.731   4.572  16.378  0.00  0.00    +0.000 C 
BRANCH  21  22
ATOM     22  C   UNL     1       6.733   4.441  14.873  0.00  0.00    +0.000 A 
ATOM     23  C   UNL     1       5.778   3.667  14.196  0.00  0.00    +0.000 A 
ATOM     24  C   UNL     1       5.846   3.504  12.813  0.00  0.00    +0.000 A 
ATOM     25  C   UNL     1       6.847   4.144  12.086  0.00  0.00    +0.000 A 
ATOM     26  C   UNL     1       7.756   4.974  12.737  0.00  0.00    +0.000 A 
ATOM     27  C   UNL     1       7.692   5.131  14.121  0.00  0.00    +0.000 A 
ENDBRANCH  21  22
ENDBRANCH   9  21
TORSDOF 5
ENDMDL
