MODEL 1
REMARK VINA RESULT:      -8.1      0.000      0.000
REMARK  Name = 
REMARK  7 active torsions:
REMARK  status: ('A' for Active; 'I' for Inactive)
REMARK    1  A    between atoms: C_1  and  N_2
REMARK    2  A    between atoms: N_2  and  C_3
REMARK    3  A    between atoms: C_3  and  C_4
REMARK    4  A    between atoms: C_4  and  C_5
REMARK    5  A    between atoms: C_5  and  C_6
REMARK    6  A    between atoms: N_10  and  C_11
REMARK    7  A    between atoms: C_12  and  C_14
REMARK                            x       y       z     vdW  Elec       q    Type
REMARK                         _______ _______ _______ _____ _____    ______ ____
ROOT
ATOM      1  C   UNL     1       3.489   7.836  17.297  0.00  0.00    +0.000 C 
ATOM      2  N   UNL     1       3.922   6.461  17.535  0.00  0.00    +0.000 N 
ATOM      3  C   UNL     1       4.928   6.001  16.662  0.00  0.00    +0.000 C 
ATOM      4  O   UNL     1       5.255   6.687  15.686  0.00  0.00    +0.000 OA
ENDROOT
BRANCH   3   5
ATOM      5  C   UNL     1       5.592   4.648  16.942  0.00  0.00    +0.000 C 
ATOM      6  C   UNL     1       7.113   4.756  16.999  0.00  0.00    +0.000 C 
ATOM      7  O   UNL     1       7.707   5.247  15.796  0.00  0.00    +0.000 OA
ATOM      8  C   UNL     1       7.173   4.767  14.631  0.00  0.00    +0.000 A 
ATOM      9  C   UNL     1       7.801   5.186  13.459  0.00  0.00    +0.000 A 
ATOM     10  C   UNL     1       7.312   4.776  12.220  0.00  0.00    +0.000 A 
ATOM     11  C   UNL     1       6.203   3.936  12.155  0.00  0.00    +0.000 A 
ATOM     12  C   UNL     1       5.567   3.522  13.328  0.00  0.00    +0.000 A 
ATOM     13  C   UNL     1       6.033   3.960  14.573  0.00  0.00    +0.000 A 
ATOM     14  C   UNL     1       5.304   3.609  15.842  0.00  0.00    +0.000 C 
ENDBRANCH   3   5
BRANCH   2  15
ATOM     15  C   UNL     1       3.127   5.568  18.401  0.00  0.00    +0.000 C 
BRANCH  15  16
ATOM     16  C   UNL     1       1.938   4.842  17.762  0.00  0.00    +0.000 C 
BRANCH  16  17
ATOM     17  C   UNL     1       1.981   3.339  18.044  0.00  0.00    +0.000 C 
BRANCH  17  18
ATOM     18  C   UNL     1       1.971   3.063  19.512  0.00  0.00    +0.000 A 
ATOM     19  N   UNL     1       0.927   3.241  20.299  0.00  0.00    +0.000 NA
ATOM     20  C   UNL     1       1.342   2.891  21.559  0.00  0.00    +0.000 A 
ATOM     21  C   UNL     1       2.655   2.490  21.544  0.00  0.00    +0.000 A 
ATOM     22  N   UNL     1       3.046   2.603  20.240  0.00  0.00    +0.000 N 
ATOM     23  C   UNL     1       4.368   2.298  19.747  0.00  0.00    +0.000 C 
ENDBRANCH  17  18
ENDBRANCH  16  17
ENDBRANCH  15  16
ENDBRANCH   2  15
TORSDOF 5
ENDMDL
MODEL 2
REMARK VINA RESULT:      -7.8      4.187      7.813
REMARK  Name = 
REMARK  7 active torsions:
REMARK  status: ('A' for Active; 'I' for Inactive)
REMARK    1  A    between atoms: C_1  and  N_2
REMARK    2  A    between atoms: N_2  and  C_3
REMARK    3  A    between atoms: C_3  and  C_4
REMARK    4  A    between atoms: C_4  and  C_5
REMARK    5  A    between atoms: C_5  and  C_6
REMARK    6  A    between atoms: N_10  and  C_11
REMARK    7  A    between atoms: C_12  and  C_14
REMARK                            x       y       z     vdW  Elec       q    Type
REMARK                         _______ _______ _______ _____ _____    ______ ____
ROOT
ATOM      1  C   UNL     1       7.587   5.558  19.650  0.00  0.00    +0.000 C 
ATOM      2  N   UNL     1       6.708   5.956  18.554  0.00  0.00    +0.000 N 
ATOM      3  C   UNL     1       5.651   5.060  18.292  0.00  0.00    +0.000 C 
ATOM      4  O   UNL     1       5.623   3.961  18.860  0.00  0.00    +0.000 OA
ENDROOT
BRANCH   3   5
ATOM      5  C   UNL     1       4.559   5.471  17.298  0.00  0.00    +0.000 C 
ATOM      6  C   UNL     1       3.768   6.683  17.781  0.00  0.00    +0.000 C 
ATOM      7  O   UNL     1       3.109   6.484  19.033  0.00  0.00    +0.000 OA
ATOM      8  C   UNL     1       2.519   5.263  19.208  0.00  0.00    +0.000 A 
ATOM      9  C   UNL     1       1.812   5.096  20.398  0.00  0.00    +0.000 A 
ATOM     10  C   UNL     1       1.201   3.876  20.682  0.00  0.00    +0.000 A 
ATOM     11  C   UNL     1       1.288   2.827  19.769  0.00  0.00    +0.000 A 
ATOM     12  C   UNL     1       2.004   2.989  18.581  0.00  0.00    +0.000 A 
ATOM     13  C   UNL     1       2.649   4.201  18.307  0.00  0.00    +0.000 A 
ATOM     14  C   UNL     1       3.508   4.365  17.083  0.00  0.00    +0.000 C 
ENDBRANCH   3   5
BRANCH   2  15
ATOM     15  C   UNL     1       7.113   7.028  17.624  0.00  0.00    +0.000 C 
BRANCH  15  16
ATOM     16  C   UNL     1       8.219   7.983  18.087  0.00  0.00    +0.000 C 
BRANCH  16  17
ATOM     17  C   UNL     1       7.947   9.419  17.634  0.00  0.00    +0.000 C 
BRANCH  17  18
ATOM     18  C   UNL     1       8.728  10.399  18.447  0.00  0.00    +0.000 A 
ATOM     19  N   UNL     1       9.494  10.078  19.472  0.00  0.00    +0.000 NA
ATOM     20  C   UNL     1      10.010  11.259  19.942  0.00  0.00    +0.000 A 
ATOM     21  C   UNL     1       9.557  12.318  19.194  0.00  0.00    +0.000 A 
ATOM     22  N   UNL     1       8.744  11.762  18.246  0.00  0.00    +0.000 N 
ATOM     23  C   UNL     1       8.030  12.504  17.235  0.00  0.00    +0.000 C 
ENDBRANCH  17  18
ENDBRANCH  16  17
ENDBRANCH  15  16
ENDBRANCH   2  15
TORSDOF 5
ENDMDL
MODEL 3
REMARK VINA RESULT:      -7.5      0.621      1.318
REMARK  Name = 
REMARK  7 active torsions:
REMARK  status: ('A' for Active; 'I' for Inactive)
REMARK    1  A    between atoms: C_1  and  N_2
REMARK    2  A    between atoms: N_2  and  C_3
REMARK    3  A    between atoms: C_3  and  C_4
REMARK    4  A    between atoms: C_4  and  C_5
REMARK    5  A    between atoms: C_5  and  C_6
REMARK    6  A    between atoms: N_10  and  C_11
REMARK    7  A    between atoms: C_12  and  C_14
REMARK                            x       y       z     vdW  Elec       q    Type
REMARK                         _______ _______ _______ _____ _____    ______ ____
ROOT
ATOM      1  C   UNL     1       3.331   7.746  17.375  0.00  0.00    +0.000 C 
ATOM      2  N   UNL     1       3.810   6.387  17.607  0.00  0.00    +0.000 N 
ATOM      3  C   UNL     1       4.881   5.990  16.780  0.00  0.00    +0.000 C 
ATOM      4  O   UNL     1       5.228   6.712  15.837  0.00  0.00    +0.000 OA
ENDROOT
BRANCH   3   5
ATOM      5  C   UNL     1       5.588   4.661  17.067  0.00  0.00    +0.000 C 
ATOM      6  C   UNL     1       7.105   4.818  17.127  0.00  0.00    +0.000 C 
ATOM      7  O   UNL     1       7.684   5.322  15.922  0.00  0.00    +0.000 OA
ATOM      8  C   UNL     1       7.169   4.820  14.759  0.00  0.00    +0.000 A 
ATOM      9  C   UNL     1       7.784   5.254  13.586  0.00  0.00    +0.000 A 
ATOM     10  C   UNL     1       7.311   4.823  12.348  0.00  0.00    +0.000 A 
ATOM     11  C   UNL     1       6.230   3.946  12.285  0.00  0.00    +0.000 A 
ATOM     12  C   UNL     1       5.606   3.517  13.459  0.00  0.00    +0.000 A 
ATOM     13  C   UNL     1       6.055   3.976  14.703  0.00  0.00    +0.000 A 
ATOM     14  C   UNL     1       5.336   3.607  15.973  0.00  0.00    +0.000 C 
ENDBRANCH   3   5
BRANCH   2  15
ATOM     15  C   UNL     1       3.011   5.441  18.411  0.00  0.00    +0.000 C 
BRANCH  15  16
ATOM     16  C   UNL     1       1.903   4.665  17.691  0.00  0.00    +0.000 C 
BRANCH  16  17
ATOM     17  C   UNL     1       1.460   3.441  18.496  0.00  0.00    +0.000 C 
BRANCH  17  18
ATOM     18  C   UNL     1       2.619   2.799  19.186  0.00  0.00    +0.000 A 
ATOM     19  N   UNL     1       3.518   2.040  18.588  0.00  0.00    +0.000 NA
ATOM     20  C   UNL     1       4.388   1.642  19.570  0.00  0.00    +0.000 A 
ATOM     21  C   UNL     1       4.020   2.165  20.785  0.00  0.00    +0.000 A 
ATOM     22  N   UNL     1       2.895   2.898  20.531  0.00  0.00    +0.000 N 
ATOM     23  C   UNL     1       2.145   3.626  21.526  0.00  0.00    +0.000 C 
ENDBRANCH  17  18
ENDBRANCH  16  17
ENDBRANCH  15  16
ENDBRANCH   2  15
TORSDOF 5
ENDMDL
MODEL 4
REMARK VINA RESULT:      -7.5      4.561      7.752
REMARK  Name = 
REMARK  7 active torsions:
REMARK  status: ('A' for Active; 'I' for Inactive)
REMARK    1  A    between atoms: C_1  and  N_2
REMARK    2  A    between atoms: N_2  and  C_3
REMARK    3  A    between atoms: C_3  and  C_4
REMARK    4  A    between atoms: C_4  and  C_5
REMARK    5  A    between atoms: C_5  and  C_6
REMARK    6  A    between atoms: N_10  and  C_11
REMARK    7  A    between atoms: C_12  and  C_14
REMARK                            x       y       z     vdW  Elec       q    Type
REMARK                         _______ _______ _______ _____ _____    ______ ____
ROOT
ATOM      1  C   UNL     1       7.874   5.902  19.640  0.00  0.00    +0.000 C 
ATOM      2  N   UNL     1       7.232   6.318  18.397  0.00  0.00    +0.000 N 
ATOM      3  C   UNL     1       6.441   5.327  17.781  0.00  0.00    +0.000 C 
ATOM      4  O   UNL     1       6.467   4.167  18.210  0.00  0.00    +0.000 OA
ENDROOT
BRANCH   3   5
ATOM      5  C   UNL     1       5.568   5.712  16.581  0.00  0.00    +0.000 C 
ATOM      6  C   UNL     1       4.641   6.882  16.897  0.00  0.00    +0.000 C 
ATOM      7  O   UNL     1       3.741   6.634  17.979  0.00  0.00    +0.000 OA
ATOM      8  C   UNL     1       3.181   5.386  18.012  0.00  0.00    +0.000 A 
ATOM      9  C   UNL     1       2.245   5.169  19.022  0.00  0.00    +0.000 A 
ATOM     10  C   UNL     1       1.641   3.920  19.157  0.00  0.00    +0.000 A 
ATOM     11  C   UNL     1       1.965   2.893  18.273  0.00  0.00    +0.000 A 
ATOM     12  C   UNL     1       2.909   3.106  17.266  0.00  0.00    +0.000 A 
ATOM     13  C   UNL     1       3.545   4.348  17.148  0.00  0.00    +0.000 A 
ATOM     14  C   UNL     1       4.636   4.570  16.136  0.00  0.00    +0.000 C 
ENDBRANCH   3   5
BRANCH   2  15
ATOM     15  C   UNL     1       7.657   7.557  17.716  0.00  0.00    +0.000 C 
BRANCH  15  16
ATOM     16  C   UNL     1       8.630   8.474  18.464  0.00  0.00    +0.000 C 
BRANCH  16  17
ATOM     17  C   UNL     1       8.362   9.949  18.155  0.00  0.00    +0.000 C 
BRANCH  17  18
ATOM     18  C   UNL     1       9.548  10.796  18.488  0.00  0.00    +0.000 A 
ATOM     19  N   UNL     1      10.444  11.204  17.609  0.00  0.00    +0.000 NA
ATOM     20  C   UNL     1      11.364  11.932  18.321  0.00  0.00    +0.000 A 
ATOM     21  C   UNL     1      11.026  11.973  19.651  0.00  0.00    +0.000 A 
ATOM     22  N   UNL     1       9.871  11.249  19.747  0.00  0.00    +0.000 N 
ATOM     23  C   UNL     1       9.149  11.009  20.974  0.00  0.00    +0.000 C 
ENDBRANCH  17  18
ENDBRANCH  16  17
ENDBRANCH  15  16
ENDBRANCH   2  15
TORSDOF 5
ENDMDL
MODEL 5
REMARK VINA RESULT:      -7.4      4.622      7.676
REMARK  Name = 
REMARK  7 active torsions:
REMARK  status: ('A' for Active; 'I' for Inactive)
REMARK    1  A    between atoms: C_1  and  N_2
REMARK    2  A    between atoms: N_2  and  C_3
REMARK    3  A    between atoms: C_3  and  C_4
REMARK    4  A    between atoms: C_4  and  C_5
REMARK    5  A    between atoms: C_5  and  C_6
REMARK    6  A    between atoms: N_10  and  C_11
REMARK    7  A    between atoms: C_12  and  C_14
REMARK                            x       y       z     vdW  Elec       q    Type
REMARK                         _______ _______ _______ _____ _____    ______ ____
ROOT
ATOM      1  C   UNL     1       7.923   5.856  19.637  0.00  0.00    +0.000 C 
ATOM      2  N   UNL     1       7.305   6.310  18.395  0.00  0.00    +0.000 N 
ATOM      3  C   UNL     1       6.560   5.327  17.713  0.00  0.00    +0.000 C 
ATOM      4  O   UNL     1       6.606   4.150  18.092  0.00  0.00    +0.000 OA
ENDROOT
BRANCH   3   5
ATOM      5  C   UNL     1       5.712   5.742  16.506  0.00  0.00    +0.000 C 
ATOM      6  C   UNL     1       4.835   6.954  16.809  0.00  0.00    +0.000 C 
ATOM      7  O   UNL     1       3.919   6.752  17.887  0.00  0.00    +0.000 OA
ATOM      8  C   UNL     1       3.304   5.531  17.925  0.00  0.00    +0.000 A 
ATOM      9  C   UNL     1       2.354   5.361  18.931  0.00  0.00    +0.000 A 
ATOM     10  C   UNL     1       1.696   4.141  19.071  0.00  0.00    +0.000 A 
ATOM     11  C   UNL     1       1.979   3.095  18.195  0.00  0.00    +0.000 A 
ATOM     12  C   UNL     1       2.937   3.260  17.192  0.00  0.00    +0.000 A 
ATOM     13  C   UNL     1       3.627   4.472  17.070  0.00  0.00    +0.000 A 
ATOM     14  C   UNL     1       4.733   4.639  16.063  0.00  0.00    +0.000 C 
ENDBRANCH   3   5
BRANCH   2  15
ATOM     15  C   UNL     1       7.716   7.588  17.782  0.00  0.00    +0.000 C 
BRANCH  15  16
ATOM     16  C   UNL     1       8.731   8.444  18.547  0.00  0.00    +0.000 C 
BRANCH  16  17
ATOM     17  C   UNL     1       8.580   9.929  18.212  0.00  0.00    +0.000 C 
BRANCH  17  18
ATOM     18  C   UNL     1       9.363  10.780  19.160  0.00  0.00    +0.000 A 
ATOM     19  N   UNL     1       9.140  10.851  20.458  0.00  0.00    +0.000 NA
ATOM     20  C   UNL     1      10.056  11.747  20.948  0.00  0.00    +0.000 A 
ATOM     21  C   UNL     1      10.852  12.228  19.939  0.00  0.00    +0.000 A 
ATOM     22  N   UNL     1      10.404  11.608  18.807  0.00  0.00    +0.000 N 
ATOM     23  C   UNL     1      10.943  11.819  17.484  0.00  0.00    +0.000 C 
ENDBRANCH  17  18
ENDBRANCH  16  17
ENDBRANCH  15  16
ENDBRANCH   2  15
TORSDOF 5
ENDMDL
MODEL 6
REMARK VINA RESULT:      -7.4      2.475      7.095
REMARK  Name = 
REMARK  7 active torsions:
REMARK  status: ('A' for Active; 'I' for Inactive)
REMARK    1  A    between atoms: C_1  and  N_2
REMARK    2  A    between atoms: N_2  and  C_3
REMARK    3  A    between atoms: C_3  and  C_4
REMARK    4  A    between atoms: C_4  and  C_5
REMARK    5  A    between atoms: C_5  and  C_6
REMARK    6  A    between atoms: N_10  and  C_11
REMARK    7  A    between atoms: C_12  and  C_14
REMARK                            x       y       z     vdW  Elec       q    Type
REMARK                         _______ _______ _______ _____ _____    ______ ____
ROOT
ATOM      1  C   UNL     1       6.798   5.491  18.001  0.00  0.00    +0.000 C 
ATOM      2  N   UNL     1       5.454   5.891  17.597  0.00  0.00    +0.000 N 
ATOM      3  C   UNL     1       4.513   5.944  18.646  0.00  0.00    +0.000 C 
ATOM      4  O   UNL     1       4.817   5.511  19.765  0.00  0.00    +0.000 OA
ENDROOT
BRANCH   3   5
ATOM      5  C   UNL     1       3.127   6.536  18.372  0.00  0.00    +0.000 C 
ATOM      6  C   UNL     1       2.428   6.982  19.653  0.00  0.00    +0.000 C 
ATOM      7  O   UNL     1       2.230   5.931  20.601  0.00  0.00    +0.000 OA
ATOM      8  C   UNL     1       1.841   4.727  20.082  0.00  0.00    +0.000 A 
ATOM      9  C   UNL     1       1.574   3.723  21.012  0.00  0.00    +0.000 A 
ATOM     10  C   UNL     1       1.201   2.452  20.580  0.00  0.00    +0.000 A 
ATOM     11  C   UNL     1       1.083   2.189  19.217  0.00  0.00    +0.000 A 
ATOM     12  C   UNL     1       1.359   3.190  18.283  0.00  0.00    +0.000 A 
ATOM     13  C   UNL     1       1.769   4.458  18.711  0.00  0.00    +0.000 A 
ATOM     14  C   UNL     1       2.168   5.521  17.723  0.00  0.00    +0.000 C 
ENDBRANCH   3   5
BRANCH   2  15
ATOM     15  C   UNL     1       5.078   5.908  16.169  0.00  0.00    +0.000 C 
BRANCH  15  16
ATOM     16  C   UNL     1       4.823   4.558  15.491  0.00  0.00    +0.000 C 
BRANCH  16  17
ATOM     17  C   UNL     1       6.131   3.814  15.211  0.00  0.00    +0.000 C 
BRANCH  17  18
ATOM     18  C   UNL     1       6.852   4.406  14.044  0.00  0.00    +0.000 A 
ATOM     19  N   UNL     1       7.751   5.368  14.130  0.00  0.00    +0.000 NA
ATOM     20  C   UNL     1       8.148   5.628  12.843  0.00  0.00    +0.000 A 
ATOM     21  C   UNL     1       7.487   4.814  11.958  0.00  0.00    +0.000 A 
ATOM     22  N   UNL     1       6.666   4.041  12.729  0.00  0.00    +0.000 N 
ATOM     23  C   UNL     1       5.763   3.036  12.221  0.00  0.00    +0.000 C 
ENDBRANCH  17  18
ENDBRANCH  16  17
ENDBRANCH  15  16
ENDBRANCH   2  15
TORSDOF 5
ENDMDL
MODEL 7
REMARK VINA RESULT:      -7.2      0.979      1.476
REMARK  Name = 
REMARK  7 active torsions:
REMARK  status: ('A' for Active; 'I' for Inactive)
REMARK    1  A    between atoms: C_1  and  N_2
REMARK    2  A    between atoms: N_2  and  C_3
REMARK    3  A    between atoms: C_3  and  C_4
REMARK    4  A    between atoms: C_4  and  C_5
REMARK    5  A    between atoms: C_5  and  C_6
REMARK    6  A    between atoms: N_10  and  C_11
REMARK    7  A    between atoms: C_12  and  C_14
REMARK                            x       y       z     vdW  Elec       q    Type
REMARK                         _______ _______ _______ _____ _____    ______ ____
ROOT
ATOM      1  C   UNL     1       3.473   7.720  17.519  0.00  0.00    +0.000 C 
ATOM      2  N   UNL     1       4.107   6.449  17.858  0.00  0.00    +0.000 N 
ATOM      3  C   UNL     1       4.843   5.858  16.810  0.00  0.00    +0.000 C 
ATOM      4  O   UNL     1       4.777   6.335  15.670  0.00  0.00    +0.000 OA
ENDROOT
BRANCH   3   5
ATOM      5  C   UNL     1       5.705   4.628  17.110  0.00  0.00    +0.000 C 
ATOM      6  C   UNL     1       7.195   4.958  17.117  0.00  0.00    +0.000 C 
ATOM      7  O   UNL     1       7.678   5.489  15.881  0.00  0.00    +0.000 OA
ATOM      8  C   UNL     1       7.190   4.896  14.749  0.00  0.00    +0.000 A 
ATOM      9  C   UNL     1       7.718   5.362  13.545  0.00  0.00    +0.000 A 
ATOM     10  C   UNL     1       7.262   4.843  12.335  0.00  0.00    +0.000 A 
ATOM     11  C   UNL     1       6.287   3.847  12.330  0.00  0.00    +0.000 A 
ATOM     12  C   UNL     1       5.750   3.386  13.534  0.00  0.00    +0.000 A 
ATOM     13  C   UNL     1       6.179   3.929  14.751  0.00  0.00    +0.000 A 
ATOM     14  C   UNL     1       5.544   3.520  16.052  0.00  0.00    +0.000 C 
ENDBRANCH   3   5
BRANCH   2  15
ATOM     15  C   UNL     1       3.719   5.726  19.085  0.00  0.00    +0.000 C 
BRANCH  15  16
ATOM     16  C   UNL     1       2.309   5.973  19.633  0.00  0.00    +0.000 C 
BRANCH  16  17
ATOM     17  C   UNL     1       1.598   4.659  19.966  0.00  0.00    +0.000 C 
BRANCH  17  18
ATOM     18  C   UNL     1       2.122   3.534  19.134  0.00  0.00    +0.000 A 
ATOM     19  N   UNL     1       1.783   3.312  17.878  0.00  0.00    +0.000 NA
ATOM     20  C   UNL     1       2.467   2.186  17.497  0.00  0.00    +0.000 A 
ATOM     21  C   UNL     1       3.237   1.713  18.530  0.00  0.00    +0.000 A 
ATOM     22  N   UNL     1       3.012   2.576  19.566  0.00  0.00    +0.000 N 
ATOM     23  C   UNL     1       3.608   2.464  20.875  0.00  0.00    +0.000 C 
ENDBRANCH  17  18
ENDBRANCH  16  17
ENDBRANCH  15  16
ENDBRANCH   2  15
TORSDOF 5
ENDMDL
MODEL 8
REMARK VINA RESULT:      -7.1      2.537      7.059
REMARK  Name = 
REMARK  7 active torsions:
REMARK  status: ('A' for Active; 'I' for Inactive)
REMARK    1  A    between atoms: C_1  and  N_2
REMARK    2  A    between atoms: N_2  and  C_3
REMARK    3  A    between atoms: C_3  and  C_4
REMARK    4  A    between atoms: C_4  and  C_5
REMARK    5  A    between atoms: C_5  and  C_6
REMARK    6  A    between atoms: N_10  and  C_11
REMARK    7  A    between atoms: C_12  and  C_14
REMARK                            x       y       z     vdW  Elec       q    Type
REMARK                         _______ _______ _______ _____ _____    ______ ____
ROOT
ATOM      1  C   UNL     1       7.607   5.625  19.282  0.00  0.00    +0.000 C 
ATOM      2  N   UNL     1       6.514   5.905  18.357  0.00  0.00    +0.000 N 
ATOM      3  C   UNL     1       5.384   5.076  18.510  0.00  0.00    +0.000 C 
ATOM      4  O   UNL     1       5.439   4.097  19.266  0.00  0.00    +0.000 OA
ENDROOT
BRANCH   3   5
ATOM      5  C   UNL     1       4.109   5.406  17.727  0.00  0.00    +0.000 C 
ATOM      6  C   UNL     1       3.277   6.486  18.412  0.00  0.00    +0.000 C 
ATOM      7  O   UNL     1       2.853   6.143  19.733  0.00  0.00    +0.000 OA
ATOM      8  C   UNL     1       2.437   4.852  19.907  0.00  0.00    +0.000 A 
ATOM      9  C   UNL     1       1.952   4.537  21.175  0.00  0.00    +0.000 A 
ATOM     10  C   UNL     1       1.533   3.239  21.460  0.00  0.00    +0.000 A 
ATOM     11  C   UNL     1       1.587   2.259  20.472  0.00  0.00    +0.000 A 
ATOM     12  C   UNL     1       2.081   2.570  19.203  0.00  0.00    +0.000 A 
ATOM     13  C   UNL     1       2.536   3.863  18.922  0.00  0.00    +0.000 A 
ATOM     14  C   UNL     1       3.165   4.195  17.596  0.00  0.00    +0.000 C 
ENDBRANCH   3   5
BRANCH   2  15
ATOM     15  C   UNL     1       6.737   6.762  17.175  0.00  0.00    +0.000 C 
BRANCH  15  16
ATOM     16  C   UNL     1       6.346   6.193  15.808  0.00  0.00    +0.000 C 
BRANCH  16  17
ATOM     17  C   UNL     1       7.221   4.997  15.426  0.00  0.00    +0.000 C 
BRANCH  17  18
ATOM     18  C   UNL     1       6.886   4.496  14.059  0.00  0.00    +0.000 A 
ATOM     19  N   UNL     1       5.950   3.604  13.798  0.00  0.00    +0.000 NA
ATOM     20  C   UNL     1       5.980   3.413  12.440  0.00  0.00    +0.000 A 
ATOM     21  C   UNL     1       6.944   4.199  11.860  0.00  0.00    +0.000 A 
ATOM     22  N   UNL     1       7.515   4.884  12.896  0.00  0.00    +0.000 N 
ATOM     23  C   UNL     1       8.596   5.830  12.761  0.00  0.00    +0.000 C 
ENDBRANCH  17  18
ENDBRANCH  16  17
ENDBRANCH  15  16
ENDBRANCH   2  15
TORSDOF 5
ENDMDL
MODEL 9
REMARK VINA RESULT:      -6.9      3.679      5.875
REMARK  Name = 
REMARK  7 active torsions:
REMARK  status: ('A' for Active; 'I' for Inactive)
REMARK    1  A    between atoms: C_1  and  N_2
REMARK    2  A    between atoms: N_2  and  C_3
REMARK    3  A    between atoms: C_3  and  C_4
REMARK    4  A    between atoms: C_4  and  C_5
REMARK    5  A    between atoms: C_5  and  C_6
REMARK    6  A    between atoms: N_10  and  C_11
REMARK    7  A    between atoms: C_12  and  C_14
REMARK                            x       y       z     vdW  Elec       q    Type
REMARK                         _______ _______ _______ _____ _____    ______ ____
ROOT
ATOM      1  C   UNL     1       1.849   7.111  20.426  0.00  0.00    +0.000 C 
ATOM      2  N   UNL     1       2.371   6.584  19.168  0.00  0.00    +0.000 N 
ATOM      3  C   UNL     1       3.171   5.431  19.298  0.00  0.00    +0.000 C 
ATOM      4  O   UNL     1       3.511   5.044  20.423  0.00  0.00    +0.000 OA
ENDROOT
BRANCH   3   5
ATOM      5  C   UNL     1       3.609   4.684  18.033  0.00  0.00    +0.000 C 
ATOM      6  C   UNL     1       4.601   3.566  18.340  0.00  0.00    +0.000 C 
ATOM      7  O   UNL     1       5.803   4.014  18.972  0.00  0.00    +0.000 OA
ATOM      8  C   UNL     1       6.329   5.181  18.490  0.00  0.00    +0.000 A 
ATOM      9  C   UNL     1       7.541   5.578  19.053  0.00  0.00    +0.000 A 
ATOM     10  C   UNL     1       8.141   6.769  18.651  0.00  0.00    +0.000 A 
ATOM     11  C   UNL     1       7.535   7.556  17.674  0.00  0.00    +0.000 A 
ATOM     12  C   UNL     1       6.317   7.165  17.114  0.00  0.00    +0.000 A 
ATOM     13  C   UNL     1       5.692   5.988  17.541  0.00  0.00    +0.000 A 
ATOM     14  C   UNL     1       4.332   5.598  17.026  0.00  0.00    +0.000 C 
ENDBRANCH   3   5
BRANCH   2  15
ATOM     15  C   UNL     1       2.314   7.398  17.937  0.00  0.00    +0.000 C 
BRANCH  15  16
ATOM     16  C   UNL     1       2.360   8.922  18.098  0.00  0.00    +0.000 C 
BRANCH  16  17
ATOM     17  C   UNL     1       1.010   9.562  17.763  0.00  0.00    +0.000 C 
BRANCH  17  18
ATOM     18  C   UNL     1       0.442  10.276  18.947  0.00  0.00    +0.000 A 
ATOM     19  N   UNL     1       1.151  10.693  19.979  0.00  0.00    +0.000 NA
ATOM     20  C   UNL     1       0.255  11.274  20.840  0.00  0.00    +0.000 A 
ATOM     21  C   UNL     1      -1.017  11.217  20.328  0.00  0.00    +0.000 A 
ATOM     22  N   UNL     1      -0.888  10.581  19.125  0.00  0.00    +0.000 N 
ATOM     23  C   UNL     1      -1.981  10.285  18.229  0.00  0.00    +0.000 C 
ENDBRANCH  17  18
ENDBRANCH  16  17
ENDBRANCH  15  16
ENDBRANCH   2  15
TORSDOF 5
ENDMDL
