MODEL 1
REMARK VINA RESULT:      -6.8      0.000      0.000
REMARK  Name = 
REMARK  3 active torsions:
REMARK  status: ('A' for Active; 'I' for Inactive)
REMARK    1  A    between atoms: C_1  and  C_2
REMARK    2  A    between atoms: C_2  and  C_8
REMARK    3  A    between atoms: N_3  and  N_4
REMARK                            x       y       z     vdW  Elec       q    Type
REMARK                         _______ _______ _______ _____ _____    ______ ____
ROOT
ATOM      1  C   UNL     1       4.475   6.771  17.020  0.00  0.00    +0.000 C 
ATOM      2  C   UNL     1       4.439   5.254  17.009  0.00  0.00    +0.000 C 
ATOM      3  N   UNL     1       5.014   4.484  16.126  0.00  0.00    +0.000 NA
ENDROOT
BRANCH   2   4
ATOM      4  C   UNL     1       3.675   4.595  18.127  0.00  0.00    +0.000 A 
ATOM      5  C   UNL     1       2.351   4.953  18.421  0.00  0.00    +0.000 A 
ATOM      6  C   UNL     1       1.675   4.348  19.484  0.00  0.00    +0.000 A 
ATOM      7  C   UNL     1       2.309   3.379  20.262  0.00  0.00    +0.000 A 
ATOM      8 CL   UNL     1       1.413   2.682  21.560  0.00  0.00    +0.000 Cl
ATOM      9  C   UNL     1       3.628   3.010  19.972  0.00  0.00    +0.000 A 
ATOM     10 CL   UNL     1       4.481   1.827  20.896  0.00  0.00    +0.000 Cl
ATOM     11  C   UNL     1       4.304   3.613  18.905  0.00  0.00    +0.000 A 
ENDBRANCH   2   4
BRANCH   3  12
ATOM     12  N   UNL     1       5.731   5.044  15.111  0.00  0.00    +0.000 N 
ATOM     13  C   UNL     1       7.099   5.035  15.074  0.00  0.00    +0.000 C 
ATOM     14  N   UNL     1       7.703   4.450  16.132  0.00  0.00    +0.000 N 
ATOM     15  O   UNL     1       7.736   5.532  14.150  0.00  0.00    +0.000 OA
ATOM     16  H   UNL     1       5.292   5.501  14.326  0.00  0.00    +0.000 HD
ATOM     17  H   UNL     1       7.117   3.923  16.762  0.00  0.00    +0.000 HD
ATOM     18  H   UNL     1       8.702   4.318  16.110  0.00  0.00    +0.000 HD
ENDBRANCH   3  12
TORSDOF 2
ENDMDL
MODEL 2
REMARK VINA RESULT:      -6.8      1.188      1.554
REMARK  Name = 
REMARK  3 active torsions:
REMARK  status: ('A' for Active; 'I' for Inactive)
REMARK    1  A    between atoms: C_1  and  C_2
REMARK    2  A    between atoms: C_2  and  C_8
REMARK    3  A    between atoms: N_3  and  N_4
REMARK                            x       y       z     vdW  Elec       q    Type
REMARK                         _______ _______ _______ _____ _____    ______ ____
ROOT
ATOM      1  C   UNL     1       4.444   6.891  17.023  0.00  0.00    +0.000 C 
ATOM      2  C   UNL     1       4.368   5.376  17.081  0.00  0.00    +0.000 C 
ATOM      3  N   UNL     1       4.943   4.550  16.251  0.00  0.00    +0.000 NA
ENDROOT
BRANCH   2   4
ATOM      4  C   UNL     1       3.561   4.790  18.211  0.00  0.00    +0.000 A 
ATOM      5  C   UNL     1       3.805   5.144  19.546  0.00  0.00    +0.000 A 
ATOM      6  C   UNL     1       3.063   4.563  20.577  0.00  0.00    +0.000 A 
ATOM      7  C   UNL     1       2.069   3.627  20.289  0.00  0.00    +0.000 A 
ATOM      8 CL   UNL     1       1.199   2.948  21.615  0.00  0.00    +0.000 Cl
ATOM      9  C   UNL     1       1.814   3.273  18.959  0.00  0.00    +0.000 A 
ATOM     10 CL   UNL     1       0.607   2.115  18.527  0.00  0.00    +0.000 Cl
ATOM     11  C   UNL     1       2.554   3.858  17.926  0.00  0.00    +0.000 A 
ENDBRANCH   2   4
BRANCH   3  12
ATOM     12  N   UNL     1       5.699   5.043  15.229  0.00  0.00    +0.000 N 
ATOM     13  C   UNL     1       7.067   4.997  15.225  0.00  0.00    +0.000 C 
ATOM     14  N   UNL     1       7.630   4.447  16.323  0.00  0.00    +0.000 N 
ATOM     15  O   UNL     1       7.738   5.433  14.295  0.00  0.00    +0.000 OA
ATOM     16  H   UNL     1       5.291   5.474  14.412  0.00  0.00    +0.000 HD
ATOM     17  H   UNL     1       7.015   3.965  16.963  0.00  0.00    +0.000 HD
ATOM     18  H   UNL     1       8.625   4.288  16.332  0.00  0.00    +0.000 HD
ENDBRANCH   3  12
TORSDOF 2
ENDMDL
MODEL 3
REMARK VINA RESULT:      -6.7      1.643      2.078
REMARK  Name = 
REMARK  3 active torsions:
REMARK  status: ('A' for Active; 'I' for Inactive)
REMARK    1  A    between atoms: C_1  and  C_2
REMARK    2  A    between atoms: C_2  and  C_8
REMARK    3  A    between atoms: N_3  and  N_4
REMARK                            x       y       z     vdW  Elec       q    Type
REMARK                         _______ _______ _______ _____ _____    ______ ____
ROOT
ATOM      1  C   UNL     1       4.853   6.946  16.214  0.00  0.00    +0.000 C 
ATOM      2  C   UNL     1       5.062   5.481  16.552  0.00  0.00    +0.000 C 
ATOM      3  N   UNL     1       6.088   4.756  16.202  0.00  0.00    +0.000 NA
ENDROOT
BRANCH   2   4
ATOM      4  C   UNL     1       3.983   4.824  17.373  0.00  0.00    +0.000 A 
ATOM      5  C   UNL     1       3.486   3.553  17.048  0.00  0.00    +0.000 A 
ATOM      6  C   UNL     1       2.464   2.979  17.807  0.00  0.00    +0.000 A 
ATOM      7  C   UNL     1       1.929   3.662  18.900  0.00  0.00    +0.000 A 
ATOM      8 CL   UNL     1       0.665   2.892  19.786  0.00  0.00    +0.000 Cl
ATOM      9  C   UNL     1       2.424   4.928  19.237  0.00  0.00    +0.000 A 
ATOM     10 CL   UNL     1       1.804   5.838  20.568  0.00  0.00    +0.000 Cl
ATOM     11  C   UNL     1       3.450   5.502  18.478  0.00  0.00    +0.000 A 
ENDBRANCH   2   4
BRANCH   3  12
ATOM     12  N   UNL     1       7.094   5.322  15.476  0.00  0.00    +0.000 N 
ATOM     13  C   UNL     1       7.308   5.040  14.154  0.00  0.00    +0.000 C 
ATOM     14  N   UNL     1       6.463   4.135  13.612  0.00  0.00    +0.000 N 
ATOM     15  O   UNL     1       8.209   5.564  13.507  0.00  0.00    +0.000 OA
ATOM     16  H   UNL     1       7.744   5.984  15.875  0.00  0.00    +0.000 HD
ATOM     17  H   UNL     1       5.653   3.878  14.157  0.00  0.00    +0.000 HD
ATOM     18  H   UNL     1       6.502   3.967  12.619  0.00  0.00    +0.000 HD
ENDBRANCH   3  12
TORSDOF 2
ENDMDL
MODEL 4
REMARK VINA RESULT:      -6.7      1.578      2.253
REMARK  Name = 
REMARK  3 active torsions:
REMARK  status: ('A' for Active; 'I' for Inactive)
REMARK    1  A    between atoms: C_1  and  C_2
REMARK    2  A    between atoms: C_2  and  C_8
REMARK    3  A    between atoms: N_3  and  N_4
REMARK                            x       y       z     vdW  Elec       q    Type
REMARK                         _______ _______ _______ _____ _____    ______ ____
ROOT
ATOM      1  C   UNL     1       7.201   5.406  18.634  0.00  0.00    +0.000 C 
ATOM      2  C   UNL     1       5.874   5.079  17.973  0.00  0.00    +0.000 C 
ATOM      3  N   UNL     1       5.602   5.208  16.704  0.00  0.00    +0.000 NA
ENDROOT
BRANCH   2   4
ATOM      4  C   UNL     1       4.789   4.551  18.875  0.00  0.00    +0.000 A 
ATOM      5  C   UNL     1       4.729   3.197  19.234  0.00  0.00    +0.000 A 
ATOM      6  C   UNL     1       3.695   2.727  20.047  0.00  0.00    +0.000 A 
ATOM      7  C   UNL     1       2.713   3.600  20.514  0.00  0.00    +0.000 A 
ATOM      8 CL   UNL     1       1.464   2.946  21.507  0.00  0.00    +0.000 Cl
ATOM      9  C   UNL     1       2.768   4.955  20.166  0.00  0.00    +0.000 A 
ATOM     10 CL   UNL     1       1.582   6.094  20.696  0.00  0.00    +0.000 Cl
ATOM     11  C   UNL     1       3.806   5.427  19.355  0.00  0.00    +0.000 A 
ENDBRANCH   2   4
BRANCH   3  12
ATOM     12  N   UNL     1       6.566   5.663  15.853  0.00  0.00    +0.000 N 
ATOM     13  C   UNL     1       6.976   4.963  14.751  0.00  0.00    +0.000 C 
ATOM     14  N   UNL     1       6.377   3.766  14.569  0.00  0.00    +0.000 N 
ATOM     15  O   UNL     1       7.836   5.387  13.985  0.00  0.00    +0.000 OA
ATOM     16  H   UNL     1       7.034   6.547  15.988  0.00  0.00    +0.000 HD
ATOM     17  H   UNL     1       5.570   3.565  15.142  0.00  0.00    +0.000 HD
ATOM     18  H   UNL     1       6.559   3.254  13.721  0.00  0.00    +0.000 HD
ENDBRANCH   3  12
TORSDOF 2
ENDMDL
MODEL 5
REMARK VINA RESULT:      -6.7      1.361      1.553
REMARK  Name = 
REMARK  3 active torsions:
REMARK  status: ('A' for Active; 'I' for Inactive)
REMARK    1  A    between atoms: C_1  and  C_2
REMARK    2  A    between atoms: C_2  and  C_8
REMARK    3  A    between atoms: N_3  and  N_4
REMARK                            x       y       z     vdW  Elec       q    Type
REMARK                         _______ _______ _______ _____ _____    ______ ____
ROOT
ATOM      1  C   UNL     1       4.897   6.935  15.986  0.00  0.00    +0.000 C 
ATOM      2  C   UNL     1       5.179   5.503  16.403  0.00  0.00    +0.000 C 
ATOM      3  N   UNL     1       6.238   4.810  16.086  0.00  0.00    +0.000 NA
ENDROOT
BRANCH   2   4
ATOM      4  C   UNL     1       4.138   4.841  17.268  0.00  0.00    +0.000 A 
ATOM      5  C   UNL     1       3.089   5.573  17.842  0.00  0.00    +0.000 A 
ATOM      6  C   UNL     1       2.154   4.941  18.665  0.00  0.00    +0.000 A 
ATOM      7  C   UNL     1       2.252   3.574  18.922  0.00  0.00    +0.000 A 
ATOM      8 CL   UNL     1       1.064   2.864  19.953  0.00  0.00    +0.000 Cl
ATOM      9  C   UNL     1       3.292   2.833  18.347  0.00  0.00    +0.000 A 
ATOM     10 CL   UNL     1       3.483   1.139  18.628  0.00  0.00    +0.000 Cl
ATOM     11  C   UNL     1       4.226   3.465  17.520  0.00  0.00    +0.000 A 
ENDBRANCH   2   4
BRANCH   3  12
ATOM     12  N   UNL     1       7.212   5.383  15.323  0.00  0.00    +0.000 N 
ATOM     13  C   UNL     1       7.400   5.074  14.002  0.00  0.00    +0.000 C 
ATOM     14  N   UNL     1       6.565   4.136  13.503  0.00  0.00    +0.000 N 
ATOM     15  O   UNL     1       8.272   5.604  13.321  0.00  0.00    +0.000 OA
ATOM     16  H   UNL     1       7.853   6.070  15.689  0.00  0.00    +0.000 HD
ATOM     17  H   UNL     1       5.776   3.873  14.074  0.00  0.00    +0.000 HD
ATOM     18  H   UNL     1       6.585   3.945  12.513  0.00  0.00    +0.000 HD
ENDBRANCH   3  12
TORSDOF 2
ENDMDL
MODEL 6
REMARK VINA RESULT:      -6.4      0.914      1.811
REMARK  Name = 
REMARK  3 active torsions:
REMARK  status: ('A' for Active; 'I' for Inactive)
REMARK    1  A    between atoms: C_1  and  C_2
REMARK    2  A    between atoms: C_2  and  C_8
REMARK    3  A    between atoms: N_3  and  N_4
REMARK                            x       y       z     vdW  Elec       q    Type
REMARK                         _______ _______ _______ _____ _____    ______ ____
ROOT
ATOM      1  C   UNL     1       4.506   6.574  17.082  0.00  0.00    +0.000 C 
ATOM      2  C   UNL     1       4.530   5.059  17.161  0.00  0.00    +0.000 C 
ATOM      3  N   UNL     1       5.122   4.260  16.316  0.00  0.00    +0.000 NA
ENDROOT
BRANCH   2   4
ATOM      4  C   UNL     1       3.810   4.438  18.330  0.00  0.00    +0.000 A 
ATOM      5  C   UNL     1       4.054   3.114  18.722  0.00  0.00    +0.000 A 
ATOM      6  C   UNL     1       3.351   2.552  19.790  0.00  0.00    +0.000 A 
ATOM      7  C   UNL     1       2.400   3.304  20.481  0.00  0.00    +0.000 A 
ATOM      8 CL   UNL     1       1.567   2.541  21.784  0.00  0.00    +0.000 Cl
ATOM      9  C   UNL     1       2.154   4.629  20.101  0.00  0.00    +0.000 A 
ATOM     10 CL   UNL     1       0.986   5.617  20.901  0.00  0.00    +0.000 Cl
ATOM     11  C   UNL     1       2.862   5.193  19.033  0.00  0.00    +0.000 A 
ENDBRANCH   2   4
BRANCH   3  12
ATOM     12  N   UNL     1       5.801   4.786  15.257  0.00  0.00    +0.000 N 
ATOM     13  C   UNL     1       7.161   4.937  15.246  0.00  0.00    +0.000 C 
ATOM     14  N   UNL     1       7.795   4.550  16.375  0.00  0.00    +0.000 N 
ATOM     15  O   UNL     1       7.764   5.401  14.283  0.00  0.00    +0.000 OA
ATOM     16  H   UNL     1       5.337   5.098  14.416  0.00  0.00    +0.000 HD
ATOM     17  H   UNL     1       7.254   4.029  17.050  0.00  0.00    +0.000 HD
ATOM     18  H   UNL     1       8.803   4.537  16.387  0.00  0.00    +0.000 HD
ENDBRANCH   3  12
TORSDOF 2
ENDMDL
MODEL 7
REMARK VINA RESULT:      -6.4      1.072      1.190
REMARK  Name = 
REMARK  3 active torsions:
REMARK  status: ('A' for Active; 'I' for Inactive)
REMARK    1  A    between atoms: C_1  and  C_2
REMARK    2  A    between atoms: C_2  and  C_8
REMARK    3  A    between atoms: N_3  and  N_4
REMARK                            x       y       z     vdW  Elec       q    Type
REMARK                         _______ _______ _______ _____ _____    ______ ____
ROOT
ATOM      1  C   UNL     1       6.490   6.216  17.809  0.00  0.00    +0.000 C 
ATOM      2  C   UNL     1       5.398   5.435  17.102  0.00  0.00    +0.000 C 
ATOM      3  N   UNL     1       5.335   5.202  15.820  0.00  0.00    +0.000 NA
ENDROOT
BRANCH   2   4
ATOM      4  C   UNL     1       4.302   4.878  17.974  0.00  0.00    +0.000 A 
ATOM      5  C   UNL     1       2.989   5.366  17.902  0.00  0.00    +0.000 A 
ATOM      6  C   UNL     1       1.998   4.854  18.743  0.00  0.00    +0.000 A 
ATOM      7  C   UNL     1       2.304   3.849  19.661  0.00  0.00    +0.000 A 
ATOM      8 CL   UNL     1       1.030   3.271  20.670  0.00  0.00    +0.000 Cl
ATOM      9  C   UNL     1       3.610   3.351  19.735  0.00  0.00    +0.000 A 
ATOM     10 CL   UNL     1       4.065   2.116  20.854  0.00  0.00    +0.000 Cl
ATOM     11  C   UNL     1       4.602   3.861  18.890  0.00  0.00    +0.000 A 
ENDBRANCH   2   4
BRANCH   3  12
ATOM     12  N   UNL     1       6.319   5.672  15.002  0.00  0.00    +0.000 N 
ATOM     13  C   UNL     1       6.893   4.914  14.017  0.00  0.00    +0.000 C 
ATOM     14  N   UNL     1       6.434   3.647  13.920  0.00  0.00    +0.000 N 
ATOM     15  O   UNL     1       7.771   5.351  13.279  0.00  0.00    +0.000 OA
ATOM     16  H   UNL     1       6.684   6.610  15.078  0.00  0.00    +0.000 HD
ATOM     17  H   UNL     1       5.604   3.418  14.447  0.00  0.00    +0.000 HD
ATOM     18  H   UNL     1       6.741   3.076  13.148  0.00  0.00    +0.000 HD
ENDBRANCH   3  12
TORSDOF 2
ENDMDL
MODEL 8
REMARK VINA RESULT:      -6.3      1.800      2.466
REMARK  Name = 
REMARK  3 active torsions:
REMARK  status: ('A' for Active; 'I' for Inactive)
REMARK    1  A    between atoms: C_1  and  C_2
REMARK    2  A    between atoms: C_2  and  C_8
REMARK    3  A    between atoms: N_3  and  N_4
REMARK                            x       y       z     vdW  Elec       q    Type
REMARK                         _______ _______ _______ _____ _____    ______ ____
ROOT
ATOM      1  C   UNL     1       7.444   5.018  18.081  0.00  0.00    +0.000 C 
ATOM      2  C   UNL     1       6.174   4.845  17.269  0.00  0.00    +0.000 C 
ATOM      3  N   UNL     1       6.041   5.103  15.997  0.00  0.00    +0.000 NA
ENDROOT
BRANCH   2   4
ATOM      4  C   UNL     1       4.972   4.320  18.010  0.00  0.00    +0.000 A 
ATOM      5  C   UNL     1       5.106   3.604  19.209  0.00  0.00    +0.000 A 
ATOM      6  C   UNL     1       3.978   3.101  19.860  0.00  0.00    +0.000 A 
ATOM      7  C   UNL     1       2.705   3.308  19.328  0.00  0.00    +0.000 A 
ATOM      8 CL   UNL     1       1.360   2.651  20.185  0.00  0.00    +0.000 Cl
ATOM      9  C   UNL     1       2.561   4.027  18.135  0.00  0.00    +0.000 A 
ATOM     10 CL   UNL     1       1.020   4.314  17.410  0.00  0.00    +0.000 Cl
ATOM     11  C   UNL     1       3.691   4.534  17.484  0.00  0.00    +0.000 A 
ENDBRANCH   2   4
BRANCH   3  12
ATOM     12  N   UNL     1       7.112   5.560  15.288  0.00  0.00    +0.000 N 
ATOM     13  C   UNL     1       7.396   5.142  14.016  0.00  0.00    +0.000 C 
ATOM     14  N   UNL     1       6.551   4.218  13.508  0.00  0.00    +0.000 N 
ATOM     15  O   UNL     1       8.356   5.568  13.382  0.00  0.00    +0.000 OA
ATOM     16  H   UNL     1       7.761   6.235  15.663  0.00  0.00    +0.000 HD
ATOM     17  H   UNL     1       5.699   4.043  14.021  0.00  0.00    +0.000 HD
ATOM     18  H   UNL     1       6.645   3.951  12.541  0.00  0.00    +0.000 HD
ENDBRANCH   3  12
TORSDOF 2
ENDMDL
MODEL 9
REMARK VINA RESULT:      -6.3      1.611      1.732
REMARK  Name = 
REMARK  3 active torsions:
REMARK  status: ('A' for Active; 'I' for Inactive)
REMARK    1  A    between atoms: C_1  and  C_2
REMARK    2  A    between atoms: C_2  and  C_8
REMARK    3  A    between atoms: N_3  and  N_4
REMARK                            x       y       z     vdW  Elec       q    Type
REMARK                         _______ _______ _______ _____ _____    ______ ____
ROOT
ATOM      1  C   UNL     1       7.037   6.062  18.314  0.00  0.00    +0.000 C 
ATOM      2  C   UNL     1       5.905   5.458  17.503  0.00  0.00    +0.000 C 
ATOM      3  N   UNL     1       5.900   5.289  16.210  0.00  0.00    +0.000 NA
ENDROOT
BRANCH   2   4
ATOM      4  C   UNL     1       4.693   5.010  18.277  0.00  0.00    +0.000 A 
ATOM      5  C   UNL     1       4.032   5.871  19.166  0.00  0.00    +0.000 A 
ATOM      6  C   UNL     1       2.928   5.422  19.895  0.00  0.00    +0.000 A 
ATOM      7  C   UNL     1       2.469   4.113  19.744  0.00  0.00    +0.000 A 
ATOM      8 CL   UNL     1       1.105   3.629  20.682  0.00  0.00    +0.000 Cl
ATOM      9  C   UNL     1       3.119   3.249  18.854  0.00  0.00    +0.000 A 
ATOM     10 CL   UNL     1       2.615   1.613  18.623  0.00  0.00    +0.000 Cl
ATOM     11  C   UNL     1       4.222   3.700  18.121  0.00  0.00    +0.000 A 
ENDBRANCH   2   4
BRANCH   3  12
ATOM     12  N   UNL     1       6.988   5.662  15.478  0.00  0.00    +0.000 N 
ATOM     13  C   UNL     1       7.274   5.135  14.248  0.00  0.00    +0.000 C 
ATOM     14  N   UNL     1       6.413   4.192  13.808  0.00  0.00    +0.000 N 
ATOM     15  O   UNL     1       8.250   5.487  13.592  0.00  0.00    +0.000 OA
ATOM     16  H   UNL     1       7.649   6.351  15.804  0.00  0.00    +0.000 HD
ATOM     17  H   UNL     1       5.552   4.079  14.324  0.00  0.00    +0.000 HD
ATOM     18  H   UNL     1       6.510   3.845  12.867  0.00  0.00    +0.000 HD
ENDBRANCH   3  12
TORSDOF 2
ENDMDL
