MODEL 1
REMARK VINA RESULT:      -6.6      0.000      0.000
REMARK  Name = 
REMARK  5 active torsions:
REMARK  status: ('A' for Active; 'I' for Inactive)
REMARK    1  A    between atoms: O_1  and  C_2
REMARK    2  A    between atoms: C_7  and  C_8
REMARK    3  A    between atoms: C_8  and  O_9
REMARK    4  A    between atoms: C_8  and  C_10
REMARK    5  A    between atoms: C_10  and  N_11
REMARK                            x       y       z     vdW  Elec       q    Type
REMARK                         _______ _______ _______ _____ _____    ______ ____
ROOT
ATOM      1  C   UNL     1       3.396   3.459  17.584  0.00  0.00    +0.000 C 
ENDROOT
BRANCH   1   7
ATOM      2  C   UNL     1       3.583   2.650  20.033  0.00  0.00    +0.000 A 
ATOM      3  C   UNL     1       3.049   2.530  21.320  0.00  0.00    +0.000 A 
ATOM      4  C   UNL     1       1.775   3.020  21.591  0.00  0.00    +0.000 A 
ATOM      5  C   UNL     1       1.039   3.630  20.582  0.00  0.00    +0.000 A 
ATOM      6  C   UNL     1       1.575   3.741  19.295  0.00  0.00    +0.000 A 
ATOM      7  C   UNL     1       2.856   3.240  18.990  0.00  0.00    +0.000 A 
BRANCH   2   8
ATOM      8  O   UNL     1       4.856   2.214  19.810  0.00  0.00    +0.000 OA
ATOM      9  H   UNL     1       5.197   2.633  18.999  0.00  0.00    +0.000 HD
ENDBRANCH   2   8
ENDBRANCH   1   7
BRANCH   1  10
ATOM     10  O   UNL     1       2.312   3.247  16.674  0.00  0.00    +0.000 OA
ATOM     11  H   UNL     1       1.608   3.870  16.922  0.00  0.00    +0.000 HD
ENDBRANCH   1  10
BRANCH   1  12
ATOM     12  C   UNL     1       4.060   4.820  17.314  0.00  0.00    +0.000 C 
BRANCH  12  13
ATOM     13  N   UNL     1       5.509   4.782  17.455  0.00  0.00    +0.000 N 
ATOM     14  C   UNL     1       6.245   5.193  18.528  0.00  0.00    +0.000 A 
ATOM     15  C   UNL     1       7.554   5.039  18.133  0.00  0.00    +0.000 A 
ATOM     16  N   UNL     1       7.626   4.554  16.854  0.00  0.00    +0.000 NA
ATOM     17  C   UNL     1       6.379   4.404  16.471  0.00  0.00    +0.000 A 
ENDBRANCH  12  13
ENDBRANCH   1  12
TORSDOF 5
ENDMDL
MODEL 2
REMARK VINA RESULT:      -6.4      1.450      1.931
REMARK  Name = 
REMARK  5 active torsions:
REMARK  status: ('A' for Active; 'I' for Inactive)
REMARK    1  A    between atoms: O_1  and  C_2
REMARK    2  A    between atoms: C_7  and  C_8
REMARK    3  A    between atoms: C_8  and  O_9
REMARK    4  A    between atoms: C_8  and  C_10
REMARK    5  A    between atoms: C_10  and  N_11
REMARK                            x       y       z     vdW  Elec       q    Type
REMARK                         _______ _______ _______ _____ _____    ______ ____
ROOT
ATOM      1  C   UNL     1       4.688   3.787  18.946  0.00  0.00    +0.000 C 
ENDROOT
BRANCH   1   7
ATOM      2  C   UNL     1       2.423   2.539  18.961  0.00  0.00    +0.000 A 
ATOM      3  C   UNL     1       1.092   2.437  19.377  0.00  0.00    +0.000 A 
ATOM      4  C   UNL     1       0.535   3.433  20.173  0.00  0.00    +0.000 A 
ATOM      5  C   UNL     1       1.305   4.525  20.554  0.00  0.00    +0.000 A 
ATOM      6  C   UNL     1       2.633   4.626  20.129  0.00  0.00    +0.000 A 
ATOM      7  C   UNL     1       3.218   3.640  19.311  0.00  0.00    +0.000 A 
BRANCH   2   8
ATOM      8  O   UNL     1       2.961   1.520  18.231  0.00  0.00    +0.000 OA
ATOM      9  H   UNL     1       2.292   1.191  17.605  0.00  0.00    +0.000 HD
ENDBRANCH   2   8
ENDBRANCH   1   7
BRANCH   1  10
ATOM     10  O   UNL     1       5.366   2.627  19.437  0.00  0.00    +0.000 OA
ATOM     11  H   UNL     1       5.817   2.888  20.258  0.00  0.00    +0.000 HD
ENDBRANCH   1  10
BRANCH   1  12
ATOM     12  C   UNL     1       5.001   3.997  17.455  0.00  0.00    +0.000 C 
BRANCH  12  13
ATOM     13  N   UNL     1       6.018   5.013  17.226  0.00  0.00    +0.000 N 
ATOM     14  C   UNL     1       6.390   6.014  18.076  0.00  0.00    +0.000 A 
ATOM     15  C   UNL     1       7.309   6.752  17.365  0.00  0.00    +0.000 A 
ATOM     16  N   UNL     1       7.494   6.228  16.112  0.00  0.00    +0.000 NA
ATOM     17  C   UNL     1       6.707   5.179  16.058  0.00  0.00    +0.000 A 
ENDBRANCH  12  13
ENDBRANCH   1  12
TORSDOF 5
ENDMDL
MODEL 3
REMARK VINA RESULT:      -6.4      1.925      2.335
REMARK  Name = 
REMARK  5 active torsions:
REMARK  status: ('A' for Active; 'I' for Inactive)
REMARK    1  A    between atoms: O_1  and  C_2
REMARK    2  A    between atoms: C_7  and  C_8
REMARK    3  A    between atoms: C_8  and  O_9
REMARK    4  A    between atoms: C_8  and  C_10
REMARK    5  A    between atoms: C_10  and  N_11
REMARK                            x       y       z     vdW  Elec       q    Type
REMARK                         _______ _______ _______ _____ _____    ______ ____
ROOT
ATOM      1  C   UNL     1       3.645   4.639  17.380  0.00  0.00    +0.000 C 
ENDROOT
BRANCH   1   7
ATOM      2  C   UNL     1       2.711   4.756  19.788  0.00  0.00    +0.000 A 
ATOM      3  C   UNL     1       1.797   4.340  20.762  0.00  0.00    +0.000 A 
ATOM      4  C   UNL     1       0.859   3.358  20.458  0.00  0.00    +0.000 A 
ATOM      5  C   UNL     1       0.831   2.797  19.187  0.00  0.00    +0.000 A 
ATOM      6  C   UNL     1       1.752   3.212  18.220  0.00  0.00    +0.000 A 
ATOM      7  C   UNL     1       2.721   4.193  18.505  0.00  0.00    +0.000 A 
BRANCH   2   8
ATOM      8  O   UNL     1       3.581   5.762  20.094  0.00  0.00    +0.000 OA
ATOM      9  H   UNL     1       3.865   6.197  19.271  0.00  0.00    +0.000 HD
ENDBRANCH   2   8
ENDBRANCH   1   7
BRANCH   1  10
ATOM     10  O   UNL     1       3.694   6.069  17.412  0.00  0.00    +0.000 OA
ATOM     11  H   UNL     1       2.808   6.377  17.669  0.00  0.00    +0.000 HD
ENDBRANCH   1  10
BRANCH   1  12
ATOM     12  C   UNL     1       5.068   4.055  17.396  0.00  0.00    +0.000 C 
BRANCH  12  13
ATOM     13  N   UNL     1       5.870   4.486  16.260  0.00  0.00    +0.000 N 
ATOM     14  C   UNL     1       5.721   4.114  14.956  0.00  0.00    +0.000 A 
ATOM     15  C   UNL     1       6.771   4.713  14.299  0.00  0.00    +0.000 A 
ATOM     16  N   UNL     1       7.551   5.427  15.171  0.00  0.00    +0.000 NA
ATOM     17  C   UNL     1       6.982   5.276  16.345  0.00  0.00    +0.000 A 
ENDBRANCH  12  13
ENDBRANCH   1  12
TORSDOF 5
ENDMDL
MODEL 4
REMARK VINA RESULT:      -6.4      1.624      2.143
REMARK  Name = 
REMARK  5 active torsions:
REMARK  status: ('A' for Active; 'I' for Inactive)
REMARK    1  A    between atoms: O_1  and  C_2
REMARK    2  A    between atoms: C_7  and  C_8
REMARK    3  A    between atoms: C_8  and  O_9
REMARK    4  A    between atoms: C_8  and  C_10
REMARK    5  A    between atoms: C_10  and  N_11
REMARK                            x       y       z     vdW  Elec       q    Type
REMARK                         _______ _______ _______ _____ _____    ______ ____
ROOT
ATOM      1  C   UNL     1       4.476   4.090  18.258  0.00  0.00    +0.000 C 
ENDROOT
BRANCH   1   7
ATOM      2  C   UNL     1       2.593   2.567  19.165  0.00  0.00    +0.000 A 
ATOM      3  C   UNL     1       1.461   2.374  19.962  0.00  0.00    +0.000 A 
ATOM      4  C   UNL     1       0.932   3.439  20.685  0.00  0.00    +0.000 A 
ATOM      5  C   UNL     1       1.533   4.689  20.615  0.00  0.00    +0.000 A 
ATOM      6  C   UNL     1       2.661   4.878  19.810  0.00  0.00    +0.000 A 
ATOM      7  C   UNL     1       3.208   3.822  19.057  0.00  0.00    +0.000 A 
BRANCH   2   8
ATOM      8  O   UNL     1       3.126   1.492  18.514  0.00  0.00    +0.000 OA
ATOM      9  H   UNL     1       3.608   1.805  17.728  0.00  0.00    +0.000 HD
ENDBRANCH   2   8
ENDBRANCH   1   7
BRANCH   1  10
ATOM     10  O   UNL     1       5.496   3.232  18.780  0.00  0.00    +0.000 OA
ATOM     11  H   UNL     1       5.106   2.754  19.532  0.00  0.00    +0.000 HD
ENDBRANCH   1  10
BRANCH   1  12
ATOM     12  C   UNL     1       4.367   3.922  16.733  0.00  0.00    +0.000 C 
BRANCH  12  13
ATOM     13  N   UNL     1       5.507   4.480  16.019  0.00  0.00    +0.000 N 
ATOM     14  C   UNL     1       6.109   3.975  14.903  0.00  0.00    +0.000 A 
ATOM     15  C   UNL     1       7.183   4.805  14.679  0.00  0.00    +0.000 A 
ATOM     16  N   UNL     1       7.248   5.789  15.631  0.00  0.00    +0.000 NA
ATOM     17  C   UNL     1       6.223   5.571  16.423  0.00  0.00    +0.000 A 
ENDBRANCH  12  13
ENDBRANCH   1  12
TORSDOF 5
ENDMDL
MODEL 5
REMARK VINA RESULT:      -6.4      1.721      2.296
REMARK  Name = 
REMARK  5 active torsions:
REMARK  status: ('A' for Active; 'I' for Inactive)
REMARK    1  A    between atoms: O_1  and  C_2
REMARK    2  A    between atoms: C_7  and  C_8
REMARK    3  A    between atoms: C_8  and  O_9
REMARK    4  A    between atoms: C_8  and  C_10
REMARK    5  A    between atoms: C_10  and  N_11
REMARK                            x       y       z     vdW  Elec       q    Type
REMARK                         _______ _______ _______ _____ _____    ______ ____
ROOT
ATOM      1  C   UNL     1       5.071   4.412  18.284  0.00  0.00    +0.000 C 
ENDROOT
BRANCH   1   7
ATOM      2  C   UNL     1       3.896   2.900  20.023  0.00  0.00    +0.000 A 
ATOM      3  C   UNL     1       2.913   2.701  20.997  0.00  0.00    +0.000 A 
ATOM      4  C   UNL     1       2.012   3.720  21.292  0.00  0.00    +0.000 A 
ATOM      5  C   UNL     1       2.095   4.933  20.619  0.00  0.00    +0.000 A 
ATOM      6  C   UNL     1       3.076   5.124  19.641  0.00  0.00    +0.000 A 
ATOM      7  C   UNL     1       3.991   4.105  19.312  0.00  0.00    +0.000 A 
BRANCH   2   8
ATOM      8  O   UNL     1       4.803   1.906  19.795  0.00  0.00    +0.000 OA
ATOM      9  H   UNL     1       4.566   1.132  20.336  0.00  0.00    +0.000 HD
ENDBRANCH   2   8
ENDBRANCH   1   7
BRANCH   1  10
ATOM     10  O   UNL     1       6.316   3.965  18.830  0.00  0.00    +0.000 OA
ATOM     11  H   UNL     1       6.999   4.147  18.163  0.00  0.00    +0.000 HD
ENDBRANCH   1  10
BRANCH   1  12
ATOM     12  C   UNL     1       4.861   3.821  16.880  0.00  0.00    +0.000 C 
BRANCH  12  13
ATOM     13  N   UNL     1       5.777   4.371  15.891  0.00  0.00    +0.000 N 
ATOM     14  C   UNL     1       5.816   4.090  14.556  0.00  0.00    +0.000 A 
ATOM     15  C   UNL     1       6.908   4.783  14.085  0.00  0.00    +0.000 A 
ATOM     16  N   UNL     1       7.529   5.466  15.098  0.00  0.00    +0.000 NA
ATOM     17  C   UNL     1       6.823   5.203  16.174  0.00  0.00    +0.000 A 
ENDBRANCH  12  13
ENDBRANCH   1  12
TORSDOF 5
ENDMDL
MODEL 6
REMARK VINA RESULT:      -6.4      2.098      2.473
REMARK  Name = 
REMARK  5 active torsions:
REMARK  status: ('A' for Active; 'I' for Inactive)
REMARK    1  A    between atoms: O_1  and  C_2
REMARK    2  A    between atoms: C_7  and  C_8
REMARK    3  A    between atoms: C_8  and  O_9
REMARK    4  A    between atoms: C_8  and  C_10
REMARK    5  A    between atoms: C_10  and  N_11
REMARK                            x       y       z     vdW  Elec       q    Type
REMARK                         _______ _______ _______ _____ _____    ______ ____
ROOT
ATOM      1  C   UNL     1       3.565   5.697  17.973  0.00  0.00    +0.000 C 
ENDROOT
BRANCH   1   7
ATOM      2  C   UNL     1       2.070   4.978  19.957  0.00  0.00    +0.000 A 
ATOM      3  C   UNL     1       1.139   4.104  20.526  0.00  0.00    +0.000 A 
ATOM      4  C   UNL     1       0.702   2.993  19.810  0.00  0.00    +0.000 A 
ATOM      5  C   UNL     1       1.191   2.760  18.530  0.00  0.00    +0.000 A 
ATOM      6  C   UNL     1       2.127   3.634  17.969  0.00  0.00    +0.000 A 
ATOM      7  C   UNL     1       2.597   4.756  18.677  0.00  0.00    +0.000 A 
BRANCH   2   8
ATOM      8  O   UNL     1       2.436   6.091  20.657  0.00  0.00    +0.000 OA
ATOM      9  H   UNL     1       2.114   6.881  20.188  0.00  0.00    +0.000 HD
ENDBRANCH   2   8
ENDBRANCH   1   7
BRANCH   1  10
ATOM     10  O   UNL     1       3.047   7.023  18.114  0.00  0.00    +0.000 OA
ATOM     11  H   UNL     1       2.205   6.949  18.595  0.00  0.00    +0.000 HD
ENDBRANCH   1  10
BRANCH   1  12
ATOM     12  C   UNL     1       5.029   5.643  18.443  0.00  0.00    +0.000 C 
BRANCH  12  13
ATOM     13  N   UNL     1       5.951   5.263  17.383  0.00  0.00    +0.000 N 
ATOM     14  C   UNL     1       5.692   5.206  16.045  0.00  0.00    +0.000 A 
ATOM     15  C   UNL     1       6.846   4.706  15.486  0.00  0.00    +0.000 A 
ATOM     16  N   UNL     1       7.787   4.455  16.449  0.00  0.00    +0.000 NA
ATOM     17  C   UNL     1       7.223   4.803  17.582  0.00  0.00    +0.000 A 
ENDBRANCH  12  13
ENDBRANCH   1  12
TORSDOF 5
ENDMDL
MODEL 7
REMARK VINA RESULT:      -6.3      0.902      1.248
REMARK  Name = 
REMARK  5 active torsions:
REMARK  status: ('A' for Active; 'I' for Inactive)
REMARK    1  A    between atoms: O_1  and  C_2
REMARK    2  A    between atoms: C_7  and  C_8
REMARK    3  A    between atoms: C_8  and  O_9
REMARK    4  A    between atoms: C_8  and  C_10
REMARK    5  A    between atoms: C_10  and  N_11
REMARK                            x       y       z     vdW  Elec       q    Type
REMARK                         _______ _______ _______ _____ _____    ______ ____
ROOT
ATOM      1  C   UNL     1       3.381   3.691  17.614  0.00  0.00    +0.000 C 
ENDROOT
BRANCH   1   7
ATOM      2  C   UNL     1       3.573   2.730  20.007  0.00  0.00    +0.000 A 
ATOM      3  C   UNL     1       3.050   2.544  21.290  0.00  0.00    +0.000 A 
ATOM      4  C   UNL     1       1.791   3.047  21.606  0.00  0.00    +0.000 A 
ATOM      5  C   UNL     1       1.060   3.735  20.645  0.00  0.00    +0.000 A 
ATOM      6  C   UNL     1       1.586   3.911  19.361  0.00  0.00    +0.000 A 
ATOM      7  C   UNL     1       2.850   3.400  19.011  0.00  0.00    +0.000 A 
BRANCH   2   8
ATOM      8  O   UNL     1       4.833   2.278  19.743  0.00  0.00    +0.000 OA
ATOM      9  H   UNL     1       4.796   1.656  18.995  0.00  0.00    +0.000 HD
ENDBRANCH   2   8
ENDBRANCH   1   7
BRANCH   1  10
ATOM     10  O   UNL     1       2.344   3.356  16.687  0.00  0.00    +0.000 OA
ATOM     11  H   UNL     1       2.646   2.574  16.194  0.00  0.00    +0.000 HD
ENDBRANCH   1  10
BRANCH   1  12
ATOM     12  C   UNL     1       3.881   5.123  17.361  0.00  0.00    +0.000 C 
BRANCH  12  13
ATOM     13  N   UNL     1       5.156   5.163  16.658  0.00  0.00    +0.000 N 
ATOM     14  C   UNL     1       5.595   4.300  15.698  0.00  0.00    +0.000 A 
ATOM     15  C   UNL     1       6.881   4.707  15.424  0.00  0.00    +0.000 A 
ATOM     16  N   UNL     1       7.228   5.784  16.196  0.00  0.00    +0.000 NA
ATOM     17  C   UNL     1       6.168   6.041  16.927  0.00  0.00    +0.000 A 
ENDBRANCH  12  13
ENDBRANCH   1  12
TORSDOF 5
ENDMDL
MODEL 8
REMARK VINA RESULT:      -6.3      2.615      5.423
REMARK  Name = 
REMARK  5 active torsions:
REMARK  status: ('A' for Active; 'I' for Inactive)
REMARK    1  A    between atoms: O_1  and  C_2
REMARK    2  A    between atoms: C_7  and  C_8
REMARK    3  A    between atoms: C_8  and  O_9
REMARK    4  A    between atoms: C_8  and  C_10
REMARK    5  A    between atoms: C_10  and  N_11
REMARK                            x       y       z     vdW  Elec       q    Type
REMARK                         _______ _______ _______ _____ _____    ______ ____
ROOT
ATOM      1  C   UNL     1       5.449   4.739  19.060  0.00  0.00    +0.000 C 
ENDROOT
BRANCH   1   7
ATOM      2  C   UNL     1       7.073   4.512  17.060  0.00  0.00    +0.000 A 
ATOM      3  C   UNL     1       7.335   4.594  15.689  0.00  0.00    +0.000 A 
ATOM      4  C   UNL     1       6.336   5.014  14.815  0.00  0.00    +0.000 A 
ATOM      5  C   UNL     1       5.081   5.346  15.309  0.00  0.00    +0.000 A 
ATOM      6  C   UNL     1       4.826   5.269  16.681  0.00  0.00    +0.000 A 
ATOM      7  C   UNL     1       5.823   4.862  17.589  0.00  0.00    +0.000 A 
BRANCH   2   8
ATOM      8  O   UNL     1       8.052   4.042  17.887  0.00  0.00    +0.000 OA
ATOM      9  H   UNL     1       8.784   3.696  17.346  0.00  0.00    +0.000 HD
ENDBRANCH   2   8
ENDBRANCH   1   7
BRANCH   1  10
ATOM     10  O   UNL     1       6.528   5.293  19.820  0.00  0.00    +0.000 OA
ATOM     11  H   UNL     1       6.333   6.239  19.940  0.00  0.00    +0.000 HD
ENDBRANCH   1  10
BRANCH   1  12
ATOM     12  C   UNL     1       4.116   5.381  19.479  0.00  0.00    +0.000 C 
BRANCH  12  13
ATOM     13  N   UNL     1       3.151   4.412  19.978  0.00  0.00    +0.000 N 
ATOM     14  C   UNL     1       2.248   4.590  20.985  0.00  0.00    +0.000 A 
ATOM     15  C   UNL     1       1.645   3.362  21.135  0.00  0.00    +0.000 A 
ATOM     16  N   UNL     1       2.164   2.450  20.254  0.00  0.00    +0.000 NA
ATOM     17  C   UNL     1       3.067   3.111  19.566  0.00  0.00    +0.000 A 
ENDBRANCH  12  13
ENDBRANCH   1  12
TORSDOF 5
ENDMDL
MODEL 9
REMARK VINA RESULT:      -6.2      1.127      2.178
REMARK  Name = 
REMARK  5 active torsions:
REMARK  status: ('A' for Active; 'I' for Inactive)
REMARK    1  A    between atoms: O_1  and  C_2
REMARK    2  A    between atoms: C_7  and  C_8
REMARK    3  A    between atoms: C_8  and  O_9
REMARK    4  A    between atoms: C_8  and  C_10
REMARK    5  A    between atoms: C_10  and  N_11
REMARK                            x       y       z     vdW  Elec       q    Type
REMARK                         _______ _______ _______ _____ _____    ______ ____
ROOT
ATOM      1  C   UNL     1       4.365   3.431  18.346  0.00  0.00    +0.000 C 
ENDROOT
BRANCH   1   7
ATOM      2  C   UNL     1       1.833   3.307  18.856  0.00  0.00    +0.000 A 
ATOM      3  C   UNL     1       0.780   3.119  19.757  0.00  0.00    +0.000 A 
ATOM      4  C   UNL     1       1.050   2.892  21.103  0.00  0.00    +0.000 A 
ATOM      5  C   UNL     1       2.367   2.850  21.547  0.00  0.00    +0.000 A 
ATOM      6  C   UNL     1       3.415   3.047  20.643  0.00  0.00    +0.000 A 
ATOM      7  C   UNL     1       3.170   3.293  19.278  0.00  0.00    +0.000 A 
BRANCH   2   8
ATOM      8  O   UNL     1       1.542   3.469  17.533  0.00  0.00    +0.000 OA
ATOM      9  H   UNL     1       2.371   3.458  17.022  0.00  0.00    +0.000 HD
ENDBRANCH   2   8
ENDBRANCH   1   7
BRANCH   1  10
ATOM     10  O   UNL     1       4.294   2.356  17.403  0.00  0.00    +0.000 OA
ATOM     11  H   UNL     1       3.801   2.688  16.633  0.00  0.00    +0.000 HD
ENDBRANCH   1  10
BRANCH   1  12
ATOM     12  C   UNL     1       4.506   4.776  17.614  0.00  0.00    +0.000 C 
BRANCH  12  13
ATOM     13  N   UNL     1       5.631   4.804  16.690  0.00  0.00    +0.000 N 
ATOM     14  C   UNL     1       5.579   4.899  15.330  0.00  0.00    +0.000 A 
ATOM     15  C   UNL     1       6.889   4.789  14.922  0.00  0.00    +0.000 A 
ATOM     16  N   UNL     1       7.724   4.624  15.996  0.00  0.00    +0.000 NA
ATOM     17  C   UNL     1       6.939   4.641  17.049  0.00  0.00    +0.000 A 
ENDBRANCH  12  13
ENDBRANCH   1  12
TORSDOF 5
ENDMDL
