MODEL 1
REMARK VINA RESULT:      -5.9      0.000      0.000
REMARK  Name = 
REMARK  12 active torsions:
REMARK  status: ('A' for Active; 'I' for Inactive)
REMARK    1  A    between atoms: C_1  and  O_2
REMARK    2  A    between atoms: O_2  and  C_3
REMARK    3  A    between atoms: C_4  and  O_5
REMARK    4  A    between atoms: C_6  and  C_7
REMARK    5  A    between atoms: C_7  and  O_9
REMARK    6  A    between atoms: C_12  and  O_13
REMARK    7  A    between atoms: O_13  and  C_14
REMARK    8  A    between atoms: C_20  and  O_21
REMARK    9  A    between atoms: O_21  and  C_22
REMARK   10  A    between atoms: C_26  and  O_27
REMARK   11  A    between atoms: C_28  and  C_29
REMARK   12  A    between atoms: C_30  and  C_31
REMARK                            x       y       z     vdW  Elec       q    Type
REMARK                         _______ _______ _______ _____ _____    ______ ____
ROOT
ATOM      1  C   UNL     1      -3.678  14.622  20.624  0.00  0.00    +0.000 A 
ATOM      2  C   UNL     1      -4.928  14.042  20.360  0.00  0.00    +0.000 A 
ATOM      3  C   UNL     1      -5.076  12.692  20.000  0.00  0.00    +0.000 A 
ATOM      4  C   UNL     1      -3.900  11.925  19.757  0.00  0.00    +0.000 A 
ATOM      5  C   UNL     1      -2.609  12.496  20.026  0.00  0.00    +0.000 A 
ATOM      6  C   UNL     1      -2.512  13.864  20.414  0.00  0.00    +0.000 A 
ATOM      7  C   UNL     1      -1.398  11.615  20.042  0.00  0.00    +0.000 A 
ATOM      8  C   UNL     1      -0.952  10.934  18.854  0.00  0.00    +0.000 A 
ATOM      9  C   UNL     1       0.000   9.889  18.959  0.00  0.00    +0.000 A 
ATOM     10  C   UNL     1       0.527   9.586  20.192  0.00  0.00    +0.000 A 
ATOM     11  C   UNL     1       0.208  10.319  21.305  0.00  0.00    +0.000 A 
ATOM     12  C   UNL     1      -0.737  11.329  21.273  0.00  0.00    +0.000 A 
ATOM     13  O   UNL     1       0.875   9.876  22.413  0.00  0.00    +0.000 OA
ATOM     14  C   UNL     1       1.369   8.621  21.919  0.00  0.00    +0.000 C 
ATOM     15  O   UNL     1       1.382   8.565  20.476  0.00  0.00    +0.000 OA
ATOM     16  C   UNL     1      -1.460  11.240  17.443  0.00  0.00    +0.000 C 
ATOM     17  C   UNL     1      -2.591  10.312  16.940  0.00  0.00    +0.000 C 
ATOM     18  C   UNL     1      -2.639  10.349  15.398  0.00  0.00    +0.000 C 
ATOM     19  C   UNL     1      -3.997  10.562  17.547  0.00  0.00    +0.000 C 
ATOM     20  C   UNL     1      -4.763  11.750  16.935  0.00  0.00    +0.000 C 
ATOM     21  C   UNL     1      -3.997  10.548  19.103  0.00  0.00    +0.000 C 
ENDROOT
BRANCH   1  23
ATOM     22  C   UNL     1      -3.618  16.113  22.490  0.00  0.00    +0.000 C 
ATOM     23  O   UNL     1      -3.557  15.912  21.075  0.00  0.00    +0.000 OA
ENDBRANCH   1  23
BRANCH   2  24
ATOM     24  O   UNL     1      -6.057  14.840  20.384  0.00  0.00    +0.000 OA
ATOM     25  H   UNL     1      -5.856  15.587  19.788  0.00  0.00    +0.000 HD
ENDBRANCH   2  24
BRANCH   3  26
ATOM     26  C   UNL     1      -6.459  12.082  19.913  0.00  0.00    +0.000 C 
ATOM     27  O   UNL     1      -7.283  12.352  19.055  0.00  0.00    +0.000 OA
BRANCH  26  28
ATOM     28  O   UNL     1      -6.753  11.176  20.869  0.00  0.00    +0.000 OA
ATOM     29  H   UNL     1      -6.612  11.537  21.770  0.00  0.00    +0.000 HD
ENDBRANCH  26  28
ENDBRANCH   3  26
BRANCH   6  30
ATOM     30  O   UNL     1      -1.258  14.314  20.755  0.00  0.00    +0.000 OA
ATOM     31  C   UNL     1      -0.517  15.026  19.775  0.00  0.00    +0.000 C 
ENDBRANCH   6  30
BRANCH  12  32
ATOM     32  O   UNL     1      -0.864  12.024  22.446  0.00  0.00    +0.000 OA
ATOM     33  C   UNL     1      -1.930  11.652  23.304  0.00  0.00    +0.000 C 
ENDBRANCH  12  32
BRANCH  16  34
ATOM     34  O   UNL     1      -1.793  12.605  17.224  0.00  0.00    +0.000 OA
ATOM     35  H   UNL     1      -2.508  12.839  17.837  0.00  0.00    +0.000 HD
ENDBRANCH  16  34
TORSDOF 7
ENDMDL
MODEL 2
REMARK VINA RESULT:      -5.8      0.985      1.202
REMARK  Name = 
REMARK  12 active torsions:
REMARK  status: ('A' for Active; 'I' for Inactive)
REMARK    1  A    between atoms: C_1  and  O_2
REMARK    2  A    between atoms: O_2  and  C_3
REMARK    3  A    between atoms: C_4  and  O_5
REMARK    4  A    between atoms: C_6  and  C_7
REMARK    5  A    between atoms: C_7  and  O_9
REMARK    6  A    between atoms: C_12  and  O_13
REMARK    7  A    between atoms: O_13  and  C_14
REMARK    8  A    between atoms: C_20  and  O_21
REMARK    9  A    between atoms: O_21  and  C_22
REMARK   10  A    between atoms: C_26  and  O_27
REMARK   11  A    between atoms: C_28  and  C_29
REMARK   12  A    between atoms: C_30  and  C_31
REMARK                            x       y       z     vdW  Elec       q    Type
REMARK                         _______ _______ _______ _____ _____    ______ ____
ROOT
ATOM      1  C   UNL     1      -4.378  15.095  20.440  0.00  0.00    +0.000 A 
ATOM      2  C   UNL     1      -5.572  14.492  20.015  0.00  0.00    +0.000 A 
ATOM      3  C   UNL     1      -5.679  13.112  19.775  0.00  0.00    +0.000 A 
ATOM      4  C   UNL     1      -4.495  12.323  19.828  0.00  0.00    +0.000 A 
ATOM      5  C   UNL     1      -3.261  12.918  20.266  0.00  0.00    +0.000 A 
ATOM      6  C   UNL     1      -3.209  14.319  20.522  0.00  0.00    +0.000 A 
ATOM      7  C   UNL     1      -2.091  12.043  20.590  0.00  0.00    +0.000 A 
ATOM      8  C   UNL     1      -1.453  11.240  19.579  0.00  0.00    +0.000 A 
ATOM      9  C   UNL     1      -0.555  10.211  19.960  0.00  0.00    +0.000 A 
ATOM     10  C   UNL     1      -0.264  10.038  21.293  0.00  0.00    +0.000 A 
ATOM     11  C   UNL     1      -0.763  10.884  22.248  0.00  0.00    +0.000 A 
ATOM     12  C   UNL     1      -1.666  11.886  21.943  0.00  0.00    +0.000 A 
ATOM     13  O   UNL     1      -0.314  10.559  23.498  0.00  0.00    +0.000 OA
ATOM     14  C   UNL     1       0.236   9.259  23.233  0.00  0.00    +0.000 C 
ATOM     15  O   UNL     1       0.506   9.052  21.829  0.00  0.00    +0.000 OA
ATOM     16  C   UNL     1      -1.693  11.397  18.075  0.00  0.00    +0.000 C 
ATOM     17  C   UNL     1      -2.734  10.422  17.474  0.00  0.00    +0.000 C 
ATOM     18  C   UNL     1      -2.504  10.298  15.954  0.00  0.00    +0.000 C 
ATOM     19  C   UNL     1      -4.220  10.736  17.789  0.00  0.00    +0.000 C 
ATOM     20  C   UNL     1      -4.841  11.854  16.930  0.00  0.00    +0.000 C 
ATOM     21  C   UNL     1      -4.500  10.885  19.312  0.00  0.00    +0.000 C 
ENDROOT
BRANCH   1  23
ATOM     22  C   UNL     1      -4.609  16.772  22.126  0.00  0.00    +0.000 C 
ATOM     23  O   UNL     1      -4.315  16.426  20.769  0.00  0.00    +0.000 OA
ENDBRANCH   1  23
BRANCH   2  24
ATOM     24  O   UNL     1      -6.671  15.289  19.753  0.00  0.00    +0.000 OA
ATOM     25  H   UNL     1      -6.614  15.500  18.801  0.00  0.00    +0.000 HD
ENDBRANCH   2  24
BRANCH   3  26
ATOM     26  C   UNL     1      -7.036  12.498  19.503  0.00  0.00    +0.000 C 
ATOM     27  O   UNL     1      -7.586  11.682  20.224  0.00  0.00    +0.000 OA
BRANCH  26  28
ATOM     28  O   UNL     1      -7.646  12.917  18.374  0.00  0.00    +0.000 OA
ATOM     29  H   UNL     1      -8.466  13.419  18.566  0.00  0.00    +0.000 HD
ENDBRANCH  26  28
ENDBRANCH   3  26
BRANCH   6  30
ATOM     30  O   UNL     1      -2.027  14.801  21.035  0.00  0.00    +0.000 OA
ATOM     31  C   UNL     1      -1.124  15.436  20.143  0.00  0.00    +0.000 C 
ENDBRANCH   6  30
BRANCH  12  32
ATOM     32  O   UNL     1      -1.988  12.701  22.996  0.00  0.00    +0.000 OA
ATOM     33  C   UNL     1      -3.185  12.405  23.698  0.00  0.00    +0.000 C 
ENDBRANCH  12  32
BRANCH  16  34
ATOM     34  O   UNL     1      -1.954  12.733  17.660  0.00  0.00    +0.000 OA
ATOM     35  H   UNL     1      -2.532  13.143  18.324  0.00  0.00    +0.000 HD
ENDBRANCH  16  34
TORSDOF 7
ENDMDL
MODEL 3
REMARK VINA RESULT:      -5.5      9.202     12.168
REMARK  Name = 
REMARK  12 active torsions:
REMARK  status: ('A' for Active; 'I' for Inactive)
REMARK    1  A    between atoms: C_1  and  O_2
REMARK    2  A    between atoms: O_2  and  C_3
REMARK    3  A    between atoms: C_4  and  O_5
REMARK    4  A    between atoms: C_6  and  C_7
REMARK    5  A    between atoms: C_7  and  O_9
REMARK    6  A    between atoms: C_12  and  O_13
REMARK    7  A    between atoms: O_13  and  C_14
REMARK    8  A    between atoms: C_20  and  O_21
REMARK    9  A    between atoms: O_21  and  C_22
REMARK   10  A    between atoms: C_26  and  O_27
REMARK   11  A    between atoms: C_28  and  C_29
REMARK   12  A    between atoms: C_30  and  C_31
REMARK                            x       y       z     vdW  Elec       q    Type
REMARK                         _______ _______ _______ _____ _____    ______ ____
ROOT
ATOM      1  C   UNL     1       5.488  14.772  21.213  0.00  0.00    +0.000 A 
ATOM      2  C   UNL     1       6.056  14.267  22.393  0.00  0.00    +0.000 A 
ATOM      3  C   UNL     1       7.443  14.132  22.568  0.00  0.00    +0.000 A 
ATOM      4  C   UNL     1       8.292  14.382  21.453  0.00  0.00    +0.000 A 
ATOM      5  C   UNL     1       7.734  14.904  20.235  0.00  0.00    +0.000 A 
ATOM      6  C   UNL     1       6.322  15.048  20.115  0.00  0.00    +0.000 A 
ATOM      7  C   UNL     1       8.644  15.428  19.169  0.00  0.00    +0.000 A 
ATOM      8  C   UNL     1       9.570  14.565  18.482  0.00  0.00    +0.000 A 
ATOM      9  C   UNL     1      10.612  15.128  17.703  0.00  0.00    +0.000 A 
ATOM     10  C   UNL     1      10.681  16.494  17.568  0.00  0.00    +0.000 A 
ATOM     11  C   UNL     1       9.726  17.315  18.107  0.00  0.00    +0.000 A 
ATOM     12  C   UNL     1       8.703  16.828  18.902  0.00  0.00    +0.000 A 
ATOM     13  O   UNL     1       9.963  18.630  17.816  0.00  0.00    +0.000 OA
ATOM     14  C   UNL     1      11.312  18.536  17.332  0.00  0.00    +0.000 C 
ATOM     15  O   UNL     1      11.659  17.193  16.928  0.00  0.00    +0.000 OA
ATOM     16  C   UNL     1       9.534  13.036  18.550  0.00  0.00    +0.000 C 
ATOM     17  C   UNL     1      10.496  12.405  19.585  0.00  0.00    +0.000 C 
ATOM     18  C   UNL     1      10.770  10.935  19.203  0.00  0.00    +0.000 C 
ATOM     19  C   UNL     1      10.069  12.524  21.072  0.00  0.00    +0.000 C 
ATOM     20  C   UNL     1       8.998  11.512  21.520  0.00  0.00    +0.000 C 
ATOM     21  C   UNL     1       9.768  13.989  21.501  0.00  0.00    +0.000 C 
ENDROOT
BRANCH   1  23
ATOM     22  C   UNL     1       3.348  13.924  20.574  0.00  0.00    +0.000 C 
ATOM     23  O   UNL     1       4.140  14.995  21.095  0.00  0.00    +0.000 OA
ENDBRANCH   1  23
BRANCH   2  24
ATOM     24  O   UNL     1       5.223  13.819  23.401  0.00  0.00    +0.000 OA
ATOM     25  H   UNL     1       5.030  12.887  23.180  0.00  0.00    +0.000 HD
ENDBRANCH   2  24
BRANCH   3  26
ATOM     26  C   UNL     1       7.999  13.761  23.927  0.00  0.00    +0.000 C 
ATOM     27  O   UNL     1       7.904  12.658  24.438  0.00  0.00    +0.000 OA
BRANCH  26  28
ATOM     28  O   UNL     1       8.643  14.752  24.579  0.00  0.00    +0.000 OA
ATOM     29  H   UNL     1       8.780  15.537  24.008  0.00  0.00    +0.000 HD
ENDBRANCH  26  28
ENDBRANCH   3  26
BRANCH   6  30
ATOM     30  O   UNL     1       5.866  15.649  18.965  0.00  0.00    +0.000 OA
ATOM     31  C   UNL     1       5.492  14.812  17.880  0.00  0.00    +0.000 C 
ENDBRANCH   6  30
BRANCH  12  32
ATOM     32  O   UNL     1       7.781  17.768  19.278  0.00  0.00    +0.000 OA
ATOM     33  C   UNL     1       7.998  18.427  20.515  0.00  0.00    +0.000 C 
ENDBRANCH  12  32
BRANCH  16  34
ATOM     34  O   UNL     1       8.228  12.486  18.674  0.00  0.00    +0.000 OA
ATOM     35  H   UNL     1       8.313  11.603  19.069  0.00  0.00    +0.000 HD
ENDBRANCH  16  34
TORSDOF 7
ENDMDL
MODEL 4
REMARK VINA RESULT:      -5.5      2.439      5.620
REMARK  Name = 
REMARK  12 active torsions:
REMARK  status: ('A' for Active; 'I' for Inactive)
REMARK    1  A    between atoms: C_1  and  O_2
REMARK    2  A    between atoms: O_2  and  C_3
REMARK    3  A    between atoms: C_4  and  O_5
REMARK    4  A    between atoms: C_6  and  C_7
REMARK    5  A    between atoms: C_7  and  O_9
REMARK    6  A    between atoms: C_12  and  O_13
REMARK    7  A    between atoms: O_13  and  C_14
REMARK    8  A    between atoms: C_20  and  O_21
REMARK    9  A    between atoms: O_21  and  C_22
REMARK   10  A    between atoms: C_26  and  O_27
REMARK   11  A    between atoms: C_28  and  C_29
REMARK   12  A    between atoms: C_30  and  C_31
REMARK                            x       y       z     vdW  Elec       q    Type
REMARK                         _______ _______ _______ _____ _____    ______ ____
ROOT
ATOM      1  C   UNL     1      -0.922  14.701  23.336  0.00  0.00    +0.000 A 
ATOM      2  C   UNL     1      -0.307  15.848  22.812  0.00  0.00    +0.000 A 
ATOM      3  C   UNL     1      -0.147  16.058  21.432  0.00  0.00    +0.000 A 
ATOM      4  C   UNL     1      -0.495  15.001  20.543  0.00  0.00    +0.000 A 
ATOM      5  C   UNL     1      -1.131  13.819  21.056  0.00  0.00    +0.000 A 
ATOM      6  C   UNL     1      -1.294  13.663  22.463  0.00  0.00    +0.000 A 
ATOM      7  C   UNL     1      -1.746  12.838  20.108  0.00  0.00    +0.000 A 
ATOM      8  C   UNL     1      -0.944  12.107  19.161  0.00  0.00    +0.000 A 
ATOM      9  C   UNL     1      -1.571  11.420  18.091  0.00  0.00    +0.000 A 
ATOM     10  C   UNL     1      -2.944  11.415  18.012  0.00  0.00    +0.000 A 
ATOM     11  C   UNL     1      -3.716  11.994  18.984  0.00  0.00    +0.000 A 
ATOM     12  C   UNL     1      -3.164  12.704  20.035  0.00  0.00    +0.000 A 
ATOM     13  O   UNL     1      -5.051  11.836  18.733  0.00  0.00    +0.000 OA
ATOM     14  C   UNL     1      -4.994  11.392  17.368  0.00  0.00    +0.000 C 
ATOM     15  O   UNL     1      -3.693  10.877  17.010  0.00  0.00    +0.000 OA
ATOM     16  C   UNL     1       0.584  12.031  19.203  0.00  0.00    +0.000 C 
ATOM     17  C   UNL     1       1.314  13.036  18.280  0.00  0.00    +0.000 C 
ATOM     18  C   UNL     1       2.744  12.529  17.998  0.00  0.00    +0.000 C 
ATOM     19  C   UNL     1       1.331  14.511  18.760  0.00  0.00    +0.000 C 
ATOM     20  C   UNL     1       2.374  14.825  19.849  0.00  0.00    +0.000 C 
ATOM     21  C   UNL     1      -0.090  15.064  19.071  0.00  0.00    +0.000 C 
ENDROOT
BRANCH   1  23
ATOM     22  C   UNL     1      -2.388  15.103  25.179  0.00  0.00    +0.000 C 
ATOM     23  O   UNL     1      -1.164  14.557  24.679  0.00  0.00    +0.000 OA
ENDBRANCH   1  23
BRANCH   2  24
ATOM     24  O   UNL     1       0.228  16.780  23.682  0.00  0.00    +0.000 OA
ATOM     25  H   UNL     1       0.565  17.499  23.113  0.00  0.00    +0.000 HD
ENDBRANCH   2  24
BRANCH   3  26
ATOM     26  C   UNL     1       0.352  17.395  20.926  0.00  0.00    +0.000 C 
ATOM     27  O   UNL     1       1.489  17.811  21.070  0.00  0.00    +0.000 OA
BRANCH  26  28
ATOM     28  O   UNL     1      -0.561  18.142  20.269  0.00  0.00    +0.000 OA
ATOM     29  H   UNL     1      -1.380  17.637  20.082  0.00  0.00    +0.000 HD
ENDBRANCH  26  28
ENDBRANCH   3  26
BRANCH   6  30
ATOM     30  O   UNL     1      -2.002  12.558  22.877  0.00  0.00    +0.000 OA
ATOM     31  C   UNL     1      -1.283  11.356  23.112  0.00  0.00    +0.000 C 
ENDBRANCH   6  30
BRANCH  12  32
ATOM     32  O   UNL     1      -4.071  13.133  20.968  0.00  0.00    +0.000 OA
ATOM     33  C   UNL     1      -4.587  14.445  20.810  0.00  0.00    +0.000 C 
ENDBRANCH  12  32
BRANCH  16  34
ATOM     34  O   UNL     1       1.135  12.057  20.514  0.00  0.00    +0.000 OA
ATOM     35  H   UNL     1       0.483  12.469  21.103  0.00  0.00    +0.000 HD
ENDBRANCH  16  34
TORSDOF 7
ENDMDL
MODEL 5
REMARK VINA RESULT:      -5.3      2.261      5.644
REMARK  Name = 
REMARK  12 active torsions:
REMARK  status: ('A' for Active; 'I' for Inactive)
REMARK    1  A    between atoms: C_1  and  O_2
REMARK    2  A    between atoms: O_2  and  C_3
REMARK    3  A    between atoms: C_4  and  O_5
REMARK    4  A    between atoms: C_6  and  C_7
REMARK    5  A    between atoms: C_7  and  O_9
REMARK    6  A    between atoms: C_12  and  O_13
REMARK    7  A    between atoms: O_13  and  C_14
REMARK    8  A    between atoms: C_20  and  O_21
REMARK    9  A    between atoms: O_21  and  C_22
REMARK   10  A    between atoms: C_26  and  O_27
REMARK   11  A    between atoms: C_28  and  C_29
REMARK   12  A    between atoms: C_30  and  C_31
REMARK                            x       y       z     vdW  Elec       q    Type
REMARK                         _______ _______ _______ _____ _____    ______ ____
ROOT
ATOM      1  C   UNL     1      -0.781  14.479  23.173  0.00  0.00    +0.000 A 
ATOM      2  C   UNL     1       0.129  15.326  22.523  0.00  0.00    +0.000 A 
ATOM      3  C   UNL     1       0.309  15.318  21.129  0.00  0.00    +0.000 A 
ATOM      4  C   UNL     1      -0.354  14.313  20.369  0.00  0.00    +0.000 A 
ATOM      5  C   UNL     1      -1.296  13.437  21.012  0.00  0.00    +0.000 A 
ATOM      6  C   UNL     1      -1.462  13.502  22.426  0.00  0.00    +0.000 A 
ATOM      7  C   UNL     1      -2.194  12.576  20.180  0.00  0.00    +0.000 A 
ATOM      8  C   UNL     1      -1.665  11.537  19.336  0.00  0.00    +0.000 A 
ATOM      9  C   UNL     1      -2.491  10.944  18.348  0.00  0.00    +0.000 A 
ATOM     10  C   UNL     1      -3.807  11.333  18.256  0.00  0.00    +0.000 A 
ATOM     11  C   UNL     1      -4.352  12.222  19.144  0.00  0.00    +0.000 A 
ATOM     12  C   UNL     1      -3.591  12.857  20.109  0.00  0.00    +0.000 A 
ATOM     13  O   UNL     1      -5.681  12.434  18.899  0.00  0.00    +0.000 OA
ATOM     14  C   UNL     1      -5.790  11.836  17.597  0.00  0.00    +0.000 C 
ATOM     15  O   UNL     1      -4.705  10.925  17.317  0.00  0.00    +0.000 OA
ATOM     16  C   UNL     1      -0.225  11.021  19.403  0.00  0.00    +0.000 C 
ATOM     17  C   UNL     1       0.744  11.653  18.375  0.00  0.00    +0.000 C 
ATOM     18  C   UNL     1       1.956  10.720  18.170  0.00  0.00    +0.000 C 
ATOM     19  C   UNL     1       1.203  13.105  18.675  0.00  0.00    +0.000 C 
ATOM     20  C   UNL     1       2.319  13.224  19.730  0.00  0.00    +0.000 C 
ATOM     21  C   UNL     1       0.014  14.082  18.904  0.00  0.00    +0.000 C 
ENDROOT
BRANCH   1  23
ATOM     22  C   UNL     1      -2.047  15.476  24.936  0.00  0.00    +0.000 C 
ATOM     23  O   UNL     1      -1.021  14.570  24.521  0.00  0.00    +0.000 OA
ENDBRANCH   1  23
BRANCH   2  24
ATOM     24  O   UNL     1       0.935  16.155  23.281  0.00  0.00    +0.000 OA
ATOM     25  H   UNL     1       0.319  16.705  23.803  0.00  0.00    +0.000 HD
ENDBRANCH   2  24
BRANCH   3  26
ATOM     26  C   UNL     1       1.164  16.381  20.473  0.00  0.00    +0.000 C 
ATOM     27  O   UNL     1       0.750  17.216  19.687  0.00  0.00    +0.000 OA
BRANCH  26  28
ATOM     28  O   UNL     1       2.469  16.369  20.818  0.00  0.00    +0.000 OA
ATOM     29  H   UNL     1       3.042  16.094  20.071  0.00  0.00    +0.000 HD
ENDBRANCH  26  28
ENDBRANCH   3  26
BRANCH   6  30
ATOM     30  O   UNL     1      -2.451  12.709  22.960  0.00  0.00    +0.000 OA
ATOM     31  C   UNL     1      -2.092  11.413  23.417  0.00  0.00    +0.000 C 
ENDBRANCH   6  30
BRANCH  12  32
ATOM     32  O   UNL     1      -4.309  13.638  20.975  0.00  0.00    +0.000 OA
ATOM     33  C   UNL     1      -4.396  15.022  20.673  0.00  0.00    +0.000 C 
ENDBRANCH  12  32
BRANCH  16  34
ATOM     34  O   UNL     1       0.343  11.038  20.707  0.00  0.00    +0.000 OA
ATOM     35  H   UNL     1       0.087  11.873  21.132  0.00  0.00    +0.000 HD
ENDBRANCH  16  34
TORSDOF 7
ENDMDL
MODEL 6
REMARK VINA RESULT:      -5.2      2.373      5.540
REMARK  Name = 
REMARK  12 active torsions:
REMARK  status: ('A' for Active; 'I' for Inactive)
REMARK    1  A    between atoms: C_1  and  O_2
REMARK    2  A    between atoms: O_2  and  C_3
REMARK    3  A    between atoms: C_4  and  O_5
REMARK    4  A    between atoms: C_6  and  C_7
REMARK    5  A    between atoms: C_7  and  O_9
REMARK    6  A    between atoms: C_12  and  O_13
REMARK    7  A    between atoms: O_13  and  C_14
REMARK    8  A    between atoms: C_20  and  O_21
REMARK    9  A    between atoms: O_21  and  C_22
REMARK   10  A    between atoms: C_26  and  O_27
REMARK   11  A    between atoms: C_28  and  C_29
REMARK   12  A    between atoms: C_30  and  C_31
REMARK                            x       y       z     vdW  Elec       q    Type
REMARK                         _______ _______ _______ _____ _____    ______ ____
ROOT
ATOM      1  C   UNL     1      -4.337  12.649  19.658  0.00  0.00    +0.000 A 
ATOM      2  C   UNL     1      -3.379  11.766  19.137  0.00  0.00    +0.000 A 
ATOM      3  C   UNL     1      -2.031  11.794  19.531  0.00  0.00    +0.000 A 
ATOM      4  C   UNL     1      -1.598  12.849  20.383  0.00  0.00    +0.000 A 
ATOM      5  C   UNL     1      -2.562  13.762  20.934  0.00  0.00    +0.000 A 
ATOM      6  C   UNL     1      -3.924  13.678  20.523  0.00  0.00    +0.000 A 
ATOM      7  C   UNL     1      -2.159  14.689  22.038  0.00  0.00    +0.000 A 
ATOM      8  C   UNL     1      -1.169  15.714  21.832  0.00  0.00    +0.000 A 
ATOM      9  C   UNL     1      -0.595  16.373  22.949  0.00  0.00    +0.000 A 
ATOM     10  C   UNL     1      -1.041  16.059  24.211  0.00  0.00    +0.000 A 
ATOM     11  C   UNL     1      -2.076  15.183  24.406  0.00  0.00    +0.000 A 
ATOM     12  C   UNL     1      -2.656  14.487  23.360  0.00  0.00    +0.000 A 
ATOM     13  O   UNL     1      -2.386  15.051  25.731  0.00  0.00    +0.000 OA
ATOM     14  C   UNL     1      -1.236  15.680  26.318  0.00  0.00    +0.000 C 
ATOM     15  O   UNL     1      -0.541  16.535  25.385  0.00  0.00    +0.000 OA
ATOM     16  C   UNL     1      -0.650  16.148  20.458  0.00  0.00    +0.000 C 
ATOM     17  C   UNL     1       0.678  15.485  20.022  0.00  0.00    +0.000 C 
ATOM     18  C   UNL     1       1.356  16.353  18.943  0.00  0.00    +0.000 C 
ATOM     19  C   UNL     1       0.583  14.004  19.568  0.00  0.00    +0.000 C 
ATOM     20  C   UNL     1       0.065  13.801  18.132  0.00  0.00    +0.000 C 
ATOM     21  C   UNL     1      -0.107  13.090  20.621  0.00  0.00    +0.000 C 
ENDROOT
BRANCH   1  23
ATOM     22  C   UNL     1      -6.467  11.698  20.175  0.00  0.00    +0.000 C 
ATOM     23  O   UNL     1      -5.669  12.543  19.342  0.00  0.00    +0.000 OA
ENDBRANCH   1  23
BRANCH   2  24
ATOM     24  O   UNL     1      -3.752  10.878  18.145  0.00  0.00    +0.000 OA
ATOM     25  H   UNL     1      -4.573  11.246  17.765  0.00  0.00    +0.000 HD
ENDBRANCH   2  24
BRANCH   3  26
ATOM     26  C   UNL     1      -1.090  10.698  19.076  0.00  0.00    +0.000 C 
ATOM     27  O   UNL     1      -0.547   9.897  19.818  0.00  0.00    +0.000 OA
BRANCH  26  28
ATOM     28  O   UNL     1      -0.871  10.639  17.745  0.00  0.00    +0.000 OA
ATOM     29  H   UNL     1      -1.708  10.560  17.240  0.00  0.00    +0.000 HD
ENDBRANCH  26  28
ENDBRANCH   3  26
BRANCH   6  30
ATOM     30  O   UNL     1      -4.808  14.512  21.166  0.00  0.00    +0.000 OA
ATOM     31  C   UNL     1      -5.194  15.709  20.505  0.00  0.00    +0.000 C 
ENDBRANCH   6  30
BRANCH  12  32
ATOM     32  O   UNL     1      -3.739  13.729  23.715  0.00  0.00    +0.000 OA
ATOM     33  C   UNL     1      -3.506  12.356  23.984  0.00  0.00    +0.000 C 
ENDBRANCH  12  32
BRANCH  16  34
ATOM     34  O   UNL     1      -1.617  16.072  19.417  0.00  0.00    +0.000 OA
ATOM     35  H   UNL     1      -1.142  16.056  18.571  0.00  0.00    +0.000 HD
ENDBRANCH  16  34
TORSDOF 7
ENDMDL
MODEL 7
REMARK VINA RESULT:      -5.2      2.741      6.050
REMARK  Name = 
REMARK  12 active torsions:
REMARK  status: ('A' for Active; 'I' for Inactive)
REMARK    1  A    between atoms: C_1  and  O_2
REMARK    2  A    between atoms: O_2  and  C_3
REMARK    3  A    between atoms: C_4  and  O_5
REMARK    4  A    between atoms: C_6  and  C_7
REMARK    5  A    between atoms: C_7  and  O_9
REMARK    6  A    between atoms: C_12  and  O_13
REMARK    7  A    between atoms: O_13  and  C_14
REMARK    8  A    between atoms: C_20  and  O_21
REMARK    9  A    between atoms: O_21  and  C_22
REMARK   10  A    between atoms: C_26  and  O_27
REMARK   11  A    between atoms: C_28  and  C_29
REMARK   12  A    between atoms: C_30  and  C_31
REMARK                            x       y       z     vdW  Elec       q    Type
REMARK                         _______ _______ _______ _____ _____    ______ ____
ROOT
ATOM      1  C   UNL     1      -0.405  16.256  20.609  0.00  0.00    +0.000 A 
ATOM      2  C   UNL     1       0.024  15.418  19.570  0.00  0.00    +0.000 A 
ATOM      3  C   UNL     1      -0.494  14.126  19.376  0.00  0.00    +0.000 A 
ATOM      4  C   UNL     1      -1.382  13.601  20.358  0.00  0.00    +0.000 A 
ATOM      5  C   UNL     1      -1.840  14.443  21.429  0.00  0.00    +0.000 A 
ATOM      6  C   UNL     1      -1.303  15.756  21.568  0.00  0.00    +0.000 A 
ATOM      7  C   UNL     1      -2.976  13.992  22.292  0.00  0.00    +0.000 A 
ATOM      8  C   UNL     1      -2.863  12.828  23.133  0.00  0.00    +0.000 A 
ATOM      9  C   UNL     1      -4.028  12.256  23.703  0.00  0.00    +0.000 A 
ATOM     10  C   UNL     1      -5.243  12.862  23.490  0.00  0.00    +0.000 A 
ATOM     11  C   UNL     1      -5.341  14.044  22.804  0.00  0.00    +0.000 A 
ATOM     12  C   UNL     1      -4.246  14.635  22.199  0.00  0.00    +0.000 A 
ATOM     13  O   UNL     1      -6.631  14.493  22.748  0.00  0.00    +0.000 OA
ATOM     14  C   UNL     1      -7.323  13.312  23.184  0.00  0.00    +0.000 C 
ATOM     15  O   UNL     1      -6.458  12.399  23.894  0.00  0.00    +0.000 OA
ATOM     16  C   UNL     1      -1.543  12.119  23.450  0.00  0.00    +0.000 C 
ATOM     17  C   UNL     1      -1.234  10.888  22.565  0.00  0.00    +0.000 C 
ATOM     18  C   UNL     1      -0.221   9.977  23.289  0.00  0.00    +0.000 C 
ATOM     19  C   UNL     1      -0.773  11.191  21.115  0.00  0.00    +0.000 C 
ATOM     20  C   UNL     1       0.705  11.601  20.979  0.00  0.00    +0.000 C 
ATOM     21  C   UNL     1      -1.757  12.119  20.347  0.00  0.00    +0.000 C 
ENDROOT
BRANCH   1  23
ATOM     22  C   UNL     1       1.220  17.767  21.495  0.00  0.00    +0.000 C 
ATOM     23  O   UNL     1       0.034  17.551  20.724  0.00  0.00    +0.000 OA
ENDBRANCH   1  23
BRANCH   2  24
ATOM     24  O   UNL     1       1.046  15.843  18.741  0.00  0.00    +0.000 OA
ATOM     25  H   UNL     1       0.630  15.978  17.868  0.00  0.00    +0.000 HD
ENDBRANCH   2  24
BRANCH   3  26
ATOM     26  C   UNL     1      -0.129  13.346  18.131  0.00  0.00    +0.000 C 
ATOM     27  O   UNL     1       1.005  13.019  17.824  0.00  0.00    +0.000 OA
BRANCH  26  28
ATOM     28  O   UNL     1      -1.166  13.006  17.336  0.00  0.00    +0.000 OA
ATOM     29  H   UNL     1      -0.865  12.610  16.491  0.00  0.00    +0.000 HD
ENDBRANCH  26  28
ENDBRANCH   3  26
BRANCH   6  30
ATOM     30  O   UNL     1      -1.861  16.541  22.550  0.00  0.00    +0.000 OA
ATOM     31  C   UNL     1      -1.286  16.491  23.848  0.00  0.00    +0.000 C 
ENDBRANCH   6  30
BRANCH  12  32
ATOM     32  O   UNL     1      -4.499  15.859  21.640  0.00  0.00    +0.000 OA
ATOM     33  C   UNL     1      -4.972  15.873  20.302  0.00  0.00    +0.000 C 
ENDBRANCH  12  32
BRANCH  16  34
ATOM     34  O   UNL     1      -0.417  12.985  23.521  0.00  0.00    +0.000 OA
ATOM     35  H   UNL     1      -0.344  13.450  22.673  0.00  0.00    +0.000 HD
ENDBRANCH  16  34
TORSDOF 7
ENDMDL
MODEL 8
REMARK VINA RESULT:      -5.0      2.228      6.106
REMARK  Name = 
REMARK  12 active torsions:
REMARK  status: ('A' for Active; 'I' for Inactive)
REMARK    1  A    between atoms: C_1  and  O_2
REMARK    2  A    between atoms: O_2  and  C_3
REMARK    3  A    between atoms: C_4  and  O_5
REMARK    4  A    between atoms: C_6  and  C_7
REMARK    5  A    between atoms: C_7  and  O_9
REMARK    6  A    between atoms: C_12  and  O_13
REMARK    7  A    between atoms: O_13  and  C_14
REMARK    8  A    between atoms: C_20  and  O_21
REMARK    9  A    between atoms: O_21  and  C_22
REMARK   10  A    between atoms: C_26  and  O_27
REMARK   11  A    between atoms: C_28  and  C_29
REMARK   12  A    between atoms: C_30  and  C_31
REMARK                            x       y       z     vdW  Elec       q    Type
REMARK                         _______ _______ _______ _____ _____    ______ ____
ROOT
ATOM      1  C   UNL     1      -2.654  11.822  19.672  0.00  0.00    +0.000 A 
ATOM      2  C   UNL     1      -3.843  11.894  18.930  0.00  0.00    +0.000 A 
ATOM      3  C   UNL     1      -4.864  12.813  19.225  0.00  0.00    +0.000 A 
ATOM      4  C   UNL     1      -4.745  13.600  20.406  0.00  0.00    +0.000 A 
ATOM      5  C   UNL     1      -3.535  13.546  21.179  0.00  0.00    +0.000 A 
ATOM      6  C   UNL     1      -2.515  12.615  20.825  0.00  0.00    +0.000 A 
ATOM      7  C   UNL     1      -3.294  14.565  22.249  0.00  0.00    +0.000 A 
ATOM      8  C   UNL     1      -4.141  14.646  23.411  0.00  0.00    +0.000 A 
ATOM      9  C   UNL     1      -4.078  15.788  24.248  0.00  0.00    +0.000 A 
ATOM     10  C   UNL     1      -3.163  16.774  23.967  0.00  0.00    +0.000 A 
ATOM     11  C   UNL     1      -2.263  16.641  22.943  0.00  0.00    +0.000 A 
ATOM     12  C   UNL     1      -2.293  15.566  22.073  0.00  0.00    +0.000 A 
ATOM     13  O   UNL     1      -1.418  17.714  22.868  0.00  0.00    +0.000 OA
ATOM     14  C   UNL     1      -2.105  18.631  23.734  0.00  0.00    +0.000 C 
ATOM     15  O   UNL     1      -3.032  17.963  24.617  0.00  0.00    +0.000 OA
ATOM     16  C   UNL     1      -5.156  13.573  23.814  0.00  0.00    +0.000 C 
ATOM     17  C   UNL     1      -6.610  13.845  23.359  0.00  0.00    +0.000 C 
ATOM     18  C   UNL     1      -7.584  13.037  24.240  0.00  0.00    +0.000 C 
ATOM     19  C   UNL     1      -6.904  13.621  21.852  0.00  0.00    +0.000 C 
ATOM     20  C   UNL     1      -7.103  12.149  21.445  0.00  0.00    +0.000 C 
ATOM     21  C   UNL     1      -5.937  14.406  20.921  0.00  0.00    +0.000 C 
ENDROOT
BRANCH   1  23
ATOM     22  C   UNL     1      -0.639  11.530  18.422  0.00  0.00    +0.000 C 
ATOM     23  O   UNL     1      -1.623  10.992  19.311  0.00  0.00    +0.000 OA
ENDBRANCH   1  23
BRANCH   2  24
ATOM     24  O   UNL     1      -4.056  10.983  17.912  0.00  0.00    +0.000 OA
ATOM     25  H   UNL     1      -4.724  11.397  17.332  0.00  0.00    +0.000 HD
ENDBRANCH   2  24
BRANCH   3  26
ATOM     26  C   UNL     1      -6.034  12.969  18.276  0.00  0.00    +0.000 C 
ATOM     27  O   UNL     1      -6.789  12.068  17.952  0.00  0.00    +0.000 OA
BRANCH  26  28
ATOM     28  O   UNL     1      -6.220  14.212  17.785  0.00  0.00    +0.000 OA
ATOM     29  H   UNL     1      -5.819  14.318  16.896  0.00  0.00    +0.000 HD
ENDBRANCH  26  28
ENDBRANCH   3  26
BRANCH   6  30
ATOM     30  O   UNL     1      -1.345  12.691  21.543  0.00  0.00    +0.000 OA
ATOM     31  C   UNL     1      -1.163  11.779  22.617  0.00  0.00    +0.000 C 
ENDBRANCH   6  30
BRANCH  12  32
ATOM     32  O   UNL     1      -1.264  15.538  21.169  0.00  0.00    +0.000 OA
ATOM     33  C   UNL     1      -1.444  16.266  19.965  0.00  0.00    +0.000 C 
ENDBRANCH  12  32
BRANCH  16  34
ATOM     34  O   UNL     1      -4.765  12.245  23.486  0.00  0.00    +0.000 OA
ATOM     35  H   UNL     1      -3.817  12.257  23.278  0.00  0.00    +0.000 HD
ENDBRANCH  16  34
TORSDOF 7
ENDMDL
MODEL 9
REMARK VINA RESULT:      -5.0      2.202      5.141
REMARK  Name = 
REMARK  12 active torsions:
REMARK  status: ('A' for Active; 'I' for Inactive)
REMARK    1  A    between atoms: C_1  and  O_2
REMARK    2  A    between atoms: O_2  and  C_3
REMARK    3  A    between atoms: C_4  and  O_5
REMARK    4  A    between atoms: C_6  and  C_7
REMARK    5  A    between atoms: C_7  and  O_9
REMARK    6  A    between atoms: C_12  and  O_13
REMARK    7  A    between atoms: O_13  and  C_14
REMARK    8  A    between atoms: C_20  and  O_21
REMARK    9  A    between atoms: O_21  and  C_22
REMARK   10  A    between atoms: C_26  and  O_27
REMARK   11  A    between atoms: C_28  and  C_29
REMARK   12  A    between atoms: C_30  and  C_31
REMARK                            x       y       z     vdW  Elec       q    Type
REMARK                         _______ _______ _______ _____ _____    ______ ____
ROOT
ATOM      1  C   UNL     1      -3.048  15.098  22.716  0.00  0.00    +0.000 A 
ATOM      2  C   UNL     1      -2.628  16.325  22.181  0.00  0.00    +0.000 A 
ATOM      3  C   UNL     1      -1.940  16.422  20.960  0.00  0.00    +0.000 A 
ATOM      4  C   UNL     1      -1.533  15.218  20.316  0.00  0.00    +0.000 A 
ATOM      5  C   UNL     1      -1.956  13.950  20.844  0.00  0.00    +0.000 A 
ATOM      6  C   UNL     1      -2.675  13.904  22.073  0.00  0.00    +0.000 A 
ATOM      7  C   UNL     1      -1.771  12.709  20.026  0.00  0.00    +0.000 A 
ATOM      8  C   UNL     1      -0.459  12.230  19.678  0.00  0.00    +0.000 A 
ATOM      9  C   UNL     1      -0.315  11.242  18.671  0.00  0.00    +0.000 A 
ATOM     10  C   UNL     1      -1.441  10.715  18.087  0.00  0.00    +0.000 A 
ATOM     11  C   UNL     1      -2.696  11.068  18.508  0.00  0.00    +0.000 A 
ATOM     12  C   UNL     1      -2.902  12.047  19.464  0.00  0.00    +0.000 A 
ATOM     13  O   UNL     1      -3.669  10.393  17.825  0.00  0.00    +0.000 OA
ATOM     14  C   UNL     1      -2.886   9.852  16.749  0.00  0.00    +0.000 C 
ATOM     15  O   UNL     1      -1.475   9.826  17.056  0.00  0.00    +0.000 OA
ATOM     16  C   UNL     1       0.840  12.738  20.310  0.00  0.00    +0.000 C 
ATOM     17  C   UNL     1       1.577  13.833  19.501  0.00  0.00    +0.000 C 
ATOM     18  C   UNL     1       3.061  13.870  19.920  0.00  0.00    +0.000 C 
ATOM     19  C   UNL     1       0.949  15.251  19.546  0.00  0.00    +0.000 C 
ATOM     20  C   UNL     1       1.258  16.054  20.823  0.00  0.00    +0.000 C 
ATOM     21  C   UNL     1      -0.554  15.262  19.144  0.00  0.00    +0.000 C 
ENDROOT
BRANCH   1  23
ATOM     22  C   UNL     1      -3.105  14.970  25.101  0.00  0.00    +0.000 C 
ATOM     23  O   UNL     1      -3.808  15.027  23.857  0.00  0.00    +0.000 OA
ENDBRANCH   1  23
BRANCH   2  24
ATOM     24  O   UNL     1      -2.832  17.481  22.911  0.00  0.00    +0.000 OA
ATOM     25  H   UNL     1      -3.548  17.267  23.539  0.00  0.00    +0.000 HD
ENDBRANCH   2  24
BRANCH   3  26
ATOM     26  C   UNL     1      -1.682  17.782  20.347  0.00  0.00    +0.000 C 
ATOM     27  O   UNL     1      -0.924  18.619  20.808  0.00  0.00    +0.000 OA
BRANCH  26  28
ATOM     28  O   UNL     1      -2.354  18.040  19.205  0.00  0.00    +0.000 OA
ATOM     29  H   UNL     1      -2.617  18.982  19.140  0.00  0.00    +0.000 HD
ENDBRANCH  26  28
ENDBRANCH   3  26
BRANCH   6  30
ATOM     30  O   UNL     1      -3.137  12.670  22.464  0.00  0.00    +0.000 OA
ATOM     31  C   UNL     1      -2.296  11.874  23.287  0.00  0.00    +0.000 C 
ENDBRANCH   6  30
BRANCH  12  32
ATOM     32  O   UNL     1      -4.209  12.207  19.839  0.00  0.00    +0.000 OA
ATOM     33  C   UNL     1      -5.018  13.039  19.023  0.00  0.00    +0.000 C 
ENDBRANCH  12  32
BRANCH  16  34
ATOM     34  O   UNL     1       0.717  13.118  21.675  0.00  0.00    +0.000 OA
ATOM     35  H   UNL     1       1.448  13.721  21.884  0.00  0.00    +0.000 HD
ENDBRANCH  16  34
TORSDOF 7
ENDMDL
