MODEL 1
REMARK VINA RESULT:      -7.8      0.000      0.000
REMARK  Name = 
REMARK  8 active torsions:
REMARK  status: ('A' for Active; 'I' for Inactive)
REMARK    1  A    between atoms: C_1  and  S_2
REMARK    2  A    between atoms: S_2  and  C_3
REMARK    3  A    between atoms: C_3  and  C_4
REMARK    4  A    between atoms: C_4  and  C_5
REMARK    5  A    between atoms: C_5  and  C_6
REMARK    6  A    between atoms: C_5  and  N_15
REMARK    7  A    between atoms: C_6  and  O_8
REMARK    8  A    between atoms: O_8  and  C_9
REMARK                            x       y       z     vdW  Elec       q    Type
REMARK                         _______ _______ _______ _____ _____    ______ ____
ROOT
ATOM      1  C   UNL     1       6.396   5.725  17.685  0.00  0.00    +0.000 C 
ENDROOT
BRANCH   1   2
ATOM      2  N   UNL     1       5.121   5.055  17.995  0.00  0.00    +0.000 N 
ATOM      3  C   UNL     1       5.020   3.973  18.832  0.00  0.00    +0.000 C 
ATOM      4  O   UNL     1       5.897   3.393  19.450  0.00  0.00    +0.000 OA
ATOM      5  C   UNL     1       3.601   3.609  18.882  0.00  0.00    +0.000 A 
ATOM      6  C   UNL     1       2.942   2.568  19.510  0.00  0.00    +0.000 A 
ATOM      7  C   UNL     1       1.550   2.495  19.347  0.00  0.00    +0.000 A 
ATOM      8  C   UNL     1       0.859   3.448  18.569  0.00  0.00    +0.000 A 
ATOM      9  C   UNL     1       1.544   4.493  17.951  0.00  0.00    +0.000 A 
ATOM     10  C   UNL     1       2.915   4.546  18.137  0.00  0.00    +0.000 A 
ATOM     11  C   UNL     1       3.885   5.511  17.642  0.00  0.00    +0.000 C 
ATOM     12  O   UNL     1       3.561   6.519  17.040  0.00  0.00    +0.000 OA
ENDBRANCH   1   2
BRANCH   1  13
ATOM     13  C   UNL     1       7.098   4.948  16.574  0.00  0.00    +0.000 C 
ATOM     14  O   UNL     1       8.042   4.184  16.750  0.00  0.00    +0.000 OA
BRANCH  13  15
ATOM     15  O   UNL     1       6.561   5.216  15.353  0.00  0.00    +0.000 OA
BRANCH  15  16
ATOM     16  C   UNL     1       6.954   4.338  14.307  0.00  0.00    +0.000 C 
ATOM     17  C   UNL     1       5.752   3.794  13.575  0.00  0.00    +0.000 C 
ATOM     18  C   UNL     1       6.323   3.482  12.217  0.00  0.00    +0.000 C 
ATOM     19  O   UNL     1       7.328   4.471  11.985  0.00  0.00    +0.000 OA
ATOM     20  C   UNL     1       7.703   5.022  13.183  0.00  0.00    +0.000 C 
ATOM     21  O   UNL     1       8.546   5.898  13.300  0.00  0.00    +0.000 OA
ENDBRANCH  15  16
ENDBRANCH  13  15
ENDBRANCH   1  13
BRANCH   1  22
ATOM     22  C   UNL     1       7.326   5.847  18.908  0.00  0.00    +0.000 C 
BRANCH  22  23
ATOM     23  C   UNL     1       8.265   7.057  18.893  0.00  0.00    +0.000 C 
BRANCH  23  25
ATOM     24  C   UNL     1       8.653   9.721  18.319  0.00  0.00    +0.000 C 
ATOM     25  S   UNL     1       7.735   8.300  17.677  0.00  0.00    +0.000 S 
ENDBRANCH  23  25
ENDBRANCH  22  23
ENDBRANCH   1  22
TORSDOF 7
ENDMDL
MODEL 2
REMARK VINA RESULT:      -7.7      1.219      1.263
REMARK  Name = 
REMARK  8 active torsions:
REMARK  status: ('A' for Active; 'I' for Inactive)
REMARK    1  A    between atoms: C_1  and  S_2
REMARK    2  A    between atoms: S_2  and  C_3
REMARK    3  A    between atoms: C_3  and  C_4
REMARK    4  A    between atoms: C_4  and  C_5
REMARK    5  A    between atoms: C_5  and  C_6
REMARK    6  A    between atoms: C_5  and  N_15
REMARK    7  A    between atoms: C_6  and  O_8
REMARK    8  A    between atoms: O_8  and  C_9
REMARK                            x       y       z     vdW  Elec       q    Type
REMARK                         _______ _______ _______ _____ _____    ______ ____
ROOT
ATOM      1  C   UNL     1       6.388   6.578  17.102  0.00  0.00    +0.000 C 
ENDROOT
BRANCH   1   2
ATOM      2  N   UNL     1       5.290   6.018  17.909  0.00  0.00    +0.000 N 
ATOM      3  C   UNL     1       5.457   4.996  18.808  0.00  0.00    +0.000 C 
ATOM      4  O   UNL     1       6.474   4.391  19.106  0.00  0.00    +0.000 OA
ATOM      5  C   UNL     1       4.142   4.737  19.402  0.00  0.00    +0.000 A 
ATOM      6  C   UNL     1       3.717   3.782  20.308  0.00  0.00    +0.000 A 
ATOM      7  C   UNL     1       2.362   3.799  20.671  0.00  0.00    +0.000 A 
ATOM      8  C   UNL     1       1.475   4.752  20.127  0.00  0.00    +0.000 A 
ATOM      9  C   UNL     1       1.929   5.709  19.221  0.00  0.00    +0.000 A 
ATOM     10  C   UNL     1       3.272   5.676  18.888  0.00  0.00    +0.000 A 
ATOM     11  C   UNL     1       4.032   6.539  17.998  0.00  0.00    +0.000 C 
ATOM     12  O   UNL     1       3.554   7.532  17.478  0.00  0.00    +0.000 OA
ENDBRANCH   1   2
BRANCH   1  13
ATOM     13  C   UNL     1       6.946   5.475  16.206  0.00  0.00    +0.000 C 
ATOM     14  O   UNL     1       7.892   4.751  16.500  0.00  0.00    +0.000 OA
BRANCH  13  15
ATOM     15  O   UNL     1       6.275   5.398  15.024  0.00  0.00    +0.000 OA
BRANCH  15  16
ATOM     16  C   UNL     1       6.751   4.414  14.115  0.00  0.00    +0.000 C 
ATOM     17  C   UNL     1       5.612   3.794  13.344  0.00  0.00    +0.000 C 
ATOM     18  C   UNL     1       6.296   3.338  12.081  0.00  0.00    +0.000 C 
ATOM     19  O   UNL     1       7.326   4.299  11.834  0.00  0.00    +0.000 OA
ATOM     20  C   UNL     1       7.599   4.976  12.994  0.00  0.00    +0.000 C 
ATOM     21  O   UNL     1       8.436   5.860  13.090  0.00  0.00    +0.000 OA
ENDBRANCH  15  16
ENDBRANCH  13  15
ENDBRANCH   1  13
BRANCH   1  22
ATOM     22  C   UNL     1       7.520   7.179  17.959  0.00  0.00    +0.000 C 
BRANCH  22  23
ATOM     23  C   UNL     1       7.869   8.636  17.644  0.00  0.00    +0.000 C 
BRANCH  23  25
ATOM     24  C   UNL     1       9.154  11.005  18.207  0.00  0.00    +0.000 C 
ATOM     25  S   UNL     1       8.881   9.381  18.958  0.00  0.00    +0.000 S 
ENDBRANCH  23  25
ENDBRANCH  22  23
ENDBRANCH   1  22
TORSDOF 7
ENDMDL
MODEL 3
REMARK VINA RESULT:      -7.6      1.232      2.148
REMARK  Name = 
REMARK  8 active torsions:
REMARK  status: ('A' for Active; 'I' for Inactive)
REMARK    1  A    between atoms: C_1  and  S_2
REMARK    2  A    between atoms: S_2  and  C_3
REMARK    3  A    between atoms: C_3  and  C_4
REMARK    4  A    between atoms: C_4  and  C_5
REMARK    5  A    between atoms: C_5  and  C_6
REMARK    6  A    between atoms: C_5  and  N_15
REMARK    7  A    between atoms: C_6  and  O_8
REMARK    8  A    between atoms: O_8  and  C_9
REMARK                            x       y       z     vdW  Elec       q    Type
REMARK                         _______ _______ _______ _____ _____    ______ ____
ROOT
ATOM      1  C   UNL     1       6.438   6.648  17.238  0.00  0.00    +0.000 C 
ENDROOT
BRANCH   1   2
ATOM      2  N   UNL     1       5.343   6.074  18.038  0.00  0.00    +0.000 N 
ATOM      3  C   UNL     1       4.050   6.531  17.990  0.00  0.00    +0.000 C 
ATOM      4  O   UNL     1       3.577   7.434  17.320  0.00  0.00    +0.000 OA
ATOM      5  C   UNL     1       3.275   5.702  18.918  0.00  0.00    +0.000 A 
ATOM      6  C   UNL     1       1.950   5.761  19.312  0.00  0.00    +0.000 A 
ATOM      7  C   UNL     1       1.514   4.807  20.245  0.00  0.00    +0.000 A 
ATOM      8  C   UNL     1       2.399   3.834  20.757  0.00  0.00    +0.000 A 
ATOM      9  C   UNL     1       3.728   3.791  20.338  0.00  0.00    +0.000 A 
ATOM     10  C   UNL     1       4.128   4.737  19.411  0.00  0.00    +0.000 A 
ATOM     11  C   UNL     1       5.424   4.933  18.781  0.00  0.00    +0.000 C 
ATOM     12  O   UNL     1       6.355   4.162  18.938  0.00  0.00    +0.000 OA
ENDBRANCH   1   2
BRANCH   1  13
ATOM     13  C   UNL     1       6.998   5.560  16.324  0.00  0.00    +0.000 C 
ATOM     14  O   UNL     1       7.918   4.806  16.624  0.00  0.00    +0.000 OA
BRANCH  13  15
ATOM     15  O   UNL     1       6.362   5.535  15.121  0.00  0.00    +0.000 OA
BRANCH  15  16
ATOM     16  C   UNL     1       6.779   4.508  14.232  0.00  0.00    +0.000 C 
ATOM     17  C   UNL     1       5.601   3.920  13.494  0.00  0.00    +0.000 C 
ATOM     18  C   UNL     1       6.244   3.403  12.234  0.00  0.00    +0.000 C 
ATOM     19  O   UNL     1       7.312   4.309  11.946  0.00  0.00    +0.000 OA
ATOM     20  C   UNL     1       7.633   5.002  13.084  0.00  0.00    +0.000 C 
ATOM     21  O   UNL     1       8.510   5.850  13.145  0.00  0.00    +0.000 OA
ENDBRANCH  15  16
ENDBRANCH  13  15
ENDBRANCH   1  13
BRANCH   1  22
ATOM     22  C   UNL     1       7.569   7.240  18.102  0.00  0.00    +0.000 C 
BRANCH  22  23
ATOM     23  C   UNL     1       8.132   8.576  17.610  0.00  0.00    +0.000 C 
BRANCH  23  25
ATOM     24  C   UNL     1       9.034  11.118  18.161  0.00  0.00    +0.000 C 
ATOM     25  S   UNL     1       8.953   9.491  18.949  0.00  0.00    +0.000 S 
ENDBRANCH  23  25
ENDBRANCH  22  23
ENDBRANCH   1  22
TORSDOF 7
ENDMDL
MODEL 4
REMARK VINA RESULT:      -7.2      3.444      4.882
REMARK  Name = 
REMARK  8 active torsions:
REMARK  status: ('A' for Active; 'I' for Inactive)
REMARK    1  A    between atoms: C_1  and  S_2
REMARK    2  A    between atoms: S_2  and  C_3
REMARK    3  A    between atoms: C_3  and  C_4
REMARK    4  A    between atoms: C_4  and  C_5
REMARK    5  A    between atoms: C_5  and  C_6
REMARK    6  A    between atoms: C_5  and  N_15
REMARK    7  A    between atoms: C_6  and  O_8
REMARK    8  A    between atoms: O_8  and  C_9
REMARK                            x       y       z     vdW  Elec       q    Type
REMARK                         _______ _______ _______ _____ _____    ______ ____
ROOT
ATOM      1  C   UNL     1       3.349   4.976  18.594  0.00  0.00    +0.000 C 
ENDROOT
BRANCH   1   2
ATOM      2  N   UNL     1       2.614   6.144  19.108  0.00  0.00    +0.000 N 
ATOM      3  C   UNL     1       2.030   6.185  20.349  0.00  0.00    +0.000 C 
ATOM      4  O   UNL     1       2.008   5.328  21.218  0.00  0.00    +0.000 OA
ATOM      5  C   UNL     1       1.409   7.506  20.481  0.00  0.00    +0.000 A 
ATOM      6  C   UNL     1       0.638   8.061  21.486  0.00  0.00    +0.000 A 
ATOM      7  C   UNL     1       0.180   9.373  21.295  0.00  0.00    +0.000 A 
ATOM      8  C   UNL     1       0.494  10.089  20.121  0.00  0.00    +0.000 A 
ATOM      9  C   UNL     1       1.280   9.511  19.125  0.00  0.00    +0.000 A 
ATOM     10  C   UNL     1       1.726   8.219  19.343  0.00  0.00    +0.000 A 
ATOM     11  C   UNL     1       2.563   7.370  18.510  0.00  0.00    +0.000 C 
ATOM     12  O   UNL     1       3.090   7.767  17.486  0.00  0.00    +0.000 OA
ENDBRANCH   1   2
BRANCH   1  13
ATOM     13  C   UNL     1       4.750   5.424  18.184  0.00  0.00    +0.000 C 
ATOM     14  O   UNL     1       5.674   5.621  18.967  0.00  0.00    +0.000 OA
BRANCH  13  15
ATOM     15  O   UNL     1       4.851   5.594  16.838  0.00  0.00    +0.000 OA
BRANCH  15  16
ATOM     16  C   UNL     1       5.865   4.828  16.200  0.00  0.00    +0.000 C 
ATOM     17  C   UNL     1       5.384   4.294  14.873  0.00  0.00    +0.000 C 
ATOM     18  C   UNL     1       6.675   4.125  14.115  0.00  0.00    +0.000 C 
ATOM     19  O   UNL     1       7.530   5.176  14.571  0.00  0.00    +0.000 OA
ATOM     20  C   UNL     1       7.070   5.639  15.776  0.00  0.00    +0.000 C 
ATOM     21  O   UNL     1       7.598   6.539  16.410  0.00  0.00    +0.000 OA
ENDBRANCH  15  16
ENDBRANCH  13  15
ENDBRANCH   1  13
BRANCH   1  22
ATOM     22  C   UNL     1       2.646   4.300  17.400  0.00  0.00    +0.000 C 
BRANCH  22  23
ATOM     23  C   UNL     1       2.709   2.770  17.391  0.00  0.00    +0.000 C 
BRANCH  23  25
ATOM     24  C   UNL     1       0.639   2.637  19.201  0.00  0.00    +0.000 C 
ATOM     25  S   UNL     1       2.352   2.074  19.032  0.00  0.00    +0.000 S 
ENDBRANCH  23  25
ENDBRANCH  22  23
ENDBRANCH   1  22
TORSDOF 7
ENDMDL
MODEL 5
REMARK VINA RESULT:      -7.1      3.515      5.167
REMARK  Name = 
REMARK  8 active torsions:
REMARK  status: ('A' for Active; 'I' for Inactive)
REMARK    1  A    between atoms: C_1  and  S_2
REMARK    2  A    between atoms: S_2  and  C_3
REMARK    3  A    between atoms: C_3  and  C_4
REMARK    4  A    between atoms: C_4  and  C_5
REMARK    5  A    between atoms: C_5  and  C_6
REMARK    6  A    between atoms: C_5  and  N_15
REMARK    7  A    between atoms: C_6  and  O_8
REMARK    8  A    between atoms: O_8  and  C_9
REMARK                            x       y       z     vdW  Elec       q    Type
REMARK                         _______ _______ _______ _____ _____    ______ ____
ROOT
ATOM      1  C   UNL     1       3.332   5.101  18.701  0.00  0.00    +0.000 C 
ENDROOT
BRANCH   1   2
ATOM      2  N   UNL     1       2.656   6.304  19.215  0.00  0.00    +0.000 N 
ATOM      3  C   UNL     1       2.494   7.453  18.483  0.00  0.00    +0.000 C 
ATOM      4  O   UNL     1       2.843   7.692  17.338  0.00  0.00    +0.000 OA
ATOM      5  C   UNL     1       1.777   8.402  19.339  0.00  0.00    +0.000 A 
ATOM      6  C   UNL     1       1.410   9.721  19.140  0.00  0.00    +0.000 A 
ATOM      7  C   UNL     1       0.729  10.364  20.185  0.00  0.00    +0.000 A 
ATOM      8  C   UNL     1       0.438   9.687  21.388  0.00  0.00    +0.000 A 
ATOM      9  C   UNL     1       0.812   8.355  21.562  0.00  0.00    +0.000 A 
ATOM     10  C   UNL     1       1.474   7.743  20.512  0.00  0.00    +0.000 A 
ATOM     11  C   UNL     1       1.968   6.380  20.391  0.00  0.00    +0.000 C 
ATOM     12  O   UNL     1       1.750   5.524  21.230  0.00  0.00    +0.000 OA
ENDBRANCH   1   2
BRANCH   1  13
ATOM     13  C   UNL     1       4.762   5.472  18.313  0.00  0.00    +0.000 C 
ATOM     14  O   UNL     1       5.688   5.595  19.108  0.00  0.00    +0.000 OA
BRANCH  13  15
ATOM     15  O   UNL     1       4.885   5.669  16.972  0.00  0.00    +0.000 OA
BRANCH  15  16
ATOM     16  C   UNL     1       5.903   4.907  16.335  0.00  0.00    +0.000 C 
ATOM     17  C   UNL     1       5.427   4.373  15.007  0.00  0.00    +0.000 C 
ATOM     18  C   UNL     1       6.720   4.210  14.250  0.00  0.00    +0.000 C 
ATOM     19  O   UNL     1       7.570   5.264  14.710  0.00  0.00    +0.000 OA
ATOM     20  C   UNL     1       7.106   5.724  15.915  0.00  0.00    +0.000 C 
ATOM     21  O   UNL     1       7.628   6.625  16.551  0.00  0.00    +0.000 OA
ENDBRANCH  15  16
ENDBRANCH  13  15
ENDBRANCH   1  13
BRANCH   1  22
ATOM     22  C   UNL     1       2.608   4.474  17.492  0.00  0.00    +0.000 C 
BRANCH  22  23
ATOM     23  C   UNL     1       2.720   2.950  17.387  0.00  0.00    +0.000 C 
BRANCH  23  25
ATOM     24  C   UNL     1       0.715   2.698  19.256  0.00  0.00    +0.000 C 
ATOM     25  S   UNL     1       2.417   2.144  18.987  0.00  0.00    +0.000 S 
ENDBRANCH  23  25
ENDBRANCH  22  23
ENDBRANCH   1  22
TORSDOF 7
ENDMDL
MODEL 6
REMARK VINA RESULT:      -7.1      2.544      6.470
REMARK  Name = 
REMARK  8 active torsions:
REMARK  status: ('A' for Active; 'I' for Inactive)
REMARK    1  A    between atoms: C_1  and  S_2
REMARK    2  A    between atoms: S_2  and  C_3
REMARK    3  A    between atoms: C_3  and  C_4
REMARK    4  A    between atoms: C_4  and  C_5
REMARK    5  A    between atoms: C_5  and  C_6
REMARK    6  A    between atoms: C_5  and  N_15
REMARK    7  A    between atoms: C_6  and  O_8
REMARK    8  A    between atoms: O_8  and  C_9
REMARK                            x       y       z     vdW  Elec       q    Type
REMARK                         _______ _______ _______ _____ _____    ______ ____
ROOT
ATOM      1  C   UNL     1       4.950   5.780  17.748  0.00  0.00    +0.000 C 
ENDROOT
BRANCH   1   2
ATOM      2  N   UNL     1       5.441   5.347  16.429  0.00  0.00    +0.000 N 
ATOM      3  C   UNL     1       6.634   5.760  15.893  0.00  0.00    +0.000 C 
ATOM      4  O   UNL     1       7.474   6.508  16.367  0.00  0.00    +0.000 OA
ATOM      5  C   UNL     1       6.757   5.109  14.585  0.00  0.00    +0.000 A 
ATOM      6  C   UNL     1       7.717   5.215  13.594  0.00  0.00    +0.000 A 
ATOM      7  C   UNL     1       7.529   4.449  12.434  0.00  0.00    +0.000 A 
ATOM      8  C   UNL     1       6.403   3.611  12.289  0.00  0.00    +0.000 A 
ATOM      9  C   UNL     1       5.453   3.516  13.305  0.00  0.00    +0.000 A 
ATOM     10  C   UNL     1       5.668   4.274  14.443  0.00  0.00    +0.000 A 
ATOM     11  C   UNL     1       4.876   4.372  15.659  0.00  0.00    +0.000 C 
ATOM     12  O   UNL     1       3.907   3.665  15.872  0.00  0.00    +0.000 OA
ENDBRANCH   1   2
BRANCH   1  13
ATOM     13  C   UNL     1       5.204   4.661  18.755  0.00  0.00    +0.000 C 
ATOM     14  O   UNL     1       6.283   4.443  19.296  0.00  0.00    +0.000 OA
BRANCH  13  15
ATOM     15  O   UNL     1       4.086   3.915  18.972  0.00  0.00    +0.000 OA
BRANCH  15  16
ATOM     16  C   UNL     1       3.634   3.871  20.320  0.00  0.00    +0.000 C 
ATOM     17  C   UNL     1       2.129   3.948  20.388  0.00  0.00    +0.000 C 
ATOM     18  C   UNL     1       1.836   3.255  21.693  0.00  0.00    +0.000 C 
ATOM     19  O   UNL     1       2.838   2.244  21.825  0.00  0.00    +0.000 OA
ATOM     20  C   UNL     1       3.897   2.550  21.010  0.00  0.00    +0.000 C 
ATOM     21  O   UNL     1       4.904   1.867  20.910  0.00  0.00    +0.000 OA
ENDBRANCH  15  16
ENDBRANCH  13  15
ENDBRANCH   1  13
BRANCH   1  22
ATOM     22  C   UNL     1       3.453   6.150  17.743  0.00  0.00    +0.000 C 
BRANCH  22  23
ATOM     23  C   UNL     1       3.053   7.257  18.722  0.00  0.00    +0.000 C 
BRANCH  23  25
ATOM     24  C   UNL     1       1.243   9.256  19.278  0.00  0.00    +0.000 C 
ATOM     25  S   UNL     1       2.199   8.622  17.878  0.00  0.00    +0.000 S 
ENDBRANCH  23  25
ENDBRANCH  22  23
ENDBRANCH   1  22
TORSDOF 7
ENDMDL
MODEL 7
REMARK VINA RESULT:      -7.0      1.302      1.503
REMARK  Name = 
REMARK  8 active torsions:
REMARK  status: ('A' for Active; 'I' for Inactive)
REMARK    1  A    between atoms: C_1  and  S_2
REMARK    2  A    between atoms: S_2  and  C_3
REMARK    3  A    between atoms: C_3  and  C_4
REMARK    4  A    between atoms: C_4  and  C_5
REMARK    5  A    between atoms: C_5  and  C_6
REMARK    6  A    between atoms: C_5  and  N_15
REMARK    7  A    between atoms: C_6  and  O_8
REMARK    8  A    between atoms: O_8  and  C_9
REMARK                            x       y       z     vdW  Elec       q    Type
REMARK                         _______ _______ _______ _____ _____    ______ ____
ROOT
ATOM      1  C   UNL     1       5.001   5.313  17.178  0.00  0.00    +0.000 C 
ENDROOT
BRANCH   1   2
ATOM      2  N   UNL     1       4.109   4.716  18.186  0.00  0.00    +0.000 N 
ATOM      3  C   UNL     1       4.552   3.920  19.212  0.00  0.00    +0.000 C 
ATOM      4  O   UNL     1       5.690   3.576  19.483  0.00  0.00    +0.000 OA
ATOM      5  C   UNL     1       3.369   3.536  19.988  0.00  0.00    +0.000 A 
ATOM      6  C   UNL     1       3.221   2.698  21.079  0.00  0.00    +0.000 A 
ATOM      7  C   UNL     1       1.924   2.531  21.589  0.00  0.00    +0.000 A 
ATOM      8  C   UNL     1       0.822   3.191  21.006  0.00  0.00    +0.000 A 
ATOM      9  C   UNL     1       0.999   4.037  19.911  0.00  0.00    +0.000 A 
ATOM     10  C   UNL     1       2.289   4.191  19.434  0.00  0.00    +0.000 A 
ATOM     11  C   UNL     1       2.784   5.005  18.336  0.00  0.00    +0.000 C 
ATOM     12  O   UNL     1       2.075   5.783  17.722  0.00  0.00    +0.000 OA
ENDBRANCH   1   2
BRANCH   1  13
ATOM     13  C   UNL     1       5.227   4.296  16.061  0.00  0.00    +0.000 C 
ATOM     14  O   UNL     1       5.128   3.081  16.197  0.00  0.00    +0.000 OA
BRANCH  13  15
ATOM     15  O   UNL     1       5.568   4.900  14.891  0.00  0.00    +0.000 OA
BRANCH  15  16
ATOM     16  C   UNL     1       6.331   4.105  13.993  0.00  0.00    +0.000 C 
ATOM     17  C   UNL     1       5.492   3.652  12.824  0.00  0.00    +0.000 C 
ATOM     18  C   UNL     1       6.531   3.442  11.753  0.00  0.00    +0.000 C 
ATOM     19  O   UNL     1       7.540   4.424  11.997  0.00  0.00    +0.000 OA
ATOM     20  C   UNL     1       7.437   4.864  13.291  0.00  0.00    +0.000 C 
ATOM     21  O   UNL     1       8.167   5.706  13.789  0.00  0.00    +0.000 OA
ENDBRANCH  15  16
ENDBRANCH  13  15
ENDBRANCH   1  13
BRANCH   1  22
ATOM     22  C   UNL     1       6.358   5.758  17.762  0.00  0.00    +0.000 C 
BRANCH  22  23
ATOM     23  C   UNL     1       6.818   7.158  17.343  0.00  0.00    +0.000 C 
BRANCH  23  25
ATOM     24  C   UNL     1       8.174   9.489  17.896  0.00  0.00    +0.000 C 
ATOM     25  S   UNL     1       8.204   7.741  18.364  0.00  0.00    +0.000 S 
ENDBRANCH  23  25
ENDBRANCH  22  23
ENDBRANCH   1  22
TORSDOF 7
ENDMDL
MODEL 8
REMARK VINA RESULT:      -6.9      2.638      6.470
REMARK  Name = 
REMARK  8 active torsions:
REMARK  status: ('A' for Active; 'I' for Inactive)
REMARK    1  A    between atoms: C_1  and  S_2
REMARK    2  A    between atoms: S_2  and  C_3
REMARK    3  A    between atoms: C_3  and  C_4
REMARK    4  A    between atoms: C_4  and  C_5
REMARK    5  A    between atoms: C_5  and  C_6
REMARK    6  A    between atoms: C_5  and  N_15
REMARK    7  A    between atoms: C_6  and  O_8
REMARK    8  A    between atoms: O_8  and  C_9
REMARK                            x       y       z     vdW  Elec       q    Type
REMARK                         _______ _______ _______ _____ _____    ______ ____
ROOT
ATOM      1  C   UNL     1       4.465   6.157  18.135  0.00  0.00    +0.000 C 
ENDROOT
BRANCH   1   2
ATOM      2  N   UNL     1       5.040   5.639  16.882  0.00  0.00    +0.000 N 
ATOM      3  C   UNL     1       6.217   6.094  16.345  0.00  0.00    +0.000 C 
ATOM      4  O   UNL     1       6.976   6.951  16.768  0.00  0.00    +0.000 OA
ATOM      5  C   UNL     1       6.443   5.331  15.114  0.00  0.00    +0.000 A 
ATOM      6  C   UNL     1       7.430   5.419  14.148  0.00  0.00    +0.000 A 
ATOM      7  C   UNL     1       7.350   4.530  13.065  0.00  0.00    +0.000 A 
ATOM      8  C   UNL     1       6.300   3.592  12.970  0.00  0.00    +0.000 A 
ATOM      9  C   UNL     1       5.321   3.518  13.960  0.00  0.00    +0.000 A 
ATOM     10  C   UNL     1       5.430   4.399  15.022  0.00  0.00    +0.000 A 
ATOM     11  C   UNL     1       4.586   4.550  16.197  0.00  0.00    +0.000 C 
ATOM     12  O   UNL     1       3.668   3.790  16.449  0.00  0.00    +0.000 OA
ENDBRANCH   1   2
BRANCH   1  13
ATOM     13  C   UNL     1       4.537   5.060  19.195  0.00  0.00    +0.000 C 
ATOM     14  O   UNL     1       5.482   4.290  19.337  0.00  0.00    +0.000 OA
BRANCH  13  15
ATOM     15  O   UNL     1       3.413   5.025  19.962  0.00  0.00    +0.000 OA
BRANCH  15  16
ATOM     16  C   UNL     1       2.874   3.730  20.196  0.00  0.00    +0.000 C 
ATOM     17  C   UNL     1       2.496   3.556  21.647  0.00  0.00    +0.000 C 
ATOM     18  C   UNL     1       1.418   2.507  21.568  0.00  0.00    +0.000 C 
ATOM     19  O   UNL     1       0.740   2.744  20.332  0.00  0.00    +0.000 OA
ATOM     20  C   UNL     1       1.546   3.487  19.511  0.00  0.00    +0.000 C 
ATOM     21  O   UNL     1       1.235   3.846  18.386  0.00  0.00    +0.000 OA
ENDBRANCH  15  16
ENDBRANCH  13  15
ENDBRANCH   1  13
BRANCH   1  22
ATOM     22  C   UNL     1       3.008   6.636  17.977  0.00  0.00    +0.000 C 
BRANCH  22  23
ATOM     23  C   UNL     1       2.615   7.823  18.860  0.00  0.00    +0.000 C 
BRANCH  23  25
ATOM     24  C   UNL     1       0.875   9.914  19.290  0.00  0.00    +0.000 C 
ATOM     25  S   UNL     1       1.720   9.093  17.915  0.00  0.00    +0.000 S 
ENDBRANCH  23  25
ENDBRANCH  22  23
ENDBRANCH   1  22
TORSDOF 7
ENDMDL
MODEL 9
REMARK VINA RESULT:      -6.8      2.455      6.232
REMARK  Name = 
REMARK  8 active torsions:
REMARK  status: ('A' for Active; 'I' for Inactive)
REMARK    1  A    between atoms: C_1  and  S_2
REMARK    2  A    between atoms: S_2  and  C_3
REMARK    3  A    between atoms: C_3  and  C_4
REMARK    4  A    between atoms: C_4  and  C_5
REMARK    5  A    between atoms: C_5  and  C_6
REMARK    6  A    between atoms: C_5  and  N_15
REMARK    7  A    between atoms: C_6  and  O_8
REMARK    8  A    between atoms: O_8  and  C_9
REMARK                            x       y       z     vdW  Elec       q    Type
REMARK                         _______ _______ _______ _____ _____    ______ ____
ROOT
ATOM      1  C   UNL     1       5.015   5.925  18.104  0.00  0.00    +0.000 C 
ENDROOT
BRANCH   1   2
ATOM      2  N   UNL     1       5.435   5.456  16.773  0.00  0.00    +0.000 N 
ATOM      3  C   UNL     1       6.623   5.810  16.185  0.00  0.00    +0.000 C 
ATOM      4  O   UNL     1       7.512   6.527  16.616  0.00  0.00    +0.000 OA
ATOM      5  C   UNL     1       6.667   5.139  14.883  0.00  0.00    +0.000 A 
ATOM      6  C   UNL     1       7.591   5.192  13.855  0.00  0.00    +0.000 A 
ATOM      7  C   UNL     1       7.325   4.421  12.712  0.00  0.00    +0.000 A 
ATOM      8  C   UNL     1       6.160   3.631  12.623  0.00  0.00    +0.000 A 
ATOM      9  C   UNL     1       5.247   3.589  13.676  0.00  0.00    +0.000 A 
ATOM     10  C   UNL     1       5.539   4.351  14.794  0.00  0.00    +0.000 A 
ATOM     11  C   UNL     1       4.800   4.497  16.039  0.00  0.00    +0.000 C 
ATOM     12  O   UNL     1       3.811   3.835  16.299  0.00  0.00    +0.000 OA
ENDBRANCH   1   2
BRANCH   1  13
ATOM     13  C   UNL     1       5.082   4.752  19.079  0.00  0.00    +0.000 C 
ATOM     14  O   UNL     1       6.009   3.951  19.142  0.00  0.00    +0.000 OA
BRANCH  13  15
ATOM     15  O   UNL     1       3.974   4.687  19.867  0.00  0.00    +0.000 OA
BRANCH  15  16
ATOM     16  C   UNL     1       2.896   3.922  19.342  0.00  0.00    +0.000 C 
ATOM     17  C   UNL     1       3.193   2.445  19.422  0.00  0.00    +0.000 C 
ATOM     18  C   UNL     1       1.810   1.848  19.470  0.00  0.00    +0.000 C 
ATOM     19  O   UNL     1       1.007   2.793  20.182  0.00  0.00    +0.000 OA
ATOM     20  C   UNL     1       1.625   4.016  20.159  0.00  0.00    +0.000 C 
ATOM     21  O   UNL     1       1.175   5.021  20.687  0.00  0.00    +0.000 OA
ENDBRANCH  15  16
ENDBRANCH  13  15
ENDBRANCH   1  13
BRANCH   1  22
ATOM     22  C   UNL     1       3.597   6.531  18.110  0.00  0.00    +0.000 C 
BRANCH  22  23
ATOM     23  C   UNL     1       3.451   7.851  17.347  0.00  0.00    +0.000 C 
BRANCH  23  25
ATOM     24  C   UNL     1       1.908   8.122  19.611  0.00  0.00    +0.000 C 
ATOM     25  S   UNL     1       2.031   8.816  17.944  0.00  0.00    +0.000 S 
ENDBRANCH  23  25
ENDBRANCH  22  23
ENDBRANCH   1  22
TORSDOF 7
ENDMDL
