MODEL 1
REMARK VINA RESULT:      -8.4      0.000      0.000
REMARK  Name = 
REMARK  8 active torsions:
REMARK  status: ('A' for Active; 'I' for Inactive)
REMARK    1  A    between atoms: C_1  and  C_2
REMARK    2  A    between atoms: C_2  and  C_3
REMARK    3  A    between atoms: C_2  and  C_4
REMARK    4  A    between atoms: C_4  and  N_5
REMARK    5  A    between atoms: C_11  and  C_12
REMARK    6  A    between atoms: N_15  and  C_16
REMARK    7  A    between atoms: C_16  and  C_17
REMARK    8  A    between atoms: C_19  and  C_20
REMARK                            x       y       z     vdW  Elec       q    Type
REMARK                         _______ _______ _______ _____ _____    ______ ____
ROOT
ATOM      1  N   UNL     1      -0.499  11.656  20.414  0.00  0.00    +0.000 N 
ATOM      2  C   UNL     1      -0.414  11.801  19.017  0.00  0.00    +0.000 A 
ATOM      3  O   UNL     1      -0.932  12.737  18.404  0.00  0.00    +0.000 OA
ATOM      4  N   UNL     1       0.291  10.842  18.323  0.00  0.00    +0.000 N 
ATOM      5  C   UNL     1       0.829   9.769  18.959  0.00  0.00    +0.000 A 
ATOM      6  N   UNL     1       1.499   8.727  18.404  0.00  0.00    +0.000 NA
ATOM      7  C   UNL     1       1.768   7.927  19.427  0.00  0.00    +0.000 A 
ATOM      8  N   UNL     1       1.299   8.460  20.607  0.00  0.00    +0.000 N 
ATOM      9  C   UNL     1       0.712   9.647  20.304  0.00  0.00    +0.000 A 
ATOM     10  C   UNL     1       0.078  10.603  21.134  0.00  0.00    +0.000 A 
ATOM     11  O   UNL     1       0.051  10.486  22.355  0.00  0.00    +0.000 OA
ATOM     12  H   UNL     1       0.377  10.913  17.319  0.00  0.00    +0.000 HD
ATOM     13  H   UNL     1       1.374   8.051  21.529  0.00  0.00    +0.000 HD
ENDROOT
BRANCH   7  14
ATOM     14  C   UNL     1       2.485   6.635  19.345  0.00  0.00    +0.000 A 
ATOM     15  C   UNL     1       1.962   5.331  19.434  0.00  0.00    +0.000 A 
ATOM     16  N   UNL     1       2.912   4.395  19.353  0.00  0.00    +0.000 NA
ATOM     17  N   UNL     1       4.053   5.112  19.211  0.00  0.00    +0.000 N 
ATOM     18  C   UNL     1       3.838   6.464  19.180  0.00  0.00    +0.000 A 
BRANCH  17  19
ATOM     19  C   UNL     1       5.340   4.432  19.230  0.00  0.00    +0.000 C 
BRANCH  19  20
ATOM     20  C   UNL     1       6.034   4.537  17.923  0.00  0.00    +0.000 A 
ATOM     21  C   UNL     1       5.489   4.418  16.621  0.00  0.00    +0.000 A 
ATOM     22  C   UNL     1       6.571   4.501  15.775  0.00  0.00    +0.000 A 
ATOM     23  O   UNL     1       7.693   4.684  16.530  0.00  0.00    +0.000 OA
ATOM     24  N   UNL     1       7.362   4.702  17.873  0.00  0.00    +0.000 NA
BRANCH  22  25
ATOM     25  C   UNL     1       6.750   4.436  14.329  0.00  0.00    +0.000 A 
ATOM     26  C   UNL     1       7.651   5.300  13.689  0.00  0.00    +0.000 A 
ATOM     27  C   UNL     1       7.858   5.227  12.308  0.00  0.00    +0.000 A 
ATOM     28  C   UNL     1       7.163   4.292  11.547  0.00  0.00    +0.000 A 
ATOM     29  C   UNL     1       6.249   3.440  12.162  0.00  0.00    +0.000 A 
ATOM     30  C   UNL     1       6.042   3.513  13.543  0.00  0.00    +0.000 A 
ENDBRANCH  22  25
ENDBRANCH  19  20
ENDBRANCH  17  19
ENDBRANCH   7  14
BRANCH   1  31
ATOM     31  C   UNL     1      -1.231  12.666  21.173  0.00  0.00    +0.000 C 
BRANCH  31  33
ATOM     32  C   UNL     1       0.443  14.607  21.158  0.00  0.00    +0.000 C 
ATOM     33  C   UNL     1      -0.325  13.594  22.010  0.00  0.00    +0.000 C 
ATOM     34  C   UNL     1      -1.172  14.346  23.041  0.00  0.00    +0.000 C 
ENDBRANCH  31  33
ENDBRANCH   1  31
TORSDOF 6
ENDMDL
MODEL 2
REMARK VINA RESULT:      -8.2      1.444      2.295
REMARK  Name = 
REMARK  8 active torsions:
REMARK  status: ('A' for Active; 'I' for Inactive)
REMARK    1  A    between atoms: C_1  and  C_2
REMARK    2  A    between atoms: C_2  and  C_3
REMARK    3  A    between atoms: C_2  and  C_4
REMARK    4  A    between atoms: C_4  and  N_5
REMARK    5  A    between atoms: C_11  and  C_12
REMARK    6  A    between atoms: N_15  and  C_16
REMARK    7  A    between atoms: C_16  and  C_17
REMARK    8  A    between atoms: C_19  and  C_20
REMARK                            x       y       z     vdW  Elec       q    Type
REMARK                         _______ _______ _______ _____ _____    ______ ____
ROOT
ATOM      1  N   UNL     1       0.811  11.850  19.837  0.00  0.00    +0.000 N 
ATOM      2  C   UNL     1       0.450  11.636  21.179  0.00  0.00    +0.000 A 
ATOM      3  O   UNL     1       0.045  12.535  21.920  0.00  0.00    +0.000 OA
ATOM      4  N   UNL     1       0.557  10.351  21.666  0.00  0.00    +0.000 N 
ATOM      5  C   UNL     1       1.050   9.348  20.894  0.00  0.00    +0.000 A 
ATOM      6  N   UNL     1       1.260   8.056  21.252  0.00  0.00    +0.000 NA
ATOM      7  C   UNL     1       1.796   7.499  20.174  0.00  0.00    +0.000 A 
ATOM      8  N   UNL     1       1.902   8.412  19.149  0.00  0.00    +0.000 N 
ATOM      9  C   UNL     1       1.409   9.590  19.611  0.00  0.00    +0.000 A 
ATOM     10  C   UNL     1       1.274  10.849  18.975  0.00  0.00    +0.000 A 
ATOM     11  O   UNL     1       1.551  11.011  17.791  0.00  0.00    +0.000 OA
ATOM     12  H   UNL     1       0.305  10.157  22.625  0.00  0.00    +0.000 HD
ATOM     13  H   UNL     1       2.276   8.244  18.224  0.00  0.00    +0.000 HD
ENDROOT
BRANCH   7  14
ATOM     14  C   UNL     1       2.222   6.087  20.054  0.00  0.00    +0.000 A 
ATOM     15  C   UNL     1       1.553   4.926  20.486  0.00  0.00    +0.000 A 
ATOM     16  N   UNL     1       2.254   3.815  20.243  0.00  0.00    +0.000 NA
ATOM     17  N   UNL     1       3.382   4.274  19.649  0.00  0.00    +0.000 N 
ATOM     18  C   UNL     1       3.393   5.635  19.496  0.00  0.00    +0.000 A 
BRANCH  17  19
ATOM     19  C   UNL     1       4.471   3.353  19.357  0.00  0.00    +0.000 C 
BRANCH  19  20
ATOM     20  C   UNL     1       5.256   3.790  18.176  0.00  0.00    +0.000 A 
ATOM     21  C   UNL     1       4.963   3.604  16.803  0.00  0.00    +0.000 A 
ATOM     22  C   UNL     1       6.054   4.111  16.137  0.00  0.00    +0.000 A 
ATOM     23  O   UNL     1       6.936   4.593  17.060  0.00  0.00    +0.000 OA
ATOM     24  N   UNL     1       6.442   4.390  18.336  0.00  0.00    +0.000 NA
BRANCH  22  25
ATOM     25  C   UNL     1       6.436   4.229  14.733  0.00  0.00    +0.000 A 
ATOM     26  C   UNL     1       5.788   3.455  13.758  0.00  0.00    +0.000 A 
ATOM     27  C   UNL     1       6.119   3.581  12.406  0.00  0.00    +0.000 A 
ATOM     28  C   UNL     1       7.107   4.478  12.010  0.00  0.00    +0.000 A 
ATOM     29  C   UNL     1       7.774   5.239  12.966  0.00  0.00    +0.000 A 
ATOM     30  C   UNL     1       7.442   5.113  14.319  0.00  0.00    +0.000 A 
ENDBRANCH  22  25
ENDBRANCH  19  20
ENDBRANCH  17  19
ENDBRANCH   7  14
BRANCH   1  31
ATOM     31  C   UNL     1       0.695  13.201  19.294  0.00  0.00    +0.000 C 
BRANCH  31  33
ATOM     32  C   UNL     1       2.839  14.129  18.237  0.00  0.00    +0.000 C 
ATOM     33  C   UNL     1       1.962  14.061  19.490  0.00  0.00    +0.000 C 
ATOM     34  C   UNL     1       1.560  15.483  19.897  0.00  0.00    +0.000 C 
ENDBRANCH  31  33
ENDBRANCH   1  31
TORSDOF 6
ENDMDL
MODEL 3
REMARK VINA RESULT:      -8.0      1.306      1.550
REMARK  Name = 
REMARK  8 active torsions:
REMARK  status: ('A' for Active; 'I' for Inactive)
REMARK    1  A    between atoms: C_1  and  C_2
REMARK    2  A    between atoms: C_2  and  C_3
REMARK    3  A    between atoms: C_2  and  C_4
REMARK    4  A    between atoms: C_4  and  N_5
REMARK    5  A    between atoms: C_11  and  C_12
REMARK    6  A    between atoms: N_15  and  C_16
REMARK    7  A    between atoms: C_16  and  C_17
REMARK    8  A    between atoms: C_19  and  C_20
REMARK                            x       y       z     vdW  Elec       q    Type
REMARK                         _______ _______ _______ _____ _____    ______ ____
ROOT
ATOM      1  N   UNL     1      -0.096  12.295  20.264  0.00  0.00    +0.000 N 
ATOM      2  C   UNL     1       0.128  12.299  18.875  0.00  0.00    +0.000 A 
ATOM      3  O   UNL     1      -0.197  13.237  18.143  0.00  0.00    +0.000 OA
ATOM      4  N   UNL     1       0.745  11.194  18.331  0.00  0.00    +0.000 N 
ATOM      5  C   UNL     1       1.068  10.121  19.099  0.00  0.00    +0.000 A 
ATOM      6  N   UNL     1       1.626   8.952  18.695  0.00  0.00    +0.000 NA
ATOM      7  C   UNL     1       1.690   8.220  19.799  0.00  0.00    +0.000 A 
ATOM      8  N   UNL     1       1.204   8.917  20.882  0.00  0.00    +0.000 N 
ATOM      9  C   UNL     1       0.820  10.139  20.431  0.00  0.00    +0.000 A 
ATOM     10  C   UNL     1       0.261  11.245  21.118  0.00  0.00    +0.000 A 
ATOM     11  O   UNL     1       0.113  11.244  22.335  0.00  0.00    +0.000 OA
ATOM     12  H   UNL     1       0.925  11.161  17.337  0.00  0.00    +0.000 HD
ATOM     13  H   UNL     1       1.140   8.587  21.836  0.00  0.00    +0.000 HD
ENDROOT
BRANCH   7  14
ATOM     14  C   UNL     1       2.219   6.840  19.889  0.00  0.00    +0.000 A 
ATOM     15  C   UNL     1       1.766   5.775  20.690  0.00  0.00    +0.000 A 
ATOM     16  N   UNL     1       2.510   4.675  20.540  0.00  0.00    +0.000 NA
ATOM     17  N   UNL     1       3.445   5.044  19.633  0.00  0.00    +0.000 N 
ATOM     18  C   UNL     1       3.294   6.334  19.199  0.00  0.00    +0.000 A 
BRANCH  17  19
ATOM     19  C   UNL     1       4.539   4.138  19.312  0.00  0.00    +0.000 C 
BRANCH  19  20
ATOM     20  C   UNL     1       4.709   3.982  17.847  0.00  0.00    +0.000 A 
ATOM     21  C   UNL     1       5.823   4.326  17.045  0.00  0.00    +0.000 A 
ATOM     22  C   UNL     1       5.426   4.065  15.754  0.00  0.00    +0.000 A 
ATOM     23  O   UNL     1       4.154   3.572  15.788  0.00  0.00    +0.000 OA
ATOM     24  N   UNL     1       3.701   3.522  17.094  0.00  0.00    +0.000 NA
BRANCH  22  25
ATOM     25  C   UNL     1       6.047   4.203  14.441  0.00  0.00    +0.000 A 
ATOM     26  C   UNL     1       7.178   5.016  14.276  0.00  0.00    +0.000 A 
ATOM     27  C   UNL     1       7.804   5.132  13.032  0.00  0.00    +0.000 A 
ATOM     28  C   UNL     1       7.304   4.440  11.933  0.00  0.00    +0.000 A 
ATOM     29  C   UNL     1       6.171   3.644  12.073  0.00  0.00    +0.000 A 
ATOM     30  C   UNL     1       5.545   3.528  13.318  0.00  0.00    +0.000 A 
ENDBRANCH  22  25
ENDBRANCH  19  20
ENDBRANCH  17  19
ENDBRANCH   7  14
BRANCH   1  31
ATOM     31  C   UNL     1      -0.738  13.460  20.867  0.00  0.00    +0.000 C 
BRANCH  31  33
ATOM     32  C   UNL     1      -3.055  12.632  21.590  0.00  0.00    +0.000 C 
ATOM     33  C   UNL     1      -2.263  13.522  20.629  0.00  0.00    +0.000 C 
ATOM     34  C   UNL     1      -2.746  14.969  20.773  0.00  0.00    +0.000 C 
ENDBRANCH  31  33
ENDBRANCH   1  31
TORSDOF 6
ENDMDL
MODEL 4
REMARK VINA RESULT:      -8.0      3.431     10.454
REMARK  Name = 
REMARK  8 active torsions:
REMARK  status: ('A' for Active; 'I' for Inactive)
REMARK    1  A    between atoms: C_1  and  C_2
REMARK    2  A    between atoms: C_2  and  C_3
REMARK    3  A    between atoms: C_2  and  C_4
REMARK    4  A    between atoms: C_4  and  N_5
REMARK    5  A    between atoms: C_11  and  C_12
REMARK    6  A    between atoms: N_15  and  C_16
REMARK    7  A    between atoms: C_16  and  C_17
REMARK    8  A    between atoms: C_19  and  C_20
REMARK                            x       y       z     vdW  Elec       q    Type
REMARK                         _______ _______ _______ _____ _____    ______ ____
ROOT
ATOM      1  N   UNL     1       3.353   5.195  19.066  0.00  0.00    +0.000 N 
ATOM      2  C   UNL     1       3.549   6.116  18.022  0.00  0.00    +0.000 A 
ATOM      3  O   UNL     1       4.230   5.868  17.023  0.00  0.00    +0.000 OA
ATOM      4  N   UNL     1       2.937   7.345  18.139  0.00  0.00    +0.000 N 
ATOM      5  C   UNL     1       2.225   7.671  19.248  0.00  0.00    +0.000 A 
ATOM      6  N   UNL     1       1.616   8.852  19.523  0.00  0.00    +0.000 NA
ATOM      7  C   UNL     1       1.107   8.685  20.737  0.00  0.00    +0.000 A 
ATOM      8  N   UNL     1       1.369   7.419  21.211  0.00  0.00    +0.000 N 
ATOM      9  C   UNL     1       2.072   6.769  20.247  0.00  0.00    +0.000 A 
ATOM     10  C   UNL     1       2.588   5.450  20.210  0.00  0.00    +0.000 A 
ATOM     11  O   UNL     1       2.371   4.643  21.108  0.00  0.00    +0.000 OA
ATOM     12  H   UNL     1       3.052   8.033  17.407  0.00  0.00    +0.000 HD
ATOM     13  H   UNL     1       1.093   7.038  22.107  0.00  0.00    +0.000 HD
ENDROOT
BRANCH   7  14
ATOM     14  C   UNL     1       0.346   9.699  21.500  0.00  0.00    +0.000 A 
ATOM     15  C   UNL     1      -0.030   9.682  22.856  0.00  0.00    +0.000 A 
ATOM     16  N   UNL     1      -0.747  10.755  23.200  0.00  0.00    +0.000 NA
ATOM     17  N   UNL     1      -0.828  11.465  22.048  0.00  0.00    +0.000 N 
ATOM     18  C   UNL     1      -0.165  10.875  21.005  0.00  0.00    +0.000 A 
BRANCH  17  19
ATOM     19  C   UNL     1      -1.666  12.654  21.990  0.00  0.00    +0.000 C 
BRANCH  19  20
ATOM     20  C   UNL     1      -0.950  13.799  21.376  0.00  0.00    +0.000 A 
ATOM     21  C   UNL     1      -1.097  14.339  20.076  0.00  0.00    +0.000 A 
ATOM     22  C   UNL     1      -0.136  15.319  19.988  0.00  0.00    +0.000 A 
ATOM     23  O   UNL     1       0.530  15.375  21.178  0.00  0.00    +0.000 OA
ATOM     24  N   UNL     1       0.027  14.423  22.047  0.00  0.00    +0.000 NA
BRANCH  22  25
ATOM     25  C   UNL     1       0.290  16.248  18.947  0.00  0.00    +0.000 A 
ATOM     26  C   UNL     1      -0.646  17.085  18.321  0.00  0.00    +0.000 A 
ATOM     27  C   UNL     1      -0.249  18.004  17.345  0.00  0.00    +0.000 A 
ATOM     28  C   UNL     1       1.091  18.096  16.979  0.00  0.00    +0.000 A 
ATOM     29  C   UNL     1       2.031  17.261  17.576  0.00  0.00    +0.000 A 
ATOM     30  C   UNL     1       1.633  16.341  18.552  0.00  0.00    +0.000 A 
ENDBRANCH  22  25
ENDBRANCH  19  20
ENDBRANCH  17  19
ENDBRANCH   7  14
BRANCH   1  31
ATOM     31  C   UNL     1       3.982   3.881  18.960  0.00  0.00    +0.000 C 
BRANCH  31  33
ATOM     32  C   UNL     1       2.470   2.945  17.113  0.00  0.00    +0.000 C 
ATOM     33  C   UNL     1       3.012   2.759  18.533  0.00  0.00    +0.000 C 
ATOM     34  C   UNL     1       3.720   1.404  18.626  0.00  0.00    +0.000 C 
ENDBRANCH  31  33
ENDBRANCH   1  31
TORSDOF 6
ENDMDL
MODEL 5
REMARK VINA RESULT:      -7.8      2.459     10.035
REMARK  Name = 
REMARK  8 active torsions:
REMARK  status: ('A' for Active; 'I' for Inactive)
REMARK    1  A    between atoms: C_1  and  C_2
REMARK    2  A    between atoms: C_2  and  C_3
REMARK    3  A    between atoms: C_2  and  C_4
REMARK    4  A    between atoms: C_4  and  N_5
REMARK    5  A    between atoms: C_11  and  C_12
REMARK    6  A    between atoms: N_15  and  C_16
REMARK    7  A    between atoms: C_16  and  C_17
REMARK    8  A    between atoms: C_19  and  C_20
REMARK                            x       y       z     vdW  Elec       q    Type
REMARK                         _______ _______ _______ _____ _____    ______ ____
ROOT
ATOM      1  N   UNL     1       4.122   4.797  17.523  0.00  0.00    +0.000 N 
ATOM      2  C   UNL     1       3.708   3.875  18.501  0.00  0.00    +0.000 A 
ATOM      3  O   UNL     1       3.941   2.666  18.429  0.00  0.00    +0.000 OA
ATOM      4  N   UNL     1       3.016   4.370  19.585  0.00  0.00    +0.000 N 
ATOM      5  C   UNL     1       2.696   5.687  19.670  0.00  0.00    +0.000 A 
ATOM      6  N   UNL     1       1.979   6.303  20.645  0.00  0.00    +0.000 NA
ATOM      7  C   UNL     1       1.900   7.566  20.246  0.00  0.00    +0.000 A 
ATOM      8  N   UNL     1       2.570   7.751  19.057  0.00  0.00    +0.000 N 
ATOM      9  C   UNL     1       3.091   6.548  18.701  0.00  0.00    +0.000 A 
ATOM     10  C   UNL     1       3.871   6.173  17.579  0.00  0.00    +0.000 A 
ATOM     11  O   UNL     1       4.262   6.996  16.758  0.00  0.00    +0.000 OA
ATOM     12  H   UNL     1       2.705   3.739  20.310  0.00  0.00    +0.000 HD
ATOM     13  H   UNL     1       2.662   8.616  18.541  0.00  0.00    +0.000 HD
ENDROOT
BRANCH   7  14
ATOM     14  C   UNL     1       1.203   8.655  20.965  0.00  0.00    +0.000 A 
ATOM     15  C   UNL     1       1.187   8.929  22.346  0.00  0.00    +0.000 A 
ATOM     16  N   UNL     1       0.416   9.978  22.647  0.00  0.00    +0.000 NA
ATOM     17  N   UNL     1      -0.063  10.377  21.444  0.00  0.00    +0.000 N 
ATOM     18  C   UNL     1       0.403   9.620  20.402  0.00  0.00    +0.000 A 
BRANCH  17  19
ATOM     19  C   UNL     1      -1.068  11.428  21.379  0.00  0.00    +0.000 C 
BRANCH  19  20
ATOM     20  C   UNL     1      -0.652  12.528  20.474  0.00  0.00    +0.000 A 
ATOM     21  C   UNL     1       0.658  12.963  20.157  0.00  0.00    +0.000 A 
ATOM     22  C   UNL     1       0.480  14.067  19.356  0.00  0.00    +0.000 A 
ATOM     23  O   UNL     1      -0.859  14.264  19.187  0.00  0.00    +0.000 OA
ATOM     24  N   UNL     1      -1.570  13.307  19.889  0.00  0.00    +0.000 NA
BRANCH  22  25
ATOM     25  C   UNL     1       1.376  15.010  18.695  0.00  0.00    +0.000 A 
ATOM     26  C   UNL     1       1.010  16.358  18.563  0.00  0.00    +0.000 A 
ATOM     27  C   UNL     1       1.872  17.280  17.962  0.00  0.00    +0.000 A 
ATOM     28  C   UNL     1       3.110  16.866  17.480  0.00  0.00    +0.000 A 
ATOM     29  C   UNL     1       3.482  15.528  17.585  0.00  0.00    +0.000 A 
ATOM     30  C   UNL     1       2.620  14.606  18.186  0.00  0.00    +0.000 A 
ENDBRANCH  22  25
ENDBRANCH  19  20
ENDBRANCH  17  19
ENDBRANCH   7  14
BRANCH   1  31
ATOM     31  C   UNL     1       4.867   4.298  16.370  0.00  0.00    +0.000 C 
BRANCH  31  33
ATOM     32  C   UNL     1       7.244   4.493  17.311  0.00  0.00    +0.000 C 
ATOM     33  C   UNL     1       6.268   4.928  16.215  0.00  0.00    +0.000 C 
ATOM     34  C   UNL     1       6.851   4.554  14.848  0.00  0.00    +0.000 C 
ENDBRANCH  31  33
ENDBRANCH   1  31
TORSDOF 6
ENDMDL
MODEL 6
REMARK VINA RESULT:      -7.8      1.151      1.460
REMARK  Name = 
REMARK  8 active torsions:
REMARK  status: ('A' for Active; 'I' for Inactive)
REMARK    1  A    between atoms: C_1  and  C_2
REMARK    2  A    between atoms: C_2  and  C_3
REMARK    3  A    between atoms: C_2  and  C_4
REMARK    4  A    between atoms: C_4  and  N_5
REMARK    5  A    between atoms: C_11  and  C_12
REMARK    6  A    between atoms: N_15  and  C_16
REMARK    7  A    between atoms: C_16  and  C_17
REMARK    8  A    between atoms: C_19  and  C_20
REMARK                            x       y       z     vdW  Elec       q    Type
REMARK                         _______ _______ _______ _____ _____    ______ ____
ROOT
ATOM      1  N   UNL     1      -0.395  12.261  20.209  0.00  0.00    +0.000 N 
ATOM      2  C   UNL     1      -0.263  12.233  18.809  0.00  0.00    +0.000 A 
ATOM      3  O   UNL     1      -0.696  13.123  18.073  0.00  0.00    +0.000 OA
ATOM      4  N   UNL     1       0.391  11.152  18.258  0.00  0.00    +0.000 N 
ATOM      5  C   UNL     1       0.834  10.130  19.034  0.00  0.00    +0.000 A 
ATOM      6  N   UNL     1       1.443   8.986  18.628  0.00  0.00    +0.000 NA
ATOM      7  C   UNL     1       1.627   8.297  19.746  0.00  0.00    +0.000 A 
ATOM      8  N   UNL     1       1.165   8.997  20.839  0.00  0.00    +0.000 N 
ATOM      9  C   UNL     1       0.672  10.176  20.378  0.00  0.00    +0.000 A 
ATOM     10  C   UNL     1       0.085  11.266  21.068  0.00  0.00    +0.000 A 
ATOM     11  O   UNL     1       0.016  11.297  22.292  0.00  0.00    +0.000 OA
ATOM     12  H   UNL     1       0.509  11.098  17.256  0.00  0.00    +0.000 HD
ATOM     13  H   UNL     1       1.185   8.697  21.804  0.00  0.00    +0.000 HD
ENDROOT
BRANCH   7  14
ATOM     14  C   UNL     1       2.252   6.959  19.842  0.00  0.00    +0.000 A 
ATOM     15  C   UNL     1       1.826   5.839  20.581  0.00  0.00    +0.000 A 
ATOM     16  N   UNL     1       2.660   4.803  20.460  0.00  0.00    +0.000 NA
ATOM     17  N   UNL     1       3.627   5.268  19.632  0.00  0.00    +0.000 N 
ATOM     18  C   UNL     1       3.408   6.555  19.219  0.00  0.00    +0.000 A 
BRANCH  17  19
ATOM     19  C   UNL     1       4.806   4.455  19.370  0.00  0.00    +0.000 C 
BRANCH  19  20
ATOM     20  C   UNL     1       4.983   4.199  17.919  0.00  0.00    +0.000 A 
ATOM     21  C   UNL     1       6.046   4.600  17.075  0.00  0.00    +0.000 A 
ATOM     22  C   UNL     1       5.673   4.191  15.816  0.00  0.00    +0.000 A 
ATOM     23  O   UNL     1       4.466   3.561  15.910  0.00  0.00    +0.000 OA
ATOM     24  N   UNL     1       4.029   3.568  17.222  0.00  0.00    +0.000 NA
BRANCH  22  25
ATOM     25  C   UNL     1       6.266   4.289  14.487  0.00  0.00    +0.000 A 
ATOM     26  C   UNL     1       5.765   3.515  13.430  0.00  0.00    +0.000 A 
ATOM     27  C   UNL     1       6.300   3.622  12.143  0.00  0.00    +0.000 A 
ATOM     28  C   UNL     1       7.349   4.503  11.896  0.00  0.00    +0.000 A 
ATOM     29  C   UNL     1       7.873   5.266  12.937  0.00  0.00    +0.000 A 
ATOM     30  C   UNL     1       7.337   5.158  14.224  0.00  0.00    +0.000 A 
ENDBRANCH  22  25
ENDBRANCH  19  20
ENDBRANCH  17  19
ENDBRANCH   7  14
BRANCH   1  31
ATOM     31  C   UNL     1      -1.075  13.401  20.819  0.00  0.00    +0.000 C 
BRANCH  31  33
ATOM     32  C   UNL     1       1.273  14.426  20.705  0.00  0.00    +0.000 C 
ATOM     33  C   UNL     1      -0.114  14.487  21.349  0.00  0.00    +0.000 C 
ATOM     34  C   UNL     1      -0.719  15.873  21.104  0.00  0.00    +0.000 C 
ENDBRANCH  31  33
ENDBRANCH   1  31
TORSDOF 6
ENDMDL
MODEL 7
REMARK VINA RESULT:      -7.7      1.499      2.268
REMARK  Name = 
REMARK  8 active torsions:
REMARK  status: ('A' for Active; 'I' for Inactive)
REMARK    1  A    between atoms: C_1  and  C_2
REMARK    2  A    between atoms: C_2  and  C_3
REMARK    3  A    between atoms: C_2  and  C_4
REMARK    4  A    between atoms: C_4  and  N_5
REMARK    5  A    between atoms: C_11  and  C_12
REMARK    6  A    between atoms: N_15  and  C_16
REMARK    7  A    between atoms: C_16  and  C_17
REMARK    8  A    between atoms: C_19  and  C_20
REMARK                            x       y       z     vdW  Elec       q    Type
REMARK                         _______ _______ _______ _____ _____    ______ ____
ROOT
ATOM      1  N   UNL     1      -0.262  11.854  20.365  0.00  0.00    +0.000 N 
ATOM      2  C   UNL     1      -0.335  11.595  21.746  0.00  0.00    +0.000 A 
ATOM      3  O   UNL     1      -0.776  12.408  22.562  0.00  0.00    +0.000 OA
ATOM      4  N   UNL     1       0.106  10.365  22.183  0.00  0.00    +0.000 N 
ATOM      5  C   UNL     1       0.646   9.466  21.320  0.00  0.00    +0.000 A 
ATOM      6  N   UNL     1       1.167   8.247  21.613  0.00  0.00    +0.000 NA
ATOM      7  C   UNL     1       1.607   7.789  20.448  0.00  0.00    +0.000 A 
ATOM      8  N   UNL     1       1.352   8.688  19.437  0.00  0.00    +0.000 N 
ATOM      9  C   UNL     1       0.723   9.753  19.998  0.00  0.00    +0.000 A 
ATOM     10  C   UNL     1       0.234  10.950  19.418  0.00  0.00    +0.000 A 
ATOM     11  O   UNL     1       0.264  11.143  18.207  0.00  0.00    +0.000 OA
ATOM     12  H   UNL     1       0.067  10.141  23.168  0.00  0.00    +0.000 HD
ATOM     13  H   UNL     1       1.585   8.582  18.458  0.00  0.00    +0.000 HD
ENDROOT
BRANCH   7  14
ATOM     14  C   UNL     1       2.276   6.488  20.231  0.00  0.00    +0.000 A 
ATOM     15  C   UNL     1       1.861   5.205  20.637  0.00  0.00    +0.000 A 
ATOM     16  N   UNL     1       2.737   4.256  20.299  0.00  0.00    +0.000 NA
ATOM     17  N   UNL     1       3.721   4.941  19.668  0.00  0.00    +0.000 N 
ATOM     18  C   UNL     1       3.473   6.285  19.587  0.00  0.00    +0.000 A 
BRANCH  17  19
ATOM     19  C   UNL     1       4.940   4.253  19.269  0.00  0.00    +0.000 C 
BRANCH  19  20
ATOM     20  C   UNL     1       5.041   4.129  17.794  0.00  0.00    +0.000 A 
ATOM     21  C   UNL     1       6.165   4.355  16.963  0.00  0.00    +0.000 A 
ATOM     22  C   UNL     1       5.696   4.195  15.680  0.00  0.00    +0.000 A 
ATOM     23  O   UNL     1       4.372   3.870  15.744  0.00  0.00    +0.000 OA
ATOM     24  N   UNL     1       3.958   3.832  17.064  0.00  0.00    +0.000 NA
BRANCH  22  25
ATOM     25  C   UNL     1       6.287   4.299  14.350  0.00  0.00    +0.000 A 
ATOM     26  C   UNL     1       5.792   3.521  13.294  0.00  0.00    +0.000 A 
ATOM     27  C   UNL     1       6.326   3.633  12.007  0.00  0.00    +0.000 A 
ATOM     28  C   UNL     1       7.367   4.523  11.759  0.00  0.00    +0.000 A 
ATOM     29  C   UNL     1       7.885   5.290  12.800  0.00  0.00    +0.000 A 
ATOM     30  C   UNL     1       7.350   5.177  14.087  0.00  0.00    +0.000 A 
ENDBRANCH  22  25
ENDBRANCH  19  20
ENDBRANCH  17  19
ENDBRANCH   7  14
BRANCH   1  31
ATOM     31  C   UNL     1      -0.735  13.146  19.875  0.00  0.00    +0.000 C 
BRANCH  31  33
ATOM     32  C   UNL     1      -0.120  15.425  18.874  0.00  0.00    +0.000 C 
ATOM     33  C   UNL     1       0.394  14.071  19.372  0.00  0.00    +0.000 C 
ATOM     34  C   UNL     1       1.408  14.303  20.496  0.00  0.00    +0.000 C 
ENDBRANCH  31  33
ENDBRANCH   1  31
TORSDOF 6
ENDMDL
MODEL 8
REMARK VINA RESULT:      -7.6      3.412     10.435
REMARK  Name = 
REMARK  8 active torsions:
REMARK  status: ('A' for Active; 'I' for Inactive)
REMARK    1  A    between atoms: C_1  and  C_2
REMARK    2  A    between atoms: C_2  and  C_3
REMARK    3  A    between atoms: C_2  and  C_4
REMARK    4  A    between atoms: C_4  and  N_5
REMARK    5  A    between atoms: C_11  and  C_12
REMARK    6  A    between atoms: N_15  and  C_16
REMARK    7  A    between atoms: C_16  and  C_17
REMARK    8  A    between atoms: C_19  and  C_20
REMARK                            x       y       z     vdW  Elec       q    Type
REMARK                         _______ _______ _______ _____ _____    ______ ____
ROOT
ATOM      1  N   UNL     1       3.429   4.821  19.134  0.00  0.00    +0.000 N 
ATOM      2  C   UNL     1       3.636   5.688  18.045  0.00  0.00    +0.000 A 
ATOM      3  O   UNL     1       4.292   5.373  17.049  0.00  0.00    +0.000 OA
ATOM      4  N   UNL     1       3.065   6.940  18.115  0.00  0.00    +0.000 N 
ATOM      5  C   UNL     1       2.381   7.338  19.219  0.00  0.00    +0.000 A 
ATOM      6  N   UNL     1       1.814   8.549  19.449  0.00  0.00    +0.000 NA
ATOM      7  C   UNL     1       1.320   8.453  20.677  0.00  0.00    +0.000 A 
ATOM      8  N   UNL     1       1.550   7.203  21.204  0.00  0.00    +0.000 N 
ATOM      9  C   UNL     1       2.217   6.487  20.261  0.00  0.00    +0.000 A 
ATOM     10  C   UNL     1       2.691   5.152  20.276  0.00  0.00    +0.000 A 
ATOM     11  O   UNL     1       2.464   4.394  21.214  0.00  0.00    +0.000 OA
ATOM     12  H   UNL     1       3.189   7.589  17.351  0.00  0.00    +0.000 HD
ATOM     13  H   UNL     1       1.277   6.871  22.120  0.00  0.00    +0.000 HD
ENDROOT
BRANCH   7  14
ATOM     14  C   UNL     1       0.604   9.525  21.404  0.00  0.00    +0.000 A 
ATOM     15  C   UNL     1       0.278   9.594  22.772  0.00  0.00    +0.000 A 
ATOM     16  N   UNL     1      -0.410  10.699  23.075  0.00  0.00    +0.000 NA
ATOM     17  N   UNL     1      -0.521  11.340  21.887  0.00  0.00    +0.000 N 
ATOM     18  C   UNL     1       0.093  10.678  20.858  0.00  0.00    +0.000 A 
BRANCH  17  19
ATOM     19  C   UNL     1      -1.342  12.539  21.787  0.00  0.00    +0.000 C 
BRANCH  19  20
ATOM     20  C   UNL     1      -0.948  13.377  20.627  0.00  0.00    +0.000 A 
ATOM     21  C   UNL     1      -0.425  14.692  20.626  0.00  0.00    +0.000 A 
ATOM     22  C   UNL     1      -0.325  15.032  19.296  0.00  0.00    +0.000 A 
ATOM     23  O   UNL     1      -0.744  13.970  18.549  0.00  0.00    +0.000 OA
ATOM     24  N   UNL     1      -1.139  12.935  19.378  0.00  0.00    +0.000 NA
BRANCH  22  25
ATOM     25  C   UNL     1       0.107  16.222  18.571  0.00  0.00    +0.000 A 
ATOM     26  C   UNL     1       1.452  16.376  18.204  0.00  0.00    +0.000 A 
ATOM     27  C   UNL     1       1.875  17.494  17.480  0.00  0.00    +0.000 A 
ATOM     28  C   UNL     1       0.959  18.478  17.117  0.00  0.00    +0.000 A 
ATOM     29  C   UNL     1      -0.376  18.352  17.490  0.00  0.00    +0.000 A 
ATOM     30  C   UNL     1      -0.799  17.233  18.214  0.00  0.00    +0.000 A 
ENDBRANCH  22  25
ENDBRANCH  19  20
ENDBRANCH  17  19
ENDBRANCH   7  14
BRANCH   1  31
ATOM     31  C   UNL     1       4.015   3.485  19.079  0.00  0.00    +0.000 C 
BRANCH  31  33
ATOM     32  C   UNL     1       1.895   2.800  17.810  0.00  0.00    +0.000 C 
ATOM     33  C   UNL     1       2.990   2.368  18.788  0.00  0.00    +0.000 C 
ATOM     34  C   UNL     1       3.713   1.141  18.221  0.00  0.00    +0.000 C 
ENDBRANCH  31  33
ENDBRANCH   1  31
TORSDOF 6
ENDMDL
MODEL 9
REMARK VINA RESULT:      -7.6      2.995     11.126
REMARK  Name = 
REMARK  8 active torsions:
REMARK  status: ('A' for Active; 'I' for Inactive)
REMARK    1  A    between atoms: C_1  and  C_2
REMARK    2  A    between atoms: C_2  and  C_3
REMARK    3  A    between atoms: C_2  and  C_4
REMARK    4  A    between atoms: C_4  and  N_5
REMARK    5  A    between atoms: C_11  and  C_12
REMARK    6  A    between atoms: N_15  and  C_16
REMARK    7  A    between atoms: C_16  and  C_17
REMARK    8  A    between atoms: C_19  and  C_20
REMARK                            x       y       z     vdW  Elec       q    Type
REMARK                         _______ _______ _______ _____ _____    ______ ____
ROOT
ATOM      1  N   UNL     1       5.470   4.682  16.239  0.00  0.00    +0.000 N 
ATOM      2  C   UNL     1       4.546   3.738  16.723  0.00  0.00    +0.000 A 
ATOM      3  O   UNL     1       4.620   2.532  16.471  0.00  0.00    +0.000 OA
ATOM      4  N   UNL     1       3.522   4.205  17.518  0.00  0.00    +0.000 N 
ATOM      5  C   UNL     1       3.379   5.531  17.771  0.00  0.00    +0.000 A 
ATOM      6  N   UNL     1       2.398   6.137  18.486  0.00  0.00    +0.000 NA
ATOM      7  C   UNL     1       2.675   7.431  18.396  0.00  0.00    +0.000 A 
ATOM      8  N   UNL     1       3.818   7.639  17.657  0.00  0.00    +0.000 N 
ATOM      9  C   UNL     1       4.274   6.419  17.272  0.00  0.00    +0.000 A 
ATOM     10  C   UNL     1       5.409   6.054  16.507  0.00  0.00    +0.000 A 
ATOM     11  O   UNL     1       6.230   6.884  16.130  0.00  0.00    +0.000 OA
ATOM     12  H   UNL     1       2.840   3.556  17.887  0.00  0.00    +0.000 HD
ATOM     13  H   UNL     1       4.245   8.530  17.439  0.00  0.00    +0.000 HD
ENDROOT
BRANCH   7  14
ATOM     14  C   UNL     1       1.887   8.526  19.004  0.00  0.00    +0.000 A 
ATOM     15  C   UNL     1       1.204   8.541  20.234  0.00  0.00    +0.000 A 
ATOM     16  N   UNL     1       0.564   9.694  20.447  0.00  0.00    +0.000 NA
ATOM     17  N   UNL     1       0.844  10.422  19.340  0.00  0.00    +0.000 N 
ATOM     18  C   UNL     1       1.656   9.764  18.454  0.00  0.00    +0.000 A 
BRANCH  17  19
ATOM     19  C   UNL     1       0.197  11.711  19.139  0.00  0.00    +0.000 C 
BRANCH  19  20
ATOM     20  C   UNL     1      -1.240  11.555  18.805  0.00  0.00    +0.000 A 
ATOM     21  C   UNL     1      -2.326  12.389  19.166  0.00  0.00    +0.000 A 
ATOM     22  C   UNL     1      -3.443  11.744  18.687  0.00  0.00    +0.000 A 
ATOM     23  O   UNL     1      -3.042  10.602  18.056  0.00  0.00    +0.000 OA
ATOM     24  N   UNL     1      -1.666  10.479  18.132  0.00  0.00    +0.000 NA
BRANCH  22  25
ATOM     25  C   UNL     1      -4.876  12.015  18.717  0.00  0.00    +0.000 A 
ATOM     26  C   UNL     1      -5.577  12.243  17.524  0.00  0.00    +0.000 A 
ATOM     27  C   UNL     1      -6.957  12.471  17.533  0.00  0.00    +0.000 A 
ATOM     28  C   UNL     1      -7.654  12.478  18.738  0.00  0.00    +0.000 A 
ATOM     29  C   UNL     1      -6.971  12.272  19.934  0.00  0.00    +0.000 A 
ATOM     30  C   UNL     1      -5.591  12.045  19.924  0.00  0.00    +0.000 A 
ENDBRANCH  22  25
ENDBRANCH  19  20
ENDBRANCH  17  19
ENDBRANCH   7  14
BRANCH   1  31
ATOM     31  C   UNL     1       6.571   4.210  15.404  0.00  0.00    +0.000 C 
BRANCH  31  33
ATOM     32  C   UNL     1       7.771   5.201  13.366  0.00  0.00    +0.000 C 
ATOM     33  C   UNL     1       6.460   4.642  13.926  0.00  0.00    +0.000 C 
ATOM     34  C   UNL     1       6.019   3.448  13.073  0.00  0.00    +0.000 C 
ENDBRANCH  31  33
ENDBRANCH   1  31
TORSDOF 6
ENDMDL
