MODEL 1
REMARK VINA RESULT:      -7.2      0.000      0.000
REMARK  Name = 
REMARK  3 active torsions:
REMARK  status: ('A' for Active; 'I' for Inactive)
REMARK    1  A    between atoms: C_4  and  S_5
REMARK    2  A    between atoms: S_5  and  C_6
REMARK    3  A    between atoms: C_6  and  C_8
REMARK                            x       y       z     vdW  Elec       q    Type
REMARK                         _______ _______ _______ _____ _____    ______ ____
ROOT
ATOM      1  S   UNL     1       4.393   3.627  17.141  0.00  0.00    +0.000 S 
ENDROOT
BRANCH   1   5
ATOM      2  O   UNL     1       7.682   5.262  13.970  0.00  0.00    +0.000 OA
ATOM      3  C   UNL     1       7.124   5.096  15.041  0.00  0.00    +0.000 C 
ATOM      4  C   UNL     1       5.677   5.362  15.322  0.00  0.00    +0.000 C 
ATOM      5  C   UNL     1       5.506   5.033  16.807  0.00  0.00    +0.000 C 
ATOM      6  C   UNL     1       6.905   4.661  17.253  0.00  0.00    +0.000 C 
ATOM      7  O   UNL     1       7.262   4.400  18.391  0.00  0.00    +0.000 OA
ATOM      8  N   UNL     1       7.731   4.676  16.176  0.00  0.00    +0.000 N 
ATOM      9  H   UNL     1       8.715   4.469  16.229  0.00  0.00    +0.000 HD
ENDBRANCH   1   5
BRANCH   1  10
ATOM     10  C   UNL     1       3.644   4.030  18.695  0.00  0.00    +0.000 C 
ATOM     11  S   UNL     1       3.743   5.539  19.428  0.00  0.00    +0.000 S 
BRANCH  10  12
ATOM     12  C   UNL     1       2.951   2.838  19.348  0.00  0.00    +0.000 C 
ATOM     13  C   UNL     1       3.233   2.644  20.841  0.00  0.00    +0.000 C 
ATOM     14  C   UNL     1       2.005   3.153  21.590  0.00  0.00    +0.000 C 
ATOM     15  C   UNL     1       0.816   2.945  20.663  0.00  0.00    +0.000 C 
ATOM     16  C   UNL     1       1.448   2.919  19.299  0.00  0.00    +0.000 C 
ATOM     17  O   UNL     1       0.811   2.941  18.252  0.00  0.00    +0.000 OA
ENDBRANCH  10  12
ENDBRANCH   1  10
TORSDOF 3
ENDMDL
MODEL 2
REMARK VINA RESULT:      -7.0      2.756      5.753
REMARK  Name = 
REMARK  3 active torsions:
REMARK  status: ('A' for Active; 'I' for Inactive)
REMARK    1  A    between atoms: C_4  and  S_5
REMARK    2  A    between atoms: S_5  and  C_6
REMARK    3  A    between atoms: C_6  and  C_8
REMARK                            x       y       z     vdW  Elec       q    Type
REMARK                         _______ _______ _______ _____ _____    ______ ____
ROOT
ATOM      1  S   UNL     1       1.654   4.092  17.656  0.00  0.00    +0.000 S 
ENDROOT
BRANCH   1   5
ATOM      2  O   UNL     1       2.340   3.178  22.372  0.00  0.00    +0.000 OA
ATOM      3  C   UNL     1       2.249   2.960  21.176  0.00  0.00    +0.000 C 
ATOM      4  C   UNL     1       1.081   3.318  20.309  0.00  0.00    +0.000 C 
ATOM      5  C   UNL     1       1.456   2.793  18.921  0.00  0.00    +0.000 C 
ATOM      6  C   UNL     1       2.797   2.124  19.144  0.00  0.00    +0.000 C 
ATOM      7  O   UNL     1       3.442   1.494  18.321  0.00  0.00    +0.000 OA
ATOM      8  N   UNL     1       3.180   2.318  20.430  0.00  0.00    +0.000 N 
ATOM      9  H   UNL     1       4.038   1.956  20.815  0.00  0.00    +0.000 HD
ENDBRANCH   1   5
BRANCH   1  10
ATOM     10  C   UNL     1       2.980   5.093  18.271  0.00  0.00    +0.000 C 
ATOM     11  S   UNL     1       2.805   6.268  19.460  0.00  0.00    +0.000 S 
BRANCH  10  12
ATOM     12  C   UNL     1       4.303   4.832  17.557  0.00  0.00    +0.000 C 
ATOM     13  C   UNL     1       4.736   5.905  16.552  0.00  0.00    +0.000 C 
ATOM     14  C   UNL     1       5.822   6.732  17.233  0.00  0.00    +0.000 C 
ATOM     15  C   UNL     1       6.522   5.802  18.215  0.00  0.00    +0.000 C 
ATOM     16  C   UNL     1       5.481   4.752  18.490  0.00  0.00    +0.000 C 
ATOM     17  O   UNL     1       5.586   3.904  19.368  0.00  0.00    +0.000 OA
ENDBRANCH  10  12
ENDBRANCH   1  10
TORSDOF 3
ENDMDL
MODEL 3
REMARK VINA RESULT:      -7.0      1.644      1.927
REMARK  Name = 
REMARK  3 active torsions:
REMARK  status: ('A' for Active; 'I' for Inactive)
REMARK    1  A    between atoms: C_4  and  S_5
REMARK    2  A    between atoms: S_5  and  C_6
REMARK    3  A    between atoms: C_6  and  C_8
REMARK                            x       y       z     vdW  Elec       q    Type
REMARK                         _______ _______ _______ _____ _____    ______ ____
ROOT
ATOM      1  S   UNL     1       4.367   3.242  16.891  0.00  0.00    +0.000 S 
ENDROOT
BRANCH   1   5
ATOM      2  O   UNL     1       7.733   5.431  14.167  0.00  0.00    +0.000 OA
ATOM      3  C   UNL     1       7.082   5.154  15.159  0.00  0.00    +0.000 C 
ATOM      4  C   UNL     1       5.588   5.198  15.264  0.00  0.00    +0.000 C 
ATOM      5  C   UNL     1       5.292   4.804  16.713  0.00  0.00    +0.000 C 
ATOM      6  C   UNL     1       6.668   4.626  17.322  0.00  0.00    +0.000 C 
ATOM      7  O   UNL     1       6.921   4.386  18.492  0.00  0.00    +0.000 OA
ATOM      8  N   UNL     1       7.605   4.793  16.355  0.00  0.00    +0.000 N 
ATOM      9  H   UNL     1       8.595   4.729  16.526  0.00  0.00    +0.000 HD
ENDBRANCH   1   5
BRANCH   1  10
ATOM     10  C   UNL     1       3.675   3.335  18.519  0.00  0.00    +0.000 C 
ATOM     11  S   UNL     1       4.225   2.443  19.832  0.00  0.00    +0.000 S 
BRANCH  10  12
ATOM     12  C   UNL     1       2.467   4.264  18.599  0.00  0.00    +0.000 C 
ATOM     13  C   UNL     1       1.162   3.615  19.070  0.00  0.00    +0.000 C 
ATOM     14  C   UNL     1       0.968   4.026  20.527  0.00  0.00    +0.000 C 
ATOM     15  C   UNL     1       1.636   5.384  20.685  0.00  0.00    +0.000 C 
ATOM     16  C   UNL     1       2.648   5.398  19.573  0.00  0.00    +0.000 C 
ATOM     17  O   UNL     1       3.519   6.252  19.455  0.00  0.00    +0.000 OA
ENDBRANCH  10  12
ENDBRANCH   1  10
TORSDOF 3
ENDMDL
MODEL 4
REMARK VINA RESULT:      -7.0      1.511      1.974
REMARK  Name = 
REMARK  3 active torsions:
REMARK  status: ('A' for Active; 'I' for Inactive)
REMARK    1  A    between atoms: C_4  and  S_5
REMARK    2  A    between atoms: S_5  and  C_6
REMARK    3  A    between atoms: C_6  and  C_8
REMARK                            x       y       z     vdW  Elec       q    Type
REMARK                         _______ _______ _______ _____ _____    ______ ____
ROOT
ATOM      1  S   UNL     1       4.656   4.847  18.904  0.00  0.00    +0.000 S 
ENDROOT
BRANCH   1   5
ATOM      2  O   UNL     1       6.836   4.177  14.622  0.00  0.00    +0.000 OA
ATOM      3  C   UNL     1       6.685   4.556  15.770  0.00  0.00    +0.000 C 
ATOM      4  C   UNL     1       5.538   5.376  16.276  0.00  0.00    +0.000 C 
ATOM      5  C   UNL     1       5.852   5.607  17.756  0.00  0.00    +0.000 C 
ATOM      6  C   UNL     1       7.198   4.936  17.943  0.00  0.00    +0.000 C 
ATOM      7  O   UNL     1       7.878   4.937  18.957  0.00  0.00    +0.000 OA
ATOM      8  N   UNL     1       7.555   4.330  16.783  0.00  0.00    +0.000 N 
ATOM      9  H   UNL     1       8.418   3.825  16.664  0.00  0.00    +0.000 HD
ENDBRANCH   1   5
BRANCH   1  10
ATOM     10  C   UNL     1       3.091   5.498  18.388  0.00  0.00    +0.000 C 
ATOM     11  S   UNL     1       2.725   7.137  18.321  0.00  0.00    +0.000 S 
BRANCH  10  12
ATOM     12  C   UNL     1       2.069   4.409  18.073  0.00  0.00    +0.000 C 
ATOM     13  C   UNL     1       2.574   3.261  17.193  0.00  0.00    +0.000 C 
ATOM     14  C   UNL     1       2.831   2.077  18.120  0.00  0.00    +0.000 C 
ATOM     15  C   UNL     1       1.861   2.222  19.284  0.00  0.00    +0.000 C 
ATOM     16  C   UNL     1       1.560   3.695  19.296  0.00  0.00    +0.000 C 
ATOM     17  O   UNL     1       0.946   4.257  20.195  0.00  0.00    +0.000 OA
ENDBRANCH  10  12
ENDBRANCH   1  10
TORSDOF 3
ENDMDL
MODEL 5
REMARK VINA RESULT:      -7.0      1.466      1.534
REMARK  Name = 
REMARK  3 active torsions:
REMARK  status: ('A' for Active; 'I' for Inactive)
REMARK    1  A    between atoms: C_4  and  S_5
REMARK    2  A    between atoms: S_5  and  C_6
REMARK    3  A    between atoms: C_6  and  C_8
REMARK                            x       y       z     vdW  Elec       q    Type
REMARK                         _______ _______ _______ _____ _____    ______ ____
ROOT
ATOM      1  S   UNL     1       5.323   5.229  18.795  0.00  0.00    +0.000 S 
ENDROOT
BRANCH   1   5
ATOM      2  O   UNL     1       6.556   3.788  14.329  0.00  0.00    +0.000 OA
ATOM      3  C   UNL     1       6.335   4.551  15.254  0.00  0.00    +0.000 C 
ATOM      4  C   UNL     1       5.070   4.611  16.053  0.00  0.00    +0.000 C 
ATOM      5  C   UNL     1       5.296   5.752  17.048  0.00  0.00    +0.000 C 
ATOM      6  C   UNL     1       6.667   6.281  16.677  0.00  0.00    +0.000 C 
ATOM      7  O   UNL     1       7.228   7.252  17.160  0.00  0.00    +0.000 OA
ATOM      8  N   UNL     1       7.189   5.505  15.694  0.00  0.00    +0.000 N 
ATOM      9  H   UNL     1       8.092   5.669  15.279  0.00  0.00    +0.000 HD
ENDBRANCH   1   5
BRANCH   1  10
ATOM     10  C   UNL     1       3.612   5.048  19.216  0.00  0.00    +0.000 C 
ATOM     11  S   UNL     1       2.595   6.326  19.610  0.00  0.00    +0.000 S 
BRANCH  10  12
ATOM     12  C   UNL     1       3.161   3.590  19.258  0.00  0.00    +0.000 C 
ATOM     13  C   UNL     1       2.798   3.048  20.644  0.00  0.00    +0.000 C 
ATOM     14  C   UNL     1       1.274   3.019  20.719  0.00  0.00    +0.000 C 
ATOM     15  C   UNL     1       0.776   2.812  19.295  0.00  0.00    +0.000 C 
ATOM     16  C   UNL     1       1.914   3.327  18.458  0.00  0.00    +0.000 C 
ATOM     17  O   UNL     1       1.844   3.498  17.246  0.00  0.00    +0.000 OA
ENDBRANCH  10  12
ENDBRANCH   1  10
TORSDOF 3
ENDMDL
MODEL 6
REMARK VINA RESULT:      -6.8      1.951      2.311
REMARK  Name = 
REMARK  3 active torsions:
REMARK  status: ('A' for Active; 'I' for Inactive)
REMARK    1  A    between atoms: C_4  and  S_5
REMARK    2  A    between atoms: S_5  and  C_6
REMARK    3  A    between atoms: C_6  and  C_8
REMARK                            x       y       z     vdW  Elec       q    Type
REMARK                         _______ _______ _______ _____ _____    ______ ____
ROOT
ATOM      1  S   UNL     1       5.533   5.140  18.912  0.00  0.00    +0.000 S 
ENDROOT
BRANCH   1   5
ATOM      2  O   UNL     1       6.576   3.782  14.372  0.00  0.00    +0.000 OA
ATOM      3  C   UNL     1       6.335   4.527  15.305  0.00  0.00    +0.000 C 
ATOM      4  C   UNL     1       5.141   4.443  16.205  0.00  0.00    +0.000 C 
ATOM      5  C   UNL     1       5.299   5.621  17.168  0.00  0.00    +0.000 C 
ATOM      6  C   UNL     1       6.557   6.312  16.682  0.00  0.00    +0.000 C 
ATOM      7  O   UNL     1       7.027   7.355  17.108  0.00  0.00    +0.000 OA
ATOM      8  N   UNL     1       7.093   5.590  15.666  0.00  0.00    +0.000 N 
ATOM      9  H   UNL     1       7.931   5.859  15.177  0.00  0.00    +0.000 HD
ENDBRANCH   1   5
BRANCH   1  10
ATOM     10  C   UNL     1       4.224   3.986  19.218  0.00  0.00    +0.000 C 
ATOM     11  S   UNL     1       4.460   2.353  19.541  0.00  0.00    +0.000 S 
BRANCH  10  12
ATOM     12  C   UNL     1       2.838   4.611  19.090  0.00  0.00    +0.000 C 
ATOM     13  C   UNL     1       1.965   4.059  17.958  0.00  0.00    +0.000 C 
ATOM     14  C   UNL     1       0.952   3.118  18.603  0.00  0.00    +0.000 C 
ATOM     15  C   UNL     1       0.718   3.637  20.015  0.00  0.00    +0.000 C 
ATOM     16  C   UNL     1       1.975   4.408  20.307  0.00  0.00    +0.000 C 
ATOM     17  O   UNL     1       2.263   4.846  21.415  0.00  0.00    +0.000 OA
ENDBRANCH  10  12
ENDBRANCH   1  10
TORSDOF 3
ENDMDL
MODEL 7
REMARK VINA RESULT:      -6.8      1.859      2.550
REMARK  Name = 
REMARK  3 active torsions:
REMARK  status: ('A' for Active; 'I' for Inactive)
REMARK    1  A    between atoms: C_4  and  S_5
REMARK    2  A    between atoms: S_5  and  C_6
REMARK    3  A    between atoms: C_6  and  C_8
REMARK                            x       y       z     vdW  Elec       q    Type
REMARK                         _______ _______ _______ _____ _____    ______ ____
ROOT
ATOM      1  S   UNL     1       3.689   5.741  17.684  0.00  0.00    +0.000 S 
ENDROOT
BRANCH   1   5
ATOM      2  O   UNL     1       8.256   4.185  17.177  0.00  0.00    +0.000 OA
ATOM      3  C   UNL     1       7.173   4.645  16.859  0.00  0.00    +0.000 C 
ATOM      4  C   UNL     1       5.843   4.008  17.119  0.00  0.00    +0.000 C 
ATOM      5  C   UNL     1       4.828   4.965  16.490  0.00  0.00    +0.000 C 
ATOM      6  C   UNL     1       5.692   6.044  15.870  0.00  0.00    +0.000 C 
ATOM      7  O   UNL     1       5.309   6.982  15.188  0.00  0.00    +0.000 OA
ATOM      8  N   UNL     1       6.990   5.802  16.179  0.00  0.00    +0.000 N 
ATOM      9  H   UNL     1       7.752   6.383  15.868  0.00  0.00    +0.000 HD
ENDBRANCH   1   5
BRANCH   1  10
ATOM     10  C   UNL     1       2.905   4.370  18.486  0.00  0.00    +0.000 C 
ATOM     11  S   UNL     1       1.910   3.262  17.706  0.00  0.00    +0.000 S 
BRANCH  10  12
ATOM     12  C   UNL     1       3.166   4.331  19.989  0.00  0.00    +0.000 C 
ATOM     13  C   UNL     1       1.954   4.625  20.880  0.00  0.00    +0.000 C 
ATOM     14  C   UNL     1       1.469   3.282  21.417  0.00  0.00    +0.000 C 
ATOM     15  C   UNL     1       2.692   2.379  21.493  0.00  0.00    +0.000 C 
ATOM     16  C   UNL     1       3.626   2.985  20.482  0.00  0.00    +0.000 C 
ATOM     17  O   UNL     1       4.665   2.453  20.110  0.00  0.00    +0.000 OA
ENDBRANCH  10  12
ENDBRANCH   1  10
TORSDOF 3
ENDMDL
MODEL 8
REMARK VINA RESULT:      -6.8      2.034      2.374
REMARK  Name = 
REMARK  3 active torsions:
REMARK  status: ('A' for Active; 'I' for Inactive)
REMARK    1  A    between atoms: C_4  and  S_5
REMARK    2  A    between atoms: S_5  and  C_6
REMARK    3  A    between atoms: C_6  and  C_8
REMARK                            x       y       z     vdW  Elec       q    Type
REMARK                         _______ _______ _______ _____ _____    ______ ____
ROOT
ATOM      1  S   UNL     1       5.497   4.549  18.690  0.00  0.00    +0.000 S 
ENDROOT
BRANCH   1   5
ATOM      2  O   UNL     1       7.606   5.273  14.381  0.00  0.00    +0.000 OA
ATOM      3  C   UNL     1       6.735   5.286  15.233  0.00  0.00    +0.000 C 
ATOM      4  C   UNL     1       6.254   4.098  16.009  0.00  0.00    +0.000 C 
ATOM      5  C   UNL     1       5.141   4.647  16.904  0.00  0.00    +0.000 C 
ATOM      6  C   UNL     1       5.050   6.106  16.505  0.00  0.00    +0.000 C 
ATOM      7  O   UNL     1       4.236   6.922  16.908  0.00  0.00    +0.000 OA
ATOM      8  N   UNL     1       6.022   6.378  15.599  0.00  0.00    +0.000 N 
ATOM      9  H   UNL     1       6.154   7.285  15.182  0.00  0.00    +0.000 HD
ENDBRANCH   1   5
BRANCH   1  10
ATOM     10  C   UNL     1       4.182   3.554  19.337  0.00  0.00    +0.000 C 
ATOM     11  S   UNL     1       4.404   2.071  20.095  0.00  0.00    +0.000 S 
BRANCH  10  12
ATOM     12  C   UNL     1       2.801   4.149  19.074  0.00  0.00    +0.000 C 
ATOM     13  C   UNL     1       1.932   3.386  18.069  0.00  0.00    +0.000 C 
ATOM     14  C   UNL     1       0.907   2.600  18.882  0.00  0.00    +0.000 C 
ATOM     15  C   UNL     1       0.668   3.394  20.159  0.00  0.00    +0.000 C 
ATOM     16  C   UNL     1       1.929   4.201  20.300  0.00  0.00    +0.000 C 
ATOM     17  O   UNL     1       2.212   4.852  21.299  0.00  0.00    +0.000 OA
ENDBRANCH  10  12
ENDBRANCH   1  10
TORSDOF 3
ENDMDL
MODEL 9
REMARK VINA RESULT:      -6.8      1.408      1.745
REMARK  Name = 
REMARK  3 active torsions:
REMARK  status: ('A' for Active; 'I' for Inactive)
REMARK    1  A    between atoms: C_4  and  S_5
REMARK    2  A    between atoms: S_5  and  C_6
REMARK    3  A    between atoms: C_6  and  C_8
REMARK                            x       y       z     vdW  Elec       q    Type
REMARK                         _______ _______ _______ _____ _____    ______ ____
ROOT
ATOM      1  S   UNL     1       3.922   4.268  17.374  0.00  0.00    +0.000 S 
ENDROOT
BRANCH   1   5
ATOM      2  O   UNL     1       7.617   5.230  14.381  0.00  0.00    +0.000 OA
ATOM      3  C   UNL     1       6.990   5.166  15.424  0.00  0.00    +0.000 C 
ATOM      4  C   UNL     1       5.621   5.727  15.656  0.00  0.00    +0.000 C 
ATOM      5  C   UNL     1       5.319   5.412  17.123  0.00  0.00    +0.000 C 
ATOM      6  C   UNL     1       6.589   4.744  17.612  0.00  0.00    +0.000 C 
ATOM      7  O   UNL     1       6.832   4.391  18.756  0.00  0.00    +0.000 OA
ATOM      8  N   UNL     1       7.445   4.605  16.570  0.00  0.00    +0.000 N 
ATOM      9  H   UNL     1       8.360   4.193  16.655  0.00  0.00    +0.000 HD
ENDBRANCH   1   5
BRANCH   1  10
ATOM     10  C   UNL     1       2.697   5.255  18.188  0.00  0.00    +0.000 C 
ATOM     11  S   UNL     1       2.758   6.931  18.304  0.00  0.00    +0.000 S 
BRANCH  10  12
ATOM     12  C   UNL     1       1.602   4.421  18.846  0.00  0.00    +0.000 C 
ATOM     13  C   UNL     1       1.402   3.016  18.270  0.00  0.00    +0.000 C 
ATOM     14  C   UNL     1       2.059   2.044  19.246  0.00  0.00    +0.000 C 
ATOM     15  C   UNL     1       1.969   2.687  20.623  0.00  0.00    +0.000 C 
ATOM     16  C   UNL     1       1.850   4.153  20.306  0.00  0.00    +0.000 C 
ATOM     17  O   UNL     1       1.925   5.039  21.149  0.00  0.00    +0.000 OA
ENDBRANCH  10  12
ENDBRANCH   1  10
TORSDOF 3
ENDMDL
