MODEL 1
REMARK VINA RESULT:      -7.0      0.000      0.000
REMARK  Name = 
REMARK  10 active torsions:
REMARK  status: ('A' for Active; 'I' for Inactive)
REMARK    1  A    between atoms: C_1  and  C_2
REMARK    2  A    between atoms: C_2  and  C_3
REMARK    3  A    between atoms: C_2  and  C_4
REMARK    4  A    between atoms: C_2  and  C_5
REMARK    5  A    between atoms: N_7  and  C_8
REMARK    6  A    between atoms: C_8  and  C_9
REMARK    7  A    between atoms: C_9  and  N_10
REMARK    8  A    between atoms: N_10  and  C_11
REMARK    9  A    between atoms: C_14  and  N_15
REMARK   10  A    between atoms: C_19  and  C_20
REMARK                            x       y       z     vdW  Elec       q    Type
REMARK                         _______ _______ _______ _____ _____    ______ ____
ROOT
ATOM      1  C   UNL     1       2.111   3.770  18.877  0.00  0.00    +0.000 A 
ATOM      2  C   UNL     1       2.047   4.776  17.892  0.00  0.00    +0.000 A 
ATOM      3  C   UNL     1       1.979   6.134  18.204  0.00  0.00    +0.000 A 
ATOM      4  C   UNL     1       1.922   6.518  19.537  0.00  0.00    +0.000 A 
ATOM      5  C   UNL     1       1.925   5.548  20.547  0.00  0.00    +0.000 A 
ATOM      6  C   UNL     1       2.020   4.172  20.231  0.00  0.00    +0.000 A 
ENDROOT
BRANCH   6   7
ATOM      7  C   UNL     1       2.077   3.213  21.396  0.00  0.00    +0.000 C 
ATOM      8  F   UNL     1       3.078   2.289  21.333  0.00  0.00    +0.000 F 
ATOM      9  F   UNL     1       2.270   3.870  22.577  0.00  0.00    +0.000 F 
ATOM     10  F   UNL     1       0.923   2.510  21.553  0.00  0.00    +0.000 F 
ENDBRANCH   6   7
BRANCH   4  11
ATOM     11  N   UNL     1       1.864   7.943  19.878  0.00  0.00    +0.000 N 
ATOM     12  O   UNL     1       1.641   8.249  21.057  0.00  0.00    +0.000 OA
ATOM     13  O   UNL     1       2.036   8.760  18.960  0.00  0.00    +0.000 OA
ENDBRANCH   4  11
BRANCH   1  14
ATOM     14  N   UNL     1       2.158   2.420  18.511  0.00  0.00    +0.000 N 
ATOM     15  H   UNL     1       1.617   1.793  19.111  0.00  0.00    +0.000 HD
BRANCH  14  16
ATOM     16  C   UNL     1       3.439   1.820  18.106  0.00  0.00    +0.000 C 
BRANCH  16  17
ATOM     17  C   UNL     1       4.633   2.618  18.668  0.00  0.00    +0.000 C 
BRANCH  17  20
ATOM     18  C   UNL     1       5.606   4.783  18.001  0.00  0.00    +0.000 C 
ATOM     19  O   UNL     1       5.368   5.266  19.106  0.00  0.00    +0.000 OA
ATOM     20  N   UNL     1       5.268   3.483  17.688  0.00  0.00    +0.000 N 
ATOM     21  H   UNL     1       5.702   3.047  16.886  0.00  0.00    +0.000 HD
BRANCH  18  23
ATOM     22  C   UNL     1       7.035   4.625  15.950  0.00  0.00    +0.000 C 
ATOM     23  C   UNL     1       6.264   5.589  16.868  0.00  0.00    +0.000 C 
ATOM     24  C   UNL     1       7.253   6.606  17.457  0.00  0.00    +0.000 C 
ATOM     25  C   UNL     1       5.194   6.313  16.041  0.00  0.00    +0.000 C 
ENDBRANCH  18  23
ENDBRANCH  17  20
ENDBRANCH  16  17
ENDBRANCH  14  16
ENDBRANCH   1  14
TORSDOF 7
ENDMDL
MODEL 2
REMARK VINA RESULT:      -7.0      0.123      1.358
REMARK  Name = 
REMARK  10 active torsions:
REMARK  status: ('A' for Active; 'I' for Inactive)
REMARK    1  A    between atoms: C_1  and  C_2
REMARK    2  A    between atoms: C_2  and  C_3
REMARK    3  A    between atoms: C_2  and  C_4
REMARK    4  A    between atoms: C_2  and  C_5
REMARK    5  A    between atoms: N_7  and  C_8
REMARK    6  A    between atoms: C_8  and  C_9
REMARK    7  A    between atoms: C_9  and  N_10
REMARK    8  A    between atoms: N_10  and  C_11
REMARK    9  A    between atoms: C_14  and  N_15
REMARK   10  A    between atoms: C_19  and  C_20
REMARK                            x       y       z     vdW  Elec       q    Type
REMARK                         _______ _______ _______ _____ _____    ______ ____
ROOT
ATOM      1  C   UNL     1       2.045   3.818  18.884  0.00  0.00    +0.000 A 
ATOM      2  C   UNL     1       1.970   4.818  17.893  0.00  0.00    +0.000 A 
ATOM      3  C   UNL     1       1.921   6.178  18.198  0.00  0.00    +0.000 A 
ATOM      4  C   UNL     1       1.896   6.571  19.529  0.00  0.00    +0.000 A 
ATOM      5  C   UNL     1       1.911   5.607  20.545  0.00  0.00    +0.000 A 
ATOM      6  C   UNL     1       1.987   4.229  20.236  0.00  0.00    +0.000 A 
ENDROOT
BRANCH   6   7
ATOM      7  C   UNL     1       2.060   3.277  21.406  0.00  0.00    +0.000 C 
ATOM      8  F   UNL     1       0.931   2.544  21.623  0.00  0.00    +0.000 F 
ATOM      9  F   UNL     1       3.057   2.360  21.245  0.00  0.00    +0.000 F 
ATOM     10  F   UNL     1       2.330   3.909  22.580  0.00  0.00    +0.000 F 
ENDBRANCH   6   7
BRANCH   4  11
ATOM     11  N   UNL     1       1.858   7.999  19.862  0.00  0.00    +0.000 N 
ATOM     12  O   UNL     1       2.039   8.813  18.947  0.00  0.00    +0.000 OA
ATOM     13  O   UNL     1       1.651   8.308  21.046  0.00  0.00    +0.000 OA
ENDBRANCH   4  11
BRANCH   1  14
ATOM     14  N   UNL     1       2.072   2.465  18.525  0.00  0.00    +0.000 N 
ATOM     15  H   UNL     1       1.687   1.827  19.225  0.00  0.00    +0.000 HD
BRANCH  14  16
ATOM     16  C   UNL     1       3.270   1.908  17.878  0.00  0.00    +0.000 C 
BRANCH  16  17
ATOM     17  C   UNL     1       4.558   2.539  18.444  0.00  0.00    +0.000 C 
BRANCH  17  20
ATOM     18  C   UNL     1       5.585   4.723  17.937  0.00  0.00    +0.000 C 
ATOM     19  O   UNL     1       5.375   5.122  19.081  0.00  0.00    +0.000 OA
ATOM     20  N   UNL     1       5.206   3.461  17.527  0.00  0.00    +0.000 N 
ATOM     21  H   UNL     1       5.618   3.079  16.687  0.00  0.00    +0.000 HD
BRANCH  18  23
ATOM     22  C   UNL     1       7.261   6.543  17.542  0.00  0.00    +0.000 C 
ATOM     23  C   UNL     1       6.253   5.598  16.863  0.00  0.00    +0.000 C 
ATOM     24  C   UNL     1       5.191   6.443  16.145  0.00  0.00    +0.000 C 
ATOM     25  C   UNL     1       7.000   4.719  15.852  0.00  0.00    +0.000 C 
ENDBRANCH  18  23
ENDBRANCH  17  20
ENDBRANCH  16  17
ENDBRANCH  14  16
ENDBRANCH   1  14
TORSDOF 7
ENDMDL
MODEL 3
REMARK VINA RESULT:      -6.8      4.881      6.565
REMARK  Name = 
REMARK  10 active torsions:
REMARK  status: ('A' for Active; 'I' for Inactive)
REMARK    1  A    between atoms: C_1  and  C_2
REMARK    2  A    between atoms: C_2  and  C_3
REMARK    3  A    between atoms: C_2  and  C_4
REMARK    4  A    between atoms: C_2  and  C_5
REMARK    5  A    between atoms: N_7  and  C_8
REMARK    6  A    between atoms: C_8  and  C_9
REMARK    7  A    between atoms: C_9  and  N_10
REMARK    8  A    between atoms: N_10  and  C_11
REMARK    9  A    between atoms: C_14  and  N_15
REMARK   10  A    between atoms: C_19  and  C_20
REMARK                            x       y       z     vdW  Elec       q    Type
REMARK                         _______ _______ _______ _____ _____    ______ ____
ROOT
ATOM      1  C   UNL     1       5.632   6.490  17.089  0.00  0.00    +0.000 A 
ATOM      2  C   UNL     1       4.546   7.058  17.785  0.00  0.00    +0.000 A 
ATOM      3  C   UNL     1       3.406   6.331  18.126  0.00  0.00    +0.000 A 
ATOM      4  C   UNL     1       3.306   5.005  17.726  0.00  0.00    +0.000 A 
ATOM      5  C   UNL     1       4.338   4.417  16.984  0.00  0.00    +0.000 A 
ATOM      6  C   UNL     1       5.505   5.148  16.660  0.00  0.00    +0.000 A 
ENDROOT
BRANCH   6   7
ATOM      7  C   UNL     1       6.583   4.401  15.909  0.00  0.00    +0.000 C 
ATOM      8  F   UNL     1       7.068   5.044  14.809  0.00  0.00    +0.000 F 
ATOM      9  F   UNL     1       7.672   4.167  16.697  0.00  0.00    +0.000 F 
ATOM     10  F   UNL     1       6.171   3.178  15.480  0.00  0.00    +0.000 F 
ENDBRANCH   6   7
BRANCH   4  11
ATOM     11  N   UNL     1       2.118   4.226  18.091  0.00  0.00    +0.000 N 
ATOM     12  O   UNL     1       2.056   3.767  19.239  0.00  0.00    +0.000 OA
ATOM     13  O   UNL     1       1.246   4.069  17.223  0.00  0.00    +0.000 OA
ENDBRANCH   4  11
BRANCH   1  14
ATOM     14  N   UNL     1       6.745   7.269  16.752  0.00  0.00    +0.000 N 
ATOM     15  H   UNL     1       7.276   6.935  15.945  0.00  0.00    +0.000 HD
BRANCH  14  16
ATOM     16  C   UNL     1       7.629   7.772  17.816  0.00  0.00    +0.000 C 
BRANCH  16  17
ATOM     17  C   UNL     1       8.165   9.178  17.480  0.00  0.00    +0.000 C 
BRANCH  17  20
ATOM     18  C   UNL     1       9.089  11.185  18.576  0.00  0.00    +0.000 C 
ATOM     19  O   UNL     1       8.789  11.887  17.613  0.00  0.00    +0.000 OA
ATOM     20  N   UNL     1       8.829   9.830  18.596  0.00  0.00    +0.000 N 
ATOM     21  H   UNL     1       8.847   9.345  19.482  0.00  0.00    +0.000 HD
BRANCH  18  23
ATOM     22  C   UNL     1       9.474  13.239  19.957  0.00  0.00    +0.000 C 
ATOM     23  C   UNL     1       9.804  11.742  19.818  0.00  0.00    +0.000 C 
ATOM     24  C   UNL     1      11.323  11.585  19.660  0.00  0.00    +0.000 C 
ATOM     25  C   UNL     1       9.327  11.010  21.079  0.00  0.00    +0.000 C 
ENDBRANCH  18  23
ENDBRANCH  17  20
ENDBRANCH  16  17
ENDBRANCH  14  16
ENDBRANCH   1  14
TORSDOF 7
ENDMDL
MODEL 4
REMARK VINA RESULT:      -6.8      2.897      5.817
REMARK  Name = 
REMARK  10 active torsions:
REMARK  status: ('A' for Active; 'I' for Inactive)
REMARK    1  A    between atoms: C_1  and  C_2
REMARK    2  A    between atoms: C_2  and  C_3
REMARK    3  A    between atoms: C_2  and  C_4
REMARK    4  A    between atoms: C_2  and  C_5
REMARK    5  A    between atoms: N_7  and  C_8
REMARK    6  A    between atoms: C_8  and  C_9
REMARK    7  A    between atoms: C_9  and  N_10
REMARK    8  A    between atoms: N_10  and  C_11
REMARK    9  A    between atoms: C_14  and  N_15
REMARK   10  A    between atoms: C_19  and  C_20
REMARK                            x       y       z     vdW  Elec       q    Type
REMARK                         _______ _______ _______ _____ _____    ______ ____
ROOT
ATOM      1  C   UNL     1       3.316   5.439  18.006  0.00  0.00    +0.000 A 
ATOM      2  C   UNL     1       4.079   6.550  17.592  0.00  0.00    +0.000 A 
ATOM      3  C   UNL     1       5.241   6.424  16.831  0.00  0.00    +0.000 A 
ATOM      4  C   UNL     1       5.700   5.154  16.505  0.00  0.00    +0.000 A 
ATOM      5  C   UNL     1       5.003   4.022  16.944  0.00  0.00    +0.000 A 
ATOM      6  C   UNL     1       3.810   4.151  17.694  0.00  0.00    +0.000 A 
ENDROOT
BRANCH   6   7
ATOM      7  C   UNL     1       3.104   2.869  18.066  0.00  0.00    +0.000 C 
ATOM      8  F   UNL     1       2.996   2.639  19.406  0.00  0.00    +0.000 F 
ATOM      9  F   UNL     1       1.824   2.847  17.595  0.00  0.00    +0.000 F 
ATOM     10  F   UNL     1       3.707   1.768  17.541  0.00  0.00    +0.000 F 
ENDBRANCH   6   7
BRANCH   4  11
ATOM     11  N   UNL     1       6.913   5.010  15.694  0.00  0.00    +0.000 N 
ATOM     12  O   UNL     1       6.875   5.396  14.518  0.00  0.00    +0.000 OA
ATOM     13  O   UNL     1       7.908   4.502  16.234  0.00  0.00    +0.000 OA
ENDBRANCH   4  11
BRANCH   1  14
ATOM     14  N   UNL     1       2.168   5.619  18.786  0.00  0.00    +0.000 N 
ATOM     15  H   UNL     1       1.519   6.329  18.439  0.00  0.00    +0.000 HD
BRANCH  14  16
ATOM     16  C   UNL     1       2.282   5.654  20.253  0.00  0.00    +0.000 C 
BRANCH  16  17
ATOM     17  C   UNL     1       1.757   6.986  20.824  0.00  0.00    +0.000 C 
BRANCH  17  20
ATOM     18  C   UNL     1       0.892   9.166  20.063  0.00  0.00    +0.000 C 
ATOM     19  O   UNL     1       0.230   9.298  21.090  0.00  0.00    +0.000 OA
ATOM     20  N   UNL     1       1.670   8.049  19.838  0.00  0.00    +0.000 N 
ATOM     21  H   UNL     1       2.386   8.091  19.126  0.00  0.00    +0.000 HD
BRANCH  18  23
ATOM     22  C   UNL     1      -0.512  10.234  18.284  0.00  0.00    +0.000 C 
ATOM     23  C   UNL     1       0.884  10.209  18.932  0.00  0.00    +0.000 C 
ATOM     24  C   UNL     1       1.918   9.827  17.863  0.00  0.00    +0.000 C 
ATOM     25  C   UNL     1       1.196  11.603  19.493  0.00  0.00    +0.000 C 
ENDBRANCH  18  23
ENDBRANCH  17  20
ENDBRANCH  16  17
ENDBRANCH  14  16
ENDBRANCH   1  14
TORSDOF 7
ENDMDL
MODEL 5
REMARK VINA RESULT:      -6.8      4.860      6.853
REMARK  Name = 
REMARK  10 active torsions:
REMARK  status: ('A' for Active; 'I' for Inactive)
REMARK    1  A    between atoms: C_1  and  C_2
REMARK    2  A    between atoms: C_2  and  C_3
REMARK    3  A    between atoms: C_2  and  C_4
REMARK    4  A    between atoms: C_2  and  C_5
REMARK    5  A    between atoms: N_7  and  C_8
REMARK    6  A    between atoms: C_8  and  C_9
REMARK    7  A    between atoms: C_9  and  N_10
REMARK    8  A    between atoms: N_10  and  C_11
REMARK    9  A    between atoms: C_14  and  N_15
REMARK   10  A    between atoms: C_19  and  C_20
REMARK                            x       y       z     vdW  Elec       q    Type
REMARK                         _______ _______ _______ _____ _____    ______ ____
ROOT
ATOM      1  C   UNL     1       6.478   5.449  17.358  0.00  0.00    +0.000 A 
ATOM      2  C   UNL     1       6.251   5.127  18.711  0.00  0.00    +0.000 A 
ATOM      3  C   UNL     1       5.295   4.195  19.114  0.00  0.00    +0.000 A 
ATOM      4  C   UNL     1       4.495   3.590  18.154  0.00  0.00    +0.000 A 
ATOM      5  C   UNL     1       4.648   3.923  16.803  0.00  0.00    +0.000 A 
ATOM      6  C   UNL     1       5.636   4.849  16.392  0.00  0.00    +0.000 A 
ENDROOT
BRANCH   6   7
ATOM      7  C   UNL     1       5.758   5.092  14.906  0.00  0.00    +0.000 C 
ATOM      8  F   UNL     1       7.031   5.048  14.418  0.00  0.00    +0.000 F 
ATOM      9  F   UNL     1       5.067   4.160  14.187  0.00  0.00    +0.000 F 
ATOM     10  F   UNL     1       5.250   6.296  14.528  0.00  0.00    +0.000 F 
ENDBRANCH   6   7
BRANCH   4  11
ATOM     11  N   UNL     1       3.495   2.599  18.565  0.00  0.00    +0.000 N 
ATOM     12  O   UNL     1       2.709   2.178  17.706  0.00  0.00    +0.000 OA
ATOM     13  O   UNL     1       3.492   2.245  19.754  0.00  0.00    +0.000 OA
ENDBRANCH   4  11
BRANCH   1  14
ATOM     14  N   UNL     1       7.437   6.406  17.007  0.00  0.00    +0.000 N 
ATOM     15  H   UNL     1       8.402   6.146  17.220  0.00  0.00    +0.000 HD
BRANCH  14  16
ATOM     16  C   UNL     1       7.180   7.828  17.285  0.00  0.00    +0.000 C 
BRANCH  16  17
ATOM     17  C   UNL     1       8.284   8.433  18.175  0.00  0.00    +0.000 C 
BRANCH  17  20
ATOM     18  C   UNL     1       9.189  10.636  18.813  0.00  0.00    +0.000 C 
ATOM     19  O   UNL     1       9.508  10.218  19.924  0.00  0.00    +0.000 OA
ATOM     20  N   UNL     1       8.568   9.828  17.884  0.00  0.00    +0.000 N 
ATOM     21  H   UNL     1       8.559  10.118  16.916  0.00  0.00    +0.000 HD
BRANCH  18  23
ATOM     22  C   UNL     1       9.452  12.991  19.627  0.00  0.00    +0.000 C 
ATOM     23  C   UNL     1       9.421  12.093  18.377  0.00  0.00    +0.000 C 
ATOM     24  C   UNL     1       8.273  12.554  17.467  0.00  0.00    +0.000 C 
ATOM     25  C   UNL     1      10.761  12.220  17.641  0.00  0.00    +0.000 C 
ENDBRANCH  18  23
ENDBRANCH  17  20
ENDBRANCH  16  17
ENDBRANCH  14  16
ENDBRANCH   1  14
TORSDOF 7
ENDMDL
MODEL 6
REMARK VINA RESULT:      -6.8      4.886      6.581
REMARK  Name = 
REMARK  10 active torsions:
REMARK  status: ('A' for Active; 'I' for Inactive)
REMARK    1  A    between atoms: C_1  and  C_2
REMARK    2  A    between atoms: C_2  and  C_3
REMARK    3  A    between atoms: C_2  and  C_4
REMARK    4  A    between atoms: C_2  and  C_5
REMARK    5  A    between atoms: N_7  and  C_8
REMARK    6  A    between atoms: C_8  and  C_9
REMARK    7  A    between atoms: C_9  and  N_10
REMARK    8  A    between atoms: N_10  and  C_11
REMARK    9  A    between atoms: C_14  and  N_15
REMARK   10  A    between atoms: C_19  and  C_20
REMARK                            x       y       z     vdW  Elec       q    Type
REMARK                         _______ _______ _______ _____ _____    ______ ____
ROOT
ATOM      1  C   UNL     1       5.655   6.435  17.066  0.00  0.00    +0.000 A 
ATOM      2  C   UNL     1       4.567   7.000  17.761  0.00  0.00    +0.000 A 
ATOM      3  C   UNL     1       3.417   6.277  18.077  0.00  0.00    +0.000 A 
ATOM      4  C   UNL     1       3.310   4.960  17.650  0.00  0.00    +0.000 A 
ATOM      5  C   UNL     1       4.343   4.377  16.907  0.00  0.00    +0.000 A 
ATOM      6  C   UNL     1       5.521   5.103  16.610  0.00  0.00    +0.000 A 
ENDROOT
BRANCH   6   7
ATOM      7  C   UNL     1       6.600   4.361  15.856  0.00  0.00    +0.000 C 
ATOM      8  F   UNL     1       6.236   3.133  15.391  0.00  0.00    +0.000 F 
ATOM      9  F   UNL     1       7.008   5.055  14.754  0.00  0.00    +0.000 F 
ATOM     10  F   UNL     1       7.720   4.166  16.602  0.00  0.00    +0.000 F 
ENDBRANCH   6   7
BRANCH   4  11
ATOM     11  N   UNL     1       2.111   4.186  17.987  0.00  0.00    +0.000 N 
ATOM     12  O   UNL     1       2.160   3.440  18.975  0.00  0.00    +0.000 OA
ATOM     13  O   UNL     1       1.116   4.320  17.258  0.00  0.00    +0.000 OA
ENDBRANCH   4  11
BRANCH   1  14
ATOM     14  N   UNL     1       6.779   7.211  16.757  0.00  0.00    +0.000 N 
ATOM     15  H   UNL     1       7.369   6.835  16.011  0.00  0.00    +0.000 HD
BRANCH  14  16
ATOM     16  C   UNL     1       7.579   7.797  17.843  0.00  0.00    +0.000 C 
BRANCH  16  17
ATOM     17  C   UNL     1       8.043   9.224  17.490  0.00  0.00    +0.000 C 
BRANCH  17  20
ATOM     18  C   UNL     1       9.016  11.231  18.543  0.00  0.00    +0.000 C 
ATOM     19  O   UNL     1       8.586  11.950  17.643  0.00  0.00    +0.000 OA
ATOM     20  N   UNL     1       8.806   9.867  18.546  0.00  0.00    +0.000 N 
ATOM     21  H   UNL     1       8.939   9.357  19.408  0.00  0.00    +0.000 HD
BRANCH  18  23
ATOM     22  C   UNL     1      11.334  11.475  19.460  0.00  0.00    +0.000 C 
ATOM     23  C   UNL     1       9.847  11.778  19.716  0.00  0.00    +0.000 C 
ATOM     24  C   UNL     1       9.421  11.091  21.022  0.00  0.00    +0.000 C 
ATOM     25  C   UNL     1       9.663  13.297  19.834  0.00  0.00    +0.000 C 
ENDBRANCH  18  23
ENDBRANCH  17  20
ENDBRANCH  16  17
ENDBRANCH  14  16
ENDBRANCH   1  14
TORSDOF 7
ENDMDL
MODEL 7
REMARK VINA RESULT:      -6.8      3.201      6.125
REMARK  Name = 
REMARK  10 active torsions:
REMARK  status: ('A' for Active; 'I' for Inactive)
REMARK    1  A    between atoms: C_1  and  C_2
REMARK    2  A    between atoms: C_2  and  C_3
REMARK    3  A    between atoms: C_2  and  C_4
REMARK    4  A    between atoms: C_2  and  C_5
REMARK    5  A    between atoms: N_7  and  C_8
REMARK    6  A    between atoms: C_8  and  C_9
REMARK    7  A    between atoms: C_9  and  N_10
REMARK    8  A    between atoms: N_10  and  C_11
REMARK    9  A    between atoms: C_14  and  N_15
REMARK   10  A    between atoms: C_19  and  C_20
REMARK                            x       y       z     vdW  Elec       q    Type
REMARK                         _______ _______ _______ _____ _____    ______ ____
ROOT
ATOM      1  C   UNL     1       4.246   5.102  18.782  0.00  0.00    +0.000 A 
ATOM      2  C   UNL     1       5.507   5.714  18.633  0.00  0.00    +0.000 A 
ATOM      3  C   UNL     1       6.288   5.561  17.487  0.00  0.00    +0.000 A 
ATOM      4  C   UNL     1       5.835   4.735  16.467  0.00  0.00    +0.000 A 
ATOM      5  C   UNL     1       4.614   4.063  16.599  0.00  0.00    +0.000 A 
ATOM      6  C   UNL     1       3.810   4.238  17.750  0.00  0.00    +0.000 A 
ENDROOT
BRANCH   6   7
ATOM      7  C   UNL     1       2.484   3.515  17.765  0.00  0.00    +0.000 C 
ATOM      8  F   UNL     1       1.398   4.299  17.511  0.00  0.00    +0.000 F 
ATOM      9  F   UNL     1       2.441   2.528  16.824  0.00  0.00    +0.000 F 
ATOM     10  F   UNL     1       2.236   2.900  18.953  0.00  0.00    +0.000 F 
ENDBRANCH   6   7
BRANCH   4  11
ATOM     11  N   UNL     1       6.641   4.577  15.252  0.00  0.00    +0.000 N 
ATOM     12  O   UNL     1       7.632   5.306  15.115  0.00  0.00    +0.000 OA
ATOM     13  O   UNL     1       6.278   3.723  14.428  0.00  0.00    +0.000 OA
ENDBRANCH   4  11
BRANCH   1  14
ATOM     14  N   UNL     1       3.510   5.271  19.961  0.00  0.00    +0.000 N 
ATOM     15  H   UNL     1       3.372   4.419  20.508  0.00  0.00    +0.000 HD
BRANCH  14  16
ATOM     16  C   UNL     1       2.305   6.116  19.952  0.00  0.00    +0.000 C 
BRANCH  16  17
ATOM     17  C   UNL     1       2.525   7.395  19.120  0.00  0.00    +0.000 C 
BRANCH  17  20
ATOM     18  C   UNL     1       1.350   9.479  18.521  0.00  0.00    +0.000 C 
ATOM     19  O   UNL     1       1.956   9.552  17.455  0.00  0.00    +0.000 OA
ATOM     20  N   UNL     1       1.573   8.452  19.416  0.00  0.00    +0.000 N 
ATOM     21  H   UNL     1       0.889   8.282  20.140  0.00  0.00    +0.000 HD
BRANCH  18  23
ATOM     22  C   UNL     1      -0.038  10.293  20.442  0.00  0.00    +0.000 C 
ATOM     23  C   UNL     1       0.323  10.535  18.965  0.00  0.00    +0.000 C 
ATOM     24  C   UNL     1      -0.952  10.411  18.119  0.00  0.00    +0.000 C 
ATOM     25  C   UNL     1       0.915  11.944  18.824  0.00  0.00    +0.000 C 
ENDBRANCH  18  23
ENDBRANCH  17  20
ENDBRANCH  16  17
ENDBRANCH  14  16
ENDBRANCH   1  14
TORSDOF 7
ENDMDL
MODEL 8
REMARK VINA RESULT:      -6.7      3.828      6.562
REMARK  Name = 
REMARK  10 active torsions:
REMARK  status: ('A' for Active; 'I' for Inactive)
REMARK    1  A    between atoms: C_1  and  C_2
REMARK    2  A    between atoms: C_2  and  C_3
REMARK    3  A    between atoms: C_2  and  C_4
REMARK    4  A    between atoms: C_2  and  C_5
REMARK    5  A    between atoms: N_7  and  C_8
REMARK    6  A    between atoms: C_8  and  C_9
REMARK    7  A    between atoms: C_9  and  N_10
REMARK    8  A    between atoms: N_10  and  C_11
REMARK    9  A    between atoms: C_14  and  N_15
REMARK   10  A    between atoms: C_19  and  C_20
REMARK                            x       y       z     vdW  Elec       q    Type
REMARK                         _______ _______ _______ _____ _____    ______ ____
ROOT
ATOM      1  C   UNL     1       3.368   6.110  17.750  0.00  0.00    +0.000 A 
ATOM      2  C   UNL     1       4.514   6.866  17.432  0.00  0.00    +0.000 A 
ATOM      3  C   UNL     1       5.616   6.323  16.772  0.00  0.00    +0.000 A 
ATOM      4  C   UNL     1       5.613   4.971  16.454  0.00  0.00    +0.000 A 
ATOM      5  C   UNL     1       4.519   4.171  16.802  0.00  0.00    +0.000 A 
ATOM      6  C   UNL     1       3.390   4.728  17.449  0.00  0.00    +0.000 A 
ENDROOT
BRANCH   6   7
ATOM      7  C   UNL     1       2.239   3.790  17.725  0.00  0.00    +0.000 C 
ATOM      8  F   UNL     1       2.344   2.562  17.143  0.00  0.00    +0.000 F 
ATOM      9  F   UNL     1       2.103   3.544  19.061  0.00  0.00    +0.000 F 
ATOM     10  F   UNL     1       1.042   4.297  17.323  0.00  0.00    +0.000 F 
ENDBRANCH   6   7
BRANCH   4  11
ATOM     11  N   UNL     1       6.761   4.392  15.747  0.00  0.00    +0.000 N 
ATOM     12  O   UNL     1       6.555   3.849  14.654  0.00  0.00    +0.000 OA
ATOM     13  O   UNL     1       7.873   4.475  16.292  0.00  0.00    +0.000 OA
ENDBRANCH   4  11
BRANCH   1  14
ATOM     14  N   UNL     1       2.296   6.698  18.431  0.00  0.00    +0.000 N 
ATOM     15  H   UNL     1       1.370   6.438  18.084  0.00  0.00    +0.000 HD
BRANCH  14  16
ATOM     16  C   UNL     1       2.362   8.122  18.799  0.00  0.00    +0.000 C 
BRANCH  16  17
ATOM     17  C   UNL     1       1.631   9.002  17.765  0.00  0.00    +0.000 C 
BRANCH  17  20
ATOM     18  C   UNL     1       0.879  11.101  18.818  0.00  0.00    +0.000 C 
ATOM     19  O   UNL     1      -0.074  10.532  19.345  0.00  0.00    +0.000 OA
ATOM     20  N   UNL     1       1.772  10.427  18.009  0.00  0.00    +0.000 N 
ATOM     21  H   UNL     1       2.666  10.853  17.813  0.00  0.00    +0.000 HD
BRANCH  18  23
ATOM     22  C   UNL     1       2.359  13.001  18.129  0.00  0.00    +0.000 C 
ATOM     23  C   UNL     1       1.141  12.608  18.984  0.00  0.00    +0.000 C 
ATOM     24  C   UNL     1       1.447  12.925  20.455  0.00  0.00    +0.000 C 
ATOM     25  C   UNL     1      -0.076  13.413  18.513  0.00  0.00    +0.000 C 
ENDBRANCH  18  23
ENDBRANCH  17  20
ENDBRANCH  16  17
ENDBRANCH  14  16
ENDBRANCH   1  14
TORSDOF 7
ENDMDL
MODEL 9
REMARK VINA RESULT:      -6.7      2.956      5.715
REMARK  Name = 
REMARK  10 active torsions:
REMARK  status: ('A' for Active; 'I' for Inactive)
REMARK    1  A    between atoms: C_1  and  C_2
REMARK    2  A    between atoms: C_2  and  C_3
REMARK    3  A    between atoms: C_2  and  C_4
REMARK    4  A    between atoms: C_2  and  C_5
REMARK    5  A    between atoms: N_7  and  C_8
REMARK    6  A    between atoms: C_8  and  C_9
REMARK    7  A    between atoms: C_9  and  N_10
REMARK    8  A    between atoms: N_10  and  C_11
REMARK    9  A    between atoms: C_14  and  N_15
REMARK   10  A    between atoms: C_19  and  C_20
REMARK                            x       y       z     vdW  Elec       q    Type
REMARK                         _______ _______ _______ _____ _____    ______ ____
ROOT
ATOM      1  C   UNL     1       3.920   4.671  19.339  0.00  0.00    +0.000 A 
ATOM      2  C   UNL     1       5.171   5.321  19.324  0.00  0.00    +0.000 A 
ATOM      3  C   UNL     1       6.072   5.198  18.266  0.00  0.00    +0.000 A 
ATOM      4  C   UNL     1       5.753   4.364  17.202  0.00  0.00    +0.000 A 
ATOM      5  C   UNL     1       4.546   3.655  17.204  0.00  0.00    +0.000 A 
ATOM      6  C   UNL     1       3.621   3.800  18.265  0.00  0.00    +0.000 A 
ENDROOT
BRANCH   6   7
ATOM      7  C   UNL     1       2.323   3.038  18.139  0.00  0.00    +0.000 C 
ATOM      8  F   UNL     1       2.313   2.075  17.174  0.00  0.00    +0.000 F 
ATOM      9  F   UNL     1       2.010   2.388  19.298  0.00  0.00    +0.000 F 
ATOM     10  F   UNL     1       1.263   3.849  17.876  0.00  0.00    +0.000 F 
ENDBRANCH   6   7
BRANCH   4  11
ATOM     11  N   UNL     1       6.687   4.236  16.078  0.00  0.00    +0.000 N 
ATOM     12  O   UNL     1       7.871   4.543  16.270  0.00  0.00    +0.000 OA
ATOM     13  O   UNL     1       6.232   3.832  14.997  0.00  0.00    +0.000 OA
ENDBRANCH   4  11
BRANCH   1  14
ATOM     14  N   UNL     1       3.061   4.813  20.435  0.00  0.00    +0.000 N 
ATOM     15  H   UNL     1       2.668   3.938  20.789  0.00  0.00    +0.000 HD
BRANCH  14  16
ATOM     16  C   UNL     1       2.070   5.901  20.446  0.00  0.00    +0.000 C 
BRANCH  16  17
ATOM     17  C   UNL     1       2.388   6.959  19.371  0.00  0.00    +0.000 C 
BRANCH  17  20
ATOM     18  C   UNL     1       1.631   9.170  18.582  0.00  0.00    +0.000 C 
ATOM     19  O   UNL     1       2.133   8.981  17.476  0.00  0.00    +0.000 OA
ATOM     20  N   UNL     1       1.717   8.229  19.588  0.00  0.00    +0.000 N 
ATOM     21  H   UNL     1       1.087   8.301  20.375  0.00  0.00    +0.000 HD
BRANCH  18  23
ATOM     22  C   UNL     1       1.723  11.669  18.439  0.00  0.00    +0.000 C 
ATOM     23  C   UNL     1       0.901  10.472  18.950  0.00  0.00    +0.000 C 
ATOM     24  C   UNL     1       0.767  10.581  20.476  0.00  0.00    +0.000 C 
ATOM     25  C   UNL     1      -0.486  10.507  18.295  0.00  0.00    +0.000 C 
ENDBRANCH  18  23
ENDBRANCH  17  20
ENDBRANCH  16  17
ENDBRANCH  14  16
ENDBRANCH   1  14
TORSDOF 7
ENDMDL
