MODEL 1
REMARK VINA RESULT:      -7.6      0.000      0.000
REMARK  Name = 
REMARK  7 active torsions:
REMARK  status: ('A' for Active; 'I' for Inactive)
REMARK    1  A    between atoms: C_1  and  C_2
REMARK    2  A    between atoms: C_2  and  C_3
REMARK    3  A    between atoms: C_7  and  N_8
REMARK    4  A    between atoms: C_9  and  C_11
REMARK    5  A    between atoms: C_20  and  N_21
REMARK    6  A    between atoms: N_24  and  C_25
REMARK    7  A    between atoms: C_25  and  C_26
REMARK                            x       y       z     vdW  Elec       q    Type
REMARK                         _______ _______ _______ _____ _____    ______ ____
ROOT
ATOM      1  C   UNL     1      -3.274  14.336  24.718  0.00  0.00    +0.000 C 
ATOM      2  C   UNL     1      -2.436  14.905  23.567  0.00  0.00    +0.000 C 
ATOM      3  C   UNL     1      -2.388  16.433  23.677  0.00  0.00    +0.000 C 
ATOM      4  C   UNL     1      -1.018  14.267  23.506  0.00  0.00    +0.000 C 
ATOM      5  C   UNL     1      -1.155  13.391  22.315  0.00  0.00    +0.000 A 
ATOM      6  C   UNL     1      -0.287  12.459  21.764  0.00  0.00    +0.000 A 
ATOM      7  C   UNL     1      -0.632  11.805  20.560  0.00  0.00    +0.000 A 
ATOM      8  C   UNL     1      -1.886  12.126  19.920  0.00  0.00    +0.000 A 
ATOM      9  C   UNL     1      -2.729  13.055  20.539  0.00  0.00    +0.000 A 
ATOM     10  C   UNL     1      -2.362  13.669  21.705  0.00  0.00    +0.000 A 
ATOM     11  O   UNL     1      -3.134  14.600  22.332  0.00  0.00    +0.000 OA
ENDROOT
BRANCH   8  12
ATOM     12  N   UNL     1      -2.323  11.526  18.749  0.00  0.00    +0.000 N 
ATOM     13  C   UNL     1      -1.415  11.212  17.625  0.00  0.00    +0.000 C 
ATOM     14  C   UNL     1      -1.906   9.894  16.956  0.00  0.00    +0.000 C 
ATOM     15  N   UNL     1      -3.361   9.849  16.597  0.00  0.00    +0.000 NA
ATOM     16  C   UNL     1      -4.131  10.226  17.818  0.00  0.00    +0.000 C 
ATOM     17  C   UNL     1      -3.738  11.577  18.427  0.00  0.00    +0.000 C 
BRANCH  15  18
ATOM     18  C   UNL     1      -3.606  10.782  15.461  0.00  0.00    +0.000 C 
BRANCH  18  19
ATOM     19  C   UNL     1      -3.558  10.107  14.087  0.00  0.00    +0.000 C 
ATOM     20  N   UNL     1      -4.757   9.797  13.515  0.00  0.00    +0.000 N 
ATOM     21  O   UNL     1      -2.507   9.804  13.532  0.00  0.00    +0.000 OA
ATOM     22  H   UNL     1      -5.614  10.106  13.954  0.00  0.00    +0.000 HD
ATOM     23  H   UNL     1      -4.761   9.449  12.565  0.00  0.00    +0.000 HD
ENDBRANCH  18  19
ENDBRANCH  15  18
ENDBRANCH   8  12
BRANCH   7  24
ATOM     24  N   UNL     1       0.341  10.920  19.977  0.00  0.00    +0.000 N 
ATOM     25  C   UNL     1       0.391   9.566  20.298  0.00  0.00    +0.000 C 
ATOM     26  O   UNL     1      -0.386   9.030  21.100  0.00  0.00    +0.000 OA
ATOM     27  H   UNL     1       0.777  11.187  19.098  0.00  0.00    +0.000 HD
BRANCH  25  28
ATOM     28  C   UNL     1       1.352   8.731  19.593  0.00  0.00    +0.000 A 
ATOM     29  C   UNL     1       2.004   9.121  18.397  0.00  0.00    +0.000 A 
ATOM     30  N   UNL     1       2.869   8.220  17.931  0.00  0.00    +0.000 NA
ATOM     31  N   UNL     1       2.803   7.218  18.824  0.00  0.00    +0.000 N 
ATOM     32  C   UNL     1       3.585   6.061  18.836  0.00  0.00    +0.000 A 
ATOM     33  C   UNL     1       3.388   5.124  19.754  0.00  0.00    +0.000 A 
ATOM     34  C   UNL     1       2.274   5.396  20.704  0.00  0.00    +0.000 A 
ATOM     35  N   UNL     1       1.562   6.490  20.773  0.00  0.00    +0.000 NA
ATOM     36  C   UNL     1       1.838   7.443  19.826  0.00  0.00    +0.000 A 
ENDBRANCH  25  28
ENDBRANCH   7  24
TORSDOF 5
ENDMDL
MODEL 2
REMARK VINA RESULT:      -7.6      3.571      8.132
REMARK  Name = 
REMARK  7 active torsions:
REMARK  status: ('A' for Active; 'I' for Inactive)
REMARK    1  A    between atoms: C_1  and  C_2
REMARK    2  A    between atoms: C_2  and  C_3
REMARK    3  A    between atoms: C_7  and  N_8
REMARK    4  A    between atoms: C_9  and  C_11
REMARK    5  A    between atoms: C_20  and  N_21
REMARK    6  A    between atoms: N_24  and  C_25
REMARK    7  A    between atoms: C_25  and  C_26
REMARK                            x       y       z     vdW  Elec       q    Type
REMARK                         _______ _______ _______ _____ _____    ______ ____
ROOT
ATOM      1  C   UNL     1       1.876   5.566  17.839  0.00  0.00    +0.000 C 
ATOM      2  C   UNL     1       2.692   6.523  18.714  0.00  0.00    +0.000 C 
ATOM      3  C   UNL     1       3.804   5.743  19.424  0.00  0.00    +0.000 C 
ATOM      4  C   UNL     1       3.237   7.735  17.904  0.00  0.00    +0.000 C 
ATOM      5  C   UNL     1       2.357   8.823  18.399  0.00  0.00    +0.000 A 
ATOM      6  C   UNL     1       2.239  10.150  18.009  0.00  0.00    +0.000 A 
ATOM      7  C   UNL     1       1.365  11.012  18.708  0.00  0.00    +0.000 A 
ATOM      8  C   UNL     1       0.611  10.494  19.826  0.00  0.00    +0.000 A 
ATOM      9  C   UNL     1       0.755   9.141  20.154  0.00  0.00    +0.000 A 
ATOM     10  C   UNL     1       1.611   8.336  19.454  0.00  0.00    +0.000 A 
ATOM     11  O   UNL     1       1.808   7.021  19.751  0.00  0.00    +0.000 OA
ENDROOT
BRANCH   8  12
ATOM     12  N   UNL     1      -0.286  11.253  20.562  0.00  0.00    +0.000 N 
ATOM     13  C   UNL     1      -0.164  11.437  22.024  0.00  0.00    +0.000 C 
ATOM     14  C   UNL     1      -0.656  12.872  22.376  0.00  0.00    +0.000 C 
ATOM     15  N   UNL     1      -1.994  13.257  21.820  0.00  0.00    +0.000 NA
ATOM     16  C   UNL     1      -1.965  12.974  20.356  0.00  0.00    +0.000 C 
ATOM     17  C   UNL     1      -1.592  11.531  19.993  0.00  0.00    +0.000 C 
BRANCH  15  18
ATOM     18  C   UNL     1      -3.051  12.478  22.527  0.00  0.00    +0.000 C 
BRANCH  18  19
ATOM     19  C   UNL     1      -4.472  12.985  22.262  0.00  0.00    +0.000 C 
ATOM     20  N   UNL     1      -4.695  14.315  22.465  0.00  0.00    +0.000 N 
ATOM     21  O   UNL     1      -5.390  12.242  21.932  0.00  0.00    +0.000 OA
ATOM     22  H   UNL     1      -3.917  14.925  22.676  0.00  0.00    +0.000 HD
ATOM     23  H   UNL     1      -5.593  14.698  22.197  0.00  0.00    +0.000 HD
ENDBRANCH  18  19
ENDBRANCH  15  18
ENDBRANCH   8  12
BRANCH   7  24
ATOM     24  N   UNL     1       1.348  12.399  18.328  0.00  0.00    +0.000 N 
ATOM     25  C   UNL     1       1.972  13.381  19.092  0.00  0.00    +0.000 C 
ATOM     26  O   UNL     1       2.579  13.137  20.144  0.00  0.00    +0.000 OA
ATOM     27  H   UNL     1       1.174  12.635  17.354  0.00  0.00    +0.000 HD
BRANCH  25  28
ATOM     28  C   UNL     1       1.977  14.744  18.584  0.00  0.00    +0.000 A 
ATOM     29  C   UNL     1       3.099  15.347  17.964  0.00  0.00    +0.000 A 
ATOM     30  N   UNL     1       2.884  16.593  17.544  0.00  0.00    +0.000 NA
ATOM     31  N   UNL     1       1.603  16.829  17.877  0.00  0.00    +0.000 N 
ATOM     32  C   UNL     1       0.862  17.973  17.577  0.00  0.00    +0.000 A 
ATOM     33  C   UNL     1      -0.388  18.099  18.006  0.00  0.00    +0.000 A 
ATOM     34  C   UNL     1      -0.886  16.968  18.837  0.00  0.00    +0.000 A 
ATOM     35  N   UNL     1      -0.254  15.851  19.087  0.00  0.00    +0.000 NA
ATOM     36  C   UNL     1       1.018  15.758  18.582  0.00  0.00    +0.000 A 
ENDBRANCH  25  28
ENDBRANCH   7  24
TORSDOF 5
ENDMDL
MODEL 3
REMARK VINA RESULT:      -7.0      2.925      5.722
REMARK  Name = 
REMARK  7 active torsions:
REMARK  status: ('A' for Active; 'I' for Inactive)
REMARK    1  A    between atoms: C_1  and  C_2
REMARK    2  A    between atoms: C_2  and  C_3
REMARK    3  A    between atoms: C_7  and  N_8
REMARK    4  A    between atoms: C_9  and  C_11
REMARK    5  A    between atoms: C_20  and  N_21
REMARK    6  A    between atoms: N_24  and  C_25
REMARK    7  A    between atoms: C_25  and  C_26
REMARK                            x       y       z     vdW  Elec       q    Type
REMARK                         _______ _______ _______ _____ _____    ______ ____
ROOT
ATOM      1  C   UNL     1      -6.232  12.504  17.287  0.00  0.00    +0.000 C 
ATOM      2  C   UNL     1      -5.656  11.712  18.466  0.00  0.00    +0.000 C 
ATOM      3  C   UNL     1      -6.764  11.442  19.489  0.00  0.00    +0.000 C 
ATOM      4  C   UNL     1      -4.943  10.409  18.001  0.00  0.00    +0.000 C 
ATOM      5  C   UNL     1      -3.519  10.783  18.198  0.00  0.00    +0.000 A 
ATOM      6  C   UNL     1      -2.347  10.111  17.880  0.00  0.00    +0.000 A 
ATOM      7  C   UNL     1      -1.100  10.660  18.252  0.00  0.00    +0.000 A 
ATOM      8  C   UNL     1      -1.069  11.914  18.968  0.00  0.00    +0.000 A 
ATOM      9  C   UNL     1      -2.284  12.554  19.237  0.00  0.00    +0.000 A 
ATOM     10  C   UNL     1      -3.473  11.993  18.860  0.00  0.00    +0.000 A 
ATOM     11  O   UNL     1      -4.682  12.563  19.123  0.00  0.00    +0.000 OA
ENDROOT
BRANCH   8  12
ATOM     12  N   UNL     1       0.102  12.543  19.360  0.00  0.00    +0.000 N 
ATOM     13  C   UNL     1       0.516  12.651  20.775  0.00  0.00    +0.000 C 
ATOM     14  C   UNL     1       2.070  12.563  20.836  0.00  0.00    +0.000 C 
ATOM     15  N   UNL     1       2.811  13.482  19.911  0.00  0.00    +0.000 NA
ATOM     16  C   UNL     1       2.251  13.280  18.543  0.00  0.00    +0.000 C 
ATOM     17  C   UNL     1       0.733  13.474  18.441  0.00  0.00    +0.000 C 
BRANCH  15  18
ATOM     18  C   UNL     1       2.646  14.883  20.390  0.00  0.00    +0.000 C 
BRANCH  18  19
ATOM     19  C   UNL     1       3.211  15.126  21.793  0.00  0.00    +0.000 C 
ATOM     20  N   UNL     1       4.545  14.895  21.965  0.00  0.00    +0.000 N 
ATOM     21  O   UNL     1       2.510  15.462  22.742  0.00  0.00    +0.000 OA
ATOM     22  H   UNL     1       5.121  14.679  21.163  0.00  0.00    +0.000 HD
ATOM     23  H   UNL     1       4.966  15.148  22.849  0.00  0.00    +0.000 HD
ENDBRANCH  18  19
ENDBRANCH  15  18
ENDBRANCH   8  12
BRANCH   7  24
ATOM     24  N   UNL     1       0.080   9.882  17.985  0.00  0.00    +0.000 N 
ATOM     25  C   UNL     1       0.745   9.182  18.988  0.00  0.00    +0.000 C 
ATOM     26  O   UNL     1       0.376   9.179  20.171  0.00  0.00    +0.000 OA
ATOM     27  H   UNL     1       0.250   9.566  17.034  0.00  0.00    +0.000 HD
BRANCH  25  28
ATOM     28  C   UNL     1       1.878   8.352  18.609  0.00  0.00    +0.000 A 
ATOM     29  C   UNL     1       2.758   8.663  17.543  0.00  0.00    +0.000 A 
ATOM     30  N   UNL     1       3.748   7.786  17.382  0.00  0.00    +0.000 NA
ATOM     31  N   UNL     1       3.537   6.880  18.352  0.00  0.00    +0.000 N 
ATOM     32  C   UNL     1       4.353   5.791  18.666  0.00  0.00    +0.000 A 
ATOM     33  C   UNL     1       4.005   4.942  19.625  0.00  0.00    +0.000 A 
ATOM     34  C   UNL     1       2.696   5.228  20.275  0.00  0.00    +0.000 A 
ATOM     35  N   UNL     1       1.933   6.267  20.061  0.00  0.00    +0.000 NA
ATOM     36  C   UNL     1       2.364   7.135  19.090  0.00  0.00    +0.000 A 
ENDBRANCH  25  28
ENDBRANCH   7  24
TORSDOF 5
ENDMDL
MODEL 4
REMARK VINA RESULT:      -7.0      2.904      5.489
REMARK  Name = 
REMARK  7 active torsions:
REMARK  status: ('A' for Active; 'I' for Inactive)
REMARK    1  A    between atoms: C_1  and  C_2
REMARK    2  A    between atoms: C_2  and  C_3
REMARK    3  A    between atoms: C_7  and  N_8
REMARK    4  A    between atoms: C_9  and  C_11
REMARK    5  A    between atoms: C_20  and  N_21
REMARK    6  A    between atoms: N_24  and  C_25
REMARK    7  A    between atoms: C_25  and  C_26
REMARK                            x       y       z     vdW  Elec       q    Type
REMARK                         _______ _______ _______ _____ _____    ______ ____
ROOT
ATOM      1  C   UNL     1      -6.293  12.529  17.267  0.00  0.00    +0.000 C 
ATOM      2  C   UNL     1      -5.710  11.751  18.452  0.00  0.00    +0.000 C 
ATOM      3  C   UNL     1      -6.813  11.494  19.485  0.00  0.00    +0.000 C 
ATOM      4  C   UNL     1      -5.002  10.442  18.000  0.00  0.00    +0.000 C 
ATOM      5  C   UNL     1      -3.576  10.816  18.184  0.00  0.00    +0.000 A 
ATOM      6  C   UNL     1      -2.407  10.139  17.867  0.00  0.00    +0.000 A 
ATOM      7  C   UNL     1      -1.157  10.691  18.226  0.00  0.00    +0.000 A 
ATOM      8  C   UNL     1      -1.121  11.954  18.926  0.00  0.00    +0.000 A 
ATOM      9  C   UNL     1      -2.333  12.599  19.194  0.00  0.00    +0.000 A 
ATOM     10  C   UNL     1      -3.525  12.034  18.831  0.00  0.00    +0.000 A 
ATOM     11  O   UNL     1      -4.732  12.609  19.094  0.00  0.00    +0.000 OA
ENDROOT
BRANCH   8  12
ATOM     12  N   UNL     1       0.053  12.586  19.304  0.00  0.00    +0.000 N 
ATOM     13  C   UNL     1       0.441  12.772  20.718  0.00  0.00    +0.000 C 
ATOM     14  C   UNL     1       1.991  12.663  20.817  0.00  0.00    +0.000 C 
ATOM     15  N   UNL     1       2.766  13.512  19.854  0.00  0.00    +0.000 NA
ATOM     16  C   UNL     1       2.230  13.237  18.489  0.00  0.00    +0.000 C 
ATOM     17  C   UNL     1       0.718  13.449  18.344  0.00  0.00    +0.000 C 
BRANCH  15  18
ATOM     18  C   UNL     1       2.617  14.942  20.245  0.00  0.00    +0.000 C 
BRANCH  18  19
ATOM     19  C   UNL     1       3.369  15.913  19.329  0.00  0.00    +0.000 C 
ATOM     20  N   UNL     1       4.728  15.803  19.303  0.00  0.00    +0.000 N 
ATOM     21  O   UNL     1       2.802  16.788  18.682  0.00  0.00    +0.000 OA
ATOM     22  H   UNL     1       5.176  15.039  19.792  0.00  0.00    +0.000 HD
ATOM     23  H   UNL     1       5.243  16.356  18.630  0.00  0.00    +0.000 HD
ENDBRANCH  18  19
ENDBRANCH  15  18
ENDBRANCH   8  12
BRANCH   7  24
ATOM     24  N   UNL     1       0.020   9.908  17.962  0.00  0.00    +0.000 N 
ATOM     25  C   UNL     1       0.709   9.247  18.975  0.00  0.00    +0.000 C 
ATOM     26  O   UNL     1       0.366   9.285  20.165  0.00  0.00    +0.000 OA
ATOM     27  H   UNL     1       0.171   9.559  17.019  0.00  0.00    +0.000 HD
BRANCH  25  28
ATOM     28  C   UNL     1       1.838   8.408  18.601  0.00  0.00    +0.000 A 
ATOM     29  C   UNL     1       2.717   8.705  17.530  0.00  0.00    +0.000 A 
ATOM     30  N   UNL     1       3.702   7.821  17.375  0.00  0.00    +0.000 NA
ATOM     31  N   UNL     1       3.490   6.927  18.355  0.00  0.00    +0.000 N 
ATOM     32  C   UNL     1       4.302   5.838  18.679  0.00  0.00    +0.000 A 
ATOM     33  C   UNL     1       3.953   5.000  19.648  0.00  0.00    +0.000 A 
ATOM     34  C   UNL     1       2.647   5.299  20.299  0.00  0.00    +0.000 A 
ATOM     35  N   UNL     1       1.888   6.339  20.075  0.00  0.00    +0.000 NA
ATOM     36  C   UNL     1       2.320   7.195  19.094  0.00  0.00    +0.000 A 
ENDBRANCH  25  28
ENDBRANCH   7  24
TORSDOF 5
ENDMDL
MODEL 5
REMARK VINA RESULT:      -6.9      3.403      5.283
REMARK  Name = 
REMARK  7 active torsions:
REMARK  status: ('A' for Active; 'I' for Inactive)
REMARK    1  A    between atoms: C_1  and  C_2
REMARK    2  A    between atoms: C_2  and  C_3
REMARK    3  A    between atoms: C_7  and  N_8
REMARK    4  A    between atoms: C_9  and  C_11
REMARK    5  A    between atoms: C_20  and  N_21
REMARK    6  A    between atoms: N_24  and  C_25
REMARK    7  A    between atoms: C_25  and  C_26
REMARK                            x       y       z     vdW  Elec       q    Type
REMARK                         _______ _______ _______ _____ _____    ______ ____
ROOT
ATOM      1  C   UNL     1      -4.550  14.480  23.093  0.00  0.00    +0.000 C 
ATOM      2  C   UNL     1      -3.274  14.083  23.844  0.00  0.00    +0.000 C 
ATOM      3  C   UNL     1      -3.410  14.471  25.321  0.00  0.00    +0.000 C 
ATOM      4  C   UNL     1      -2.928  12.578  23.653  0.00  0.00    +0.000 C 
ATOM      5  C   UNL     1      -1.765  12.672  22.735  0.00  0.00    +0.000 A 
ATOM      6  C   UNL     1      -1.035  11.687  22.084  0.00  0.00    +0.000 A 
ATOM      7  C   UNL     1       0.096  12.045  21.316  0.00  0.00    +0.000 A 
ATOM      8  C   UNL     1       0.476  13.435  21.229  0.00  0.00    +0.000 A 
ATOM      9  C   UNL     1      -0.315  14.382  21.888  0.00  0.00    +0.000 A 
ATOM     10  C   UNL     1      -1.404  13.999  22.622  0.00  0.00    +0.000 A 
ATOM     11  O   UNL     1      -2.189  14.880  23.304  0.00  0.00    +0.000 OA
ENDROOT
BRANCH   8  12
ATOM     12  N   UNL     1       1.556  13.888  20.486  0.00  0.00    +0.000 N 
ATOM     13  C   UNL     1       2.698  14.606  21.093  0.00  0.00    +0.000 C 
ATOM     14  C   UNL     1       3.989  14.208  20.319  0.00  0.00    +0.000 C 
ATOM     15  N   UNL     1       3.916  14.327  18.826  0.00  0.00    +0.000 NA
ATOM     16  C   UNL     1       2.698  13.590  18.381  0.00  0.00    +0.000 C 
ATOM     17  C   UNL     1       1.396  14.046  19.052  0.00  0.00    +0.000 C 
BRANCH  15  18
ATOM     18  C   UNL     1       3.870  15.771  18.460  0.00  0.00    +0.000 C 
BRANCH  18  19
ATOM     19  C   UNL     1       5.191  16.510  18.697  0.00  0.00    +0.000 C 
ATOM     20  N   UNL     1       6.336  15.820  18.422  0.00  0.00    +0.000 N 
ATOM     21  O   UNL     1       5.243  17.645  19.157  0.00  0.00    +0.000 OA
ATOM     22  H   UNL     1       6.277  14.910  17.986  0.00  0.00    +0.000 HD
ATOM     23  H   UNL     1       7.217  16.315  18.466  0.00  0.00    +0.000 HD
ENDBRANCH  18  19
ENDBRANCH  15  18
ENDBRANCH   8  12
BRANCH   7  24
ATOM     24  N   UNL     1       0.875  10.982  20.738  0.00  0.00    +0.000 N 
ATOM     25  C   UNL     1       0.456  10.294  19.603  0.00  0.00    +0.000 C 
ATOM     26  O   UNL     1      -0.605  10.541  19.014  0.00  0.00    +0.000 OA
ATOM     27  H   UNL     1       1.870  10.941  20.943  0.00  0.00    +0.000 HD
BRANCH  25  28
ATOM     28  C   UNL     1       1.351   9.294  19.039  0.00  0.00    +0.000 A 
ATOM     29  C   UNL     1       2.050   9.464  17.819  0.00  0.00    +0.000 A 
ATOM     30  N   UNL     1       2.840   8.440  17.498  0.00  0.00    +0.000 NA
ATOM     31  N   UNL     1       2.677   7.576  18.514  0.00  0.00    +0.000 N 
ATOM     32  C   UNL     1       3.355   6.370  18.699  0.00  0.00    +0.000 A 
ATOM     33  C   UNL     1       3.066   5.584  19.728  0.00  0.00    +0.000 A 
ATOM     34  C   UNL     1       1.967   6.074  20.606  0.00  0.00    +0.000 A 
ATOM     35  N   UNL     1       1.351   7.223  20.510  0.00  0.00    +0.000 NA
ATOM     36  C   UNL     1       1.721   8.014  19.453  0.00  0.00    +0.000 A 
ENDBRANCH  25  28
ENDBRANCH   7  24
TORSDOF 5
ENDMDL
MODEL 6
REMARK VINA RESULT:      -6.8      3.535      8.386
REMARK  Name = 
REMARK  7 active torsions:
REMARK  status: ('A' for Active; 'I' for Inactive)
REMARK    1  A    between atoms: C_1  and  C_2
REMARK    2  A    between atoms: C_2  and  C_3
REMARK    3  A    between atoms: C_7  and  N_8
REMARK    4  A    between atoms: C_9  and  C_11
REMARK    5  A    between atoms: C_20  and  N_21
REMARK    6  A    between atoms: N_24  and  C_25
REMARK    7  A    between atoms: C_25  and  C_26
REMARK                            x       y       z     vdW  Elec       q    Type
REMARK                         _______ _______ _______ _____ _____    ______ ____
ROOT
ATOM      1  C   UNL     1       1.794   5.560  17.852  0.00  0.00    +0.000 C 
ATOM      2  C   UNL     1       2.656   6.521  18.678  0.00  0.00    +0.000 C 
ATOM      3  C   UNL     1       3.847   5.758  19.268  0.00  0.00    +0.000 C 
ATOM      4  C   UNL     1       3.094   7.766  17.854  0.00  0.00    +0.000 C 
ATOM      5  C   UNL     1       2.230   8.816  18.452  0.00  0.00    +0.000 A 
ATOM      6  C   UNL     1       2.042  10.147  18.107  0.00  0.00    +0.000 A 
ATOM      7  C   UNL     1       1.208  10.966  18.901  0.00  0.00    +0.000 A 
ATOM      8  C   UNL     1       0.570  10.400  20.066  0.00  0.00    +0.000 A 
ATOM      9  C   UNL     1       0.780   9.046  20.346  0.00  0.00    +0.000 A 
ATOM     10  C   UNL     1       1.594   8.283  19.554  0.00  0.00    +0.000 A 
ATOM     11  O   UNL     1       1.852   6.967  19.799  0.00  0.00    +0.000 OA
ENDROOT
BRANCH   8  12
ATOM     12  N   UNL     1      -0.281  11.115  20.896  0.00  0.00    +0.000 N 
ATOM     13  C   UNL     1      -1.195  12.161  20.391  0.00  0.00    +0.000 C 
ATOM     14  C   UNL     1      -2.496  12.124  21.246  0.00  0.00    +0.000 C 
ATOM     15  N   UNL     1      -2.300  12.149  22.733  0.00  0.00    +0.000 NA
ATOM     16  C   UNL     1      -1.328  11.068  23.070  0.00  0.00    +0.000 C 
ATOM     17  C   UNL     1       0.006  11.154  22.319  0.00  0.00    +0.000 C 
BRANCH  15  18
ATOM     18  C   UNL     1      -1.808  13.498  23.131  0.00  0.00    +0.000 C 
BRANCH  18  19
ATOM     19  C   UNL     1      -2.897  14.403  23.716  0.00  0.00    +0.000 C 
ATOM     20  N   UNL     1      -3.640  13.886  24.737  0.00  0.00    +0.000 N 
ATOM     21  O   UNL     1      -3.140  15.520  23.272  0.00  0.00    +0.000 OA
ATOM     22  H   UNL     1      -3.389  12.990  25.132  0.00  0.00    +0.000 HD
ATOM     23  H   UNL     1      -4.292  14.495  25.213  0.00  0.00    +0.000 HD
ENDBRANCH  18  19
ENDBRANCH  15  18
ENDBRANCH   8  12
BRANCH   7  24
ATOM     24  N   UNL     1       1.119  12.361  18.559  0.00  0.00    +0.000 N 
ATOM     25  C   UNL     1       1.846  13.334  19.239  0.00  0.00    +0.000 C 
ATOM     26  O   UNL     1       2.611  13.076  20.178  0.00  0.00    +0.000 OA
ATOM     27  H   UNL     1       0.794  12.614  17.629  0.00  0.00    +0.000 HD
BRANCH  25  28
ATOM     28  C   UNL     1       1.759  14.708  18.766  0.00  0.00    +0.000 A 
ATOM     29  C   UNL     1       2.820  15.382  18.112  0.00  0.00    +0.000 A 
ATOM     30  N   UNL     1       2.523  16.625  17.735  0.00  0.00    +0.000 NA
ATOM     31  N   UNL     1       1.249  16.787  18.132  0.00  0.00    +0.000 N 
ATOM     32  C   UNL     1       0.438  17.899  17.896  0.00  0.00    +0.000 A 
ATOM     33  C   UNL     1      -0.795  17.950  18.384  0.00  0.00    +0.000 A 
ATOM     34  C   UNL     1      -1.197  16.775  19.206  0.00  0.00    +0.000 A 
ATOM     35  N   UNL     1      -0.498  15.687  19.398  0.00  0.00    +0.000 NA
ATOM     36  C   UNL     1       0.751  15.671  18.834  0.00  0.00    +0.000 A 
ENDBRANCH  25  28
ENDBRANCH   7  24
TORSDOF 5
ENDMDL
MODEL 7
REMARK VINA RESULT:      -6.7      3.942      7.097
REMARK  Name = 
REMARK  7 active torsions:
REMARK  status: ('A' for Active; 'I' for Inactive)
REMARK    1  A    between atoms: C_1  and  C_2
REMARK    2  A    between atoms: C_2  and  C_3
REMARK    3  A    between atoms: C_7  and  N_8
REMARK    4  A    between atoms: C_9  and  C_11
REMARK    5  A    between atoms: C_20  and  N_21
REMARK    6  A    between atoms: N_24  and  C_25
REMARK    7  A    between atoms: C_25  and  C_26
REMARK                            x       y       z     vdW  Elec       q    Type
REMARK                         _______ _______ _______ _____ _____    ______ ____
ROOT
ATOM      1  C   UNL     1       5.191  16.993  18.960  0.00  0.00    +0.000 C 
ATOM      2  C   UNL     1       5.237  15.774  19.887  0.00  0.00    +0.000 C 
ATOM      3  C   UNL     1       6.698  15.389  20.151  0.00  0.00    +0.000 C 
ATOM      4  C   UNL     1       4.436  16.008  21.200  0.00  0.00    +0.000 C 
ATOM      5  C   UNL     1       3.244  15.156  20.958  0.00  0.00    +0.000 A 
ATOM      6  C   UNL     1       2.079  14.988  21.693  0.00  0.00    +0.000 A 
ATOM      7  C   UNL     1       1.117  14.040  21.276  0.00  0.00    +0.000 A 
ATOM      8  C   UNL     1       1.371  13.256  20.090  0.00  0.00    +0.000 A 
ATOM      9  C   UNL     1       2.553  13.491  19.379  0.00  0.00    +0.000 A 
ATOM     10  C   UNL     1       3.461  14.417  19.813  0.00  0.00    +0.000 A 
ATOM     11  O   UNL     1       4.639  14.663  19.172  0.00  0.00    +0.000 OA
ENDROOT
BRANCH   8  12
ATOM     12  N   UNL     1       0.483  12.317  19.589  0.00  0.00    +0.000 N 
ATOM     13  C   UNL     1       0.797  10.873  19.529  0.00  0.00    +0.000 C 
ATOM     14  C   UNL     1      -0.519  10.078  19.780  0.00  0.00    +0.000 C 
ATOM     15  N   UNL     1      -1.695  10.483  18.943  0.00  0.00    +0.000 NA
ATOM     16  C   UNL     1      -1.850  11.961  19.081  0.00  0.00    +0.000 C 
ATOM     17  C   UNL     1      -0.595  12.769  18.727  0.00  0.00    +0.000 C 
BRANCH  15  18
ATOM     18  C   UNL     1      -1.448  10.068  17.533  0.00  0.00    +0.000 C 
BRANCH  18  19
ATOM     19  C   UNL     1      -2.650  10.280  16.608  0.00  0.00    +0.000 C 
ATOM     20  N   UNL     1      -2.499  11.196  15.609  0.00  0.00    +0.000 N 
ATOM     21  O   UNL     1      -3.721   9.703  16.769  0.00  0.00    +0.000 OA
ATOM     22  H   UNL     1      -1.594  11.617  15.451  0.00  0.00    +0.000 HD
ATOM     23  H   UNL     1      -3.235  11.281  14.919  0.00  0.00    +0.000 HD
ENDBRANCH  18  19
ENDBRANCH  15  18
ENDBRANCH   8  12
BRANCH   7  24
ATOM     24  N   UNL     1      -0.028  13.834  22.120  0.00  0.00    +0.000 N 
ATOM     25  C   UNL     1      -1.213  14.542  21.942  0.00  0.00    +0.000 C 
ATOM     26  O   UNL     1      -1.367  15.394  21.056  0.00  0.00    +0.000 OA
ATOM     27  H   UNL     1      -0.105  12.958  22.632  0.00  0.00    +0.000 HD
BRANCH  25  28
ATOM     28  C   UNL     1      -2.348  14.204  22.789  0.00  0.00    +0.000 A 
ATOM     29  C   UNL     1      -2.345  14.346  24.199  0.00  0.00    +0.000 A 
ATOM     30  N   UNL     1      -3.496  14.007  24.781  0.00  0.00    +0.000 NA
ATOM     31  N   UNL     1      -4.281  13.642  23.753  0.00  0.00    +0.000 N 
ATOM     32  C   UNL     1      -5.627  13.277  23.823  0.00  0.00    +0.000 A 
ATOM     33  C   UNL     1      -6.279  12.892  22.733  0.00  0.00    +0.000 A 
ATOM     34  C   UNL     1      -5.459  12.850  21.490  0.00  0.00    +0.000 A 
ATOM     35  N   UNL     1      -4.219  13.243  21.364  0.00  0.00    +0.000 NA
ATOM     36  C   UNL     1      -3.609  13.673  22.515  0.00  0.00    +0.000 A 
ENDBRANCH  25  28
ENDBRANCH   7  24
TORSDOF 5
ENDMDL
MODEL 8
REMARK VINA RESULT:      -6.7      3.316      4.977
REMARK  Name = 
REMARK  7 active torsions:
REMARK  status: ('A' for Active; 'I' for Inactive)
REMARK    1  A    between atoms: C_1  and  C_2
REMARK    2  A    between atoms: C_2  and  C_3
REMARK    3  A    between atoms: C_7  and  N_8
REMARK    4  A    between atoms: C_9  and  C_11
REMARK    5  A    between atoms: C_20  and  N_21
REMARK    6  A    between atoms: N_24  and  C_25
REMARK    7  A    between atoms: C_25  and  C_26
REMARK                            x       y       z     vdW  Elec       q    Type
REMARK                         _______ _______ _______ _____ _____    ______ ____
ROOT
ATOM      1  C   UNL     1      -6.205  16.073  22.742  0.00  0.00    +0.000 C 
ATOM      2  C   UNL     1      -4.993  15.923  23.669  0.00  0.00    +0.000 C 
ATOM      3  C   UNL     1      -5.202  16.779  24.924  0.00  0.00    +0.000 C 
ATOM      4  C   UNL     1      -4.696  14.433  24.007  0.00  0.00    +0.000 C 
ATOM      5  C   UNL     1      -3.477  14.198  23.192  0.00  0.00    +0.000 A 
ATOM      6  C   UNL     1      -2.749  13.041  22.952  0.00  0.00    +0.000 A 
ATOM      7  C   UNL     1      -1.561  13.105  22.190  0.00  0.00    +0.000 A 
ATOM      8  C   UNL     1      -1.121  14.382  21.678  0.00  0.00    +0.000 A 
ATOM      9  C   UNL     1      -1.912  15.507  21.934  0.00  0.00    +0.000 A 
ATOM     10  C   UNL     1      -3.058  15.408  22.675  0.00  0.00    +0.000 A 
ATOM     11  O   UNL     1      -3.847  16.477  22.974  0.00  0.00    +0.000 OA
ENDROOT
BRANCH   8  12
ATOM     12  N   UNL     1       0.018  14.546  20.905  0.00  0.00    +0.000 N 
ATOM     13  C   UNL     1       1.379  14.555  21.481  0.00  0.00    +0.000 C 
ATOM     14  C   UNL     1       2.347  13.897  20.454  0.00  0.00    +0.000 C 
ATOM     15  N   UNL     1       2.272  14.429  19.055  0.00  0.00    +0.000 NA
ATOM     16  C   UNL     1       0.839  14.390  18.641  0.00  0.00    +0.000 C 
ATOM     17  C   UNL     1      -0.117  15.131  19.583  0.00  0.00    +0.000 C 
BRANCH  15  18
ATOM     18  C   UNL     1       2.830  15.811  19.035  0.00  0.00    +0.000 C 
BRANCH  18  19
ATOM     19  C   UNL     1       2.752  16.488  17.663  0.00  0.00    +0.000 C 
ATOM     20  N   UNL     1       1.842  17.496  17.528  0.00  0.00    +0.000 N 
ATOM     21  O   UNL     1       3.428  16.127  16.705  0.00  0.00    +0.000 OA
ATOM     22  H   UNL     1       1.337  17.823  18.340  0.00  0.00    +0.000 HD
ATOM     23  H   UNL     1       1.842  18.031  16.670  0.00  0.00    +0.000 HD
ENDBRANCH  18  19
ENDBRANCH  15  18
ENDBRANCH   8  12
BRANCH   7  24
ATOM     24  N   UNL     1      -0.792  11.898  22.048  0.00  0.00    +0.000 N 
ATOM     25  C   UNL     1      -0.742  11.191  20.850  0.00  0.00    +0.000 C 
ATOM     26  O   UNL     1      -1.350  11.544  19.830  0.00  0.00    +0.000 OA
ATOM     27  H   UNL     1      -0.029  11.728  22.699  0.00  0.00    +0.000 HD
BRANCH  25  28
ATOM     28  C   UNL     1       0.132  10.030  20.776  0.00  0.00    +0.000 A 
ATOM     29  C   UNL     1       0.338   9.131  21.851  0.00  0.00    +0.000 A 
ATOM     30  N   UNL     1       1.154   8.118  21.564  0.00  0.00    +0.000 NA
ATOM     31  N   UNL     1       1.495   8.332  20.282  0.00  0.00    +0.000 N 
ATOM     32  C   UNL     1       2.276   7.500  19.478  0.00  0.00    +0.000 A 
ATOM     33  C   UNL     1       2.578   7.852  18.234  0.00  0.00    +0.000 A 
ATOM     34  C   UNL     1       2.059   9.183  17.813  0.00  0.00    +0.000 A 
ATOM     35  N   UNL     1       1.272   9.964  18.506  0.00  0.00    +0.000 NA
ATOM     36  C   UNL     1       0.957   9.529  19.768  0.00  0.00    +0.000 A 
ENDBRANCH  25  28
ENDBRANCH   7  24
TORSDOF 5
ENDMDL
MODEL 9
REMARK VINA RESULT:      -6.6      3.368      5.177
REMARK  Name = 
REMARK  7 active torsions:
REMARK  status: ('A' for Active; 'I' for Inactive)
REMARK    1  A    between atoms: C_1  and  C_2
REMARK    2  A    between atoms: C_2  and  C_3
REMARK    3  A    between atoms: C_7  and  N_8
REMARK    4  A    between atoms: C_9  and  C_11
REMARK    5  A    between atoms: C_20  and  N_21
REMARK    6  A    between atoms: N_24  and  C_25
REMARK    7  A    between atoms: C_25  and  C_26
REMARK                            x       y       z     vdW  Elec       q    Type
REMARK                         _______ _______ _______ _____ _____    ______ ____
ROOT
ATOM      1  C   UNL     1      -4.634  14.553  23.316  0.00  0.00    +0.000 C 
ATOM      2  C   UNL     1      -3.377  13.875  23.872  0.00  0.00    +0.000 C 
ATOM      3  C   UNL     1      -3.415  13.910  25.404  0.00  0.00    +0.000 C 
ATOM      4  C   UNL     1      -3.193  12.435  23.313  0.00  0.00    +0.000 C 
ATOM      5  C   UNL     1      -2.063  12.642  22.372  0.00  0.00    +0.000 A 
ATOM      6  C   UNL     1      -1.463  11.780  21.464  0.00  0.00    +0.000 A 
ATOM      7  C   UNL     1      -0.333  12.208  20.732  0.00  0.00    +0.000 A 
ATOM      8  C   UNL     1       0.183  13.539  20.950  0.00  0.00    +0.000 A 
ATOM      9  C   UNL     1      -0.481  14.368  21.860  0.00  0.00    +0.000 A 
ATOM     10  C   UNL     1      -1.574  13.920  22.551  0.00  0.00    +0.000 A 
ATOM     11  O   UNL     1      -2.239  14.678  23.467  0.00  0.00    +0.000 OA
ENDROOT
BRANCH   8  12
ATOM     12  N   UNL     1       1.273  14.058  20.268  0.00  0.00    +0.000 N 
ATOM     13  C   UNL     1       1.188  14.535  18.871  0.00  0.00    +0.000 C 
ATOM     14  C   UNL     1       2.151  15.748  18.711  0.00  0.00    +0.000 C 
ATOM     15  N   UNL     1       3.553  15.535  19.199  0.00  0.00    +0.000 NA
ATOM     16  C   UNL     1       3.462  15.021  20.597  0.00  0.00    +0.000 C 
ATOM     17  C   UNL     1       2.607  13.757  20.756  0.00  0.00    +0.000 C 
BRANCH  15  18
ATOM     18  C   UNL     1       4.241  14.580  18.287  0.00  0.00    +0.000 C 
BRANCH  18  19
ATOM     19  C   UNL     1       5.728  14.884  18.083  0.00  0.00    +0.000 C 
ATOM     20  N   UNL     1       6.150  16.135  18.427  0.00  0.00    +0.000 N 
ATOM     21  O   UNL     1       6.510  14.077  17.589  0.00  0.00    +0.000 OA
ATOM     22  H   UNL     1       5.510  16.768  18.888  0.00  0.00    +0.000 HD
ATOM     23  H   UNL     1       7.142  16.331  18.404  0.00  0.00    +0.000 HD
ENDBRANCH  18  19
ENDBRANCH  15  18
ENDBRANCH   8  12
BRANCH   7  24
ATOM     24  N   UNL     1       0.310  11.249  19.874  0.00  0.00    +0.000 N 
ATOM     25  C   UNL     1       0.980  10.139  20.381  0.00  0.00    +0.000 C 
ATOM     26  O   UNL     1       1.073   9.899  21.593  0.00  0.00    +0.000 OA
ATOM     27  H   UNL     1       0.011  11.185  18.905  0.00  0.00    +0.000 HD
BRANCH  25  28
ATOM     28  C   UNL     1       1.526   9.177  19.435  0.00  0.00    +0.000 A 
ATOM     29  C   UNL     1       1.840   9.490  18.089  0.00  0.00    +0.000 A 
ATOM     30  N   UNL     1       2.356   8.473  17.401  0.00  0.00    +0.000 NA
ATOM     31  N   UNL     1       2.397   7.468  18.293  0.00  0.00    +0.000 N 
ATOM     32  C   UNL     1       2.937   6.197  18.090  0.00  0.00    +0.000 A 
ATOM     33  C   UNL     1       2.873   5.277  19.045  0.00  0.00    +0.000 A 
ATOM     34  C   UNL     1       2.163   5.702  20.283  0.00  0.00    +0.000 A 
ATOM     35  N   UNL     1       1.701   6.897  20.542  0.00  0.00    +0.000 NA
ATOM     36  C   UNL     1       1.834   7.820  19.536  0.00  0.00    +0.000 A 
ENDBRANCH  25  28
ENDBRANCH   7  24
TORSDOF 5
ENDMDL
