MODEL 1
REMARK VINA RESULT:      -7.5      0.000      0.000
REMARK  Name = 
REMARK  3 active torsions:
REMARK  status: ('A' for Active; 'I' for Inactive)
REMARK    1  A    between atoms: C_1  and  N_2
REMARK    2  A    between atoms: C_10  and  O_11
REMARK    3  A    between atoms: C_25  and  O_26
REMARK                            x       y       z     vdW  Elec       q    Type
REMARK                         _______ _______ _______ _____ _____    ______ ____
ROOT
ATOM      1  C   UNL     1      -6.043  16.531  24.109  0.00  0.00    +0.000 C 
ATOM      2  N   UNL     1      -6.146  15.609  22.980  0.00  0.00    +0.000 NA
ATOM      3  C   UNL     1      -5.192  16.049  21.974  0.00  0.00    +0.000 C 
ATOM      4  C   UNL     1      -5.220  14.994  20.931  0.00  0.00    +0.000 C 
ATOM      5  C   UNL     1      -4.547  13.701  21.522  0.00  0.00    +0.000 C 
ATOM      6  C   UNL     1      -5.324  12.638  20.898  0.00  0.00    +0.000 A 
ATOM      7  C   UNL     1      -6.613  12.345  21.304  0.00  0.00    +0.000 A 
ATOM      8  C   UNL     1      -7.231  11.356  20.549  0.00  0.00    +0.000 A 
ATOM      9  C   UNL     1      -6.569  10.800  19.408  0.00  0.00    +0.000 A 
ATOM     10  C   UNL     1      -5.295  11.239  19.006  0.00  0.00    +0.000 A 
ATOM     11  C   UNL     1      -4.671  12.167  19.784  0.00  0.00    +0.000 A 
ATOM     12  O   UNL     1      -3.477  12.809  19.546  0.00  0.00    +0.000 OA
ATOM     13  C   UNL     1      -3.225  13.624  20.733  0.00  0.00    +0.000 C 
ATOM     14  C   UNL     1      -2.126  12.979  21.441  0.00  0.00    +0.000 A 
ATOM     15  N   UNL     1      -0.888  12.803  20.903  0.00  0.00    +0.000 N 
ATOM     16  C   UNL     1      -0.327  11.682  21.466  0.00  0.00    +0.000 A 
ATOM     17  C   UNL     1       0.789  10.960  21.054  0.00  0.00    +0.000 A 
ATOM     18  C   UNL     1       1.016   9.733  21.674  0.00  0.00    +0.000 A 
ATOM     19  C   UNL     1       0.172   9.274  22.688  0.00  0.00    +0.000 A 
ATOM     20  C   UNL     1      -0.907  10.051  23.136  0.00  0.00    +0.000 A 
ATOM     21  C   UNL     1      -1.174  11.294  22.520  0.00  0.00    +0.000 A 
ATOM     22  C   UNL     1      -2.220  12.282  22.606  0.00  0.00    +0.000 A 
ATOM     23  C   UNL     1      -3.451  12.320  23.447  0.00  0.00    +0.000 C 
ATOM     24  C   UNL     1      -4.585  13.445  23.135  0.00  0.00    +0.000 C 
ATOM     25  C   UNL     1      -6.037  14.147  23.333  0.00  0.00    +0.000 C 
ATOM     26  C   UNL     1      -7.180  13.205  22.461  0.00  0.00    +0.000 C 
ATOM     27  H   UNL     1      -0.570  13.217  20.039  0.00  0.00    +0.000 HD
ENDROOT
BRANCH  10  28
ATOM     28  O   UNL     1      -4.674  10.803  17.880  0.00  0.00    +0.000 OA
ATOM     29  H   UNL     1      -5.048  11.269  17.119  0.00  0.00    +0.000 HD
ENDBRANCH  10  28
BRANCH  24  30
ATOM     30  O   UNL     1      -5.399  12.348  23.930  0.00  0.00    +0.000 OA
ATOM     31  H   UNL     1      -6.193  12.768  24.300  0.00  0.00    +0.000 HD
ENDBRANCH  24  30
TORSDOF 2
ENDMDL
MODEL 2
REMARK VINA RESULT:      -7.5      1.042      1.136
REMARK  Name = 
REMARK  3 active torsions:
REMARK  status: ('A' for Active; 'I' for Inactive)
REMARK    1  A    between atoms: C_1  and  N_2
REMARK    2  A    between atoms: C_10  and  O_11
REMARK    3  A    between atoms: C_25  and  O_26
REMARK                            x       y       z     vdW  Elec       q    Type
REMARK                         _______ _______ _______ _____ _____    ______ ____
ROOT
ATOM      1  C   UNL     1      -4.123  16.351  24.897  0.00  0.00    +0.000 C 
ATOM      2  N   UNL     1      -4.565  15.622  23.710  0.00  0.00    +0.000 NA
ATOM      3  C   UNL     1      -3.701  16.021  22.610  0.00  0.00    +0.000 C 
ATOM      4  C   UNL     1      -4.083  15.138  21.480  0.00  0.00    +0.000 C 
ATOM      5  C   UNL     1      -3.592  13.680  21.811  0.00  0.00    +0.000 C 
ATOM      6  C   UNL     1      -4.642  12.861  21.216  0.00  0.00    +0.000 A 
ATOM      7  C   UNL     1      -5.890  12.745  21.800  0.00  0.00    +0.000 A 
ATOM      8  C   UNL     1      -6.790  11.988  21.059  0.00  0.00    +0.000 A 
ATOM      9  C   UNL     1      -6.420  11.485  19.770  0.00  0.00    +0.000 A 
ATOM     10  C   UNL     1      -5.158  11.747  19.210  0.00  0.00    +0.000 A 
ATOM     11  C   UNL     1      -4.261  12.440  19.965  0.00  0.00    +0.000 A 
ATOM     12  O   UNL     1      -3.014  12.891  19.599  0.00  0.00    +0.000 OA
ATOM     13  C   UNL     1      -2.439  13.482  20.807  0.00  0.00    +0.000 C 
ATOM     14  C   UNL     1      -1.394  12.567  21.248  0.00  0.00    +0.000 A 
ATOM     15  N   UNL     1      -0.305  12.254  20.494  0.00  0.00    +0.000 N 
ATOM     16  C   UNL     1       0.106  10.987  20.833  0.00  0.00    +0.000 A 
ATOM     17  C   UNL     1       0.990  10.144  20.165  0.00  0.00    +0.000 A 
ATOM     18  C   UNL     1       1.065   8.825  20.605  0.00  0.00    +0.000 A 
ATOM     19  C   UNL     1       0.304   8.386  21.692  0.00  0.00    +0.000 A 
ATOM     20  C   UNL     1      -0.528   9.270  22.395  0.00  0.00    +0.000 A 
ATOM     21  C   UNL     1      -0.637  10.612  21.967  0.00  0.00    +0.000 A 
ATOM     22  C   UNL     1      -1.450  11.746  22.332  0.00  0.00    +0.000 A 
ATOM     23  C   UNL     1      -2.515  11.883  23.366  0.00  0.00    +0.000 C 
ATOM     24  C   UNL     1      -3.444  13.219  23.370  0.00  0.00    +0.000 C 
ATOM     25  C   UNL     1      -4.690  14.129  23.883  0.00  0.00    +0.000 C 
ATOM     26  C   UNL     1      -6.107  13.526  23.120  0.00  0.00    +0.000 C 
ATOM     27  H   UNL     1      -0.042  12.719  19.638  0.00  0.00    +0.000 HD
ENDROOT
BRANCH  10  28
ATOM     28  O   UNL     1      -4.803  11.366  17.956  0.00  0.00    +0.000 OA
ATOM     29  H   UNL     1      -5.450  10.724  17.631  0.00  0.00    +0.000 HD
ENDBRANCH  10  28
BRANCH  24  30
ATOM     30  O   UNL     1      -4.330  12.183  24.170  0.00  0.00    +0.000 OA
ATOM     31  H   UNL     1      -3.740  11.635  24.714  0.00  0.00    +0.000 HD
ENDBRANCH  24  30
TORSDOF 2
ENDMDL
MODEL 3
REMARK VINA RESULT:      -7.5      6.657     11.327
REMARK  Name = 
REMARK  3 active torsions:
REMARK  status: ('A' for Active; 'I' for Inactive)
REMARK    1  A    between atoms: C_1  and  N_2
REMARK    2  A    between atoms: C_10  and  O_11
REMARK    3  A    between atoms: C_25  and  O_26
REMARK                            x       y       z     vdW  Elec       q    Type
REMARK                         _______ _______ _______ _____ _____    ______ ____
ROOT
ATOM      1  C   UNL     1       7.977   5.812  17.872  0.00  0.00    +0.000 C 
ATOM      2  N   UNL     1       6.744   5.078  18.148  0.00  0.00    +0.000 NA
ATOM      3  C   UNL     1       6.412   5.301  19.547  0.00  0.00    +0.000 C 
ATOM      4  C   UNL     1       5.079   4.676  19.730  0.00  0.00    +0.000 C 
ATOM      5  C   UNL     1       4.018   5.552  18.966  0.00  0.00    +0.000 C 
ATOM      6  C   UNL     1       3.077   4.546  18.488  0.00  0.00    +0.000 A 
ATOM      7  C   UNL     1       3.383   3.710  17.431  0.00  0.00    +0.000 A 
ATOM      8  C   UNL     1       2.404   2.762  17.160  0.00  0.00    +0.000 A 
ATOM      9  C   UNL     1       1.249   2.657  18.001  0.00  0.00    +0.000 A 
ATOM     10  C   UNL     1       1.076   3.486  19.123  0.00  0.00    +0.000 A 
ATOM     11  C   UNL     1       2.011   4.450  19.349  0.00  0.00    +0.000 A 
ATOM     12  O   UNL     1       2.102   5.307  20.422  0.00  0.00    +0.000 OA
ATOM     13  C   UNL     1       3.225   6.196  20.121  0.00  0.00    +0.000 C 
ATOM     14  C   UNL     1       2.640   7.495  19.812  0.00  0.00    +0.000 A 
ATOM     15  N   UNL     1       1.893   8.209  20.698  0.00  0.00    +0.000 N 
ATOM     16  C   UNL     1       1.001   8.978  19.989  0.00  0.00    +0.000 A 
ATOM     17  C   UNL     1      -0.125   9.658  20.444  0.00  0.00    +0.000 A 
ATOM     18  C   UNL     1      -0.983  10.182  19.480  0.00  0.00    +0.000 A 
ATOM     19  C   UNL     1      -0.698  10.054  18.119  0.00  0.00    +0.000 A 
ATOM     20  C   UNL     1       0.479   9.426  17.684  0.00  0.00    +0.000 A 
ATOM     21  C   UNL     1       1.365   8.871  18.634  0.00  0.00    +0.000 A 
ATOM     22  C   UNL     1       2.561   8.068  18.581  0.00  0.00    +0.000 A 
ATOM     23  C   UNL     1       3.315   7.529  17.413  0.00  0.00    +0.000 C 
ATOM     24  C   UNL     1       4.487   6.429  17.671  0.00  0.00    +0.000 C 
ATOM     25  C   UNL     1       5.607   5.351  17.196  0.00  0.00    +0.000 C 
ATOM     26  C   UNL     1       4.776   3.905  16.781  0.00  0.00    +0.000 C 
ATOM     27  H   UNL     1       1.789   7.988  21.677  0.00  0.00    +0.000 HD
ENDROOT
BRANCH  10  28
ATOM     28  O   UNL     1       0.043   3.356  19.995  0.00  0.00    +0.000 OA
ATOM     29  H   UNL     1      -0.420   2.528  19.808  0.00  0.00    +0.000 HD
ENDBRANCH  10  28
BRANCH  24  30
ATOM     30  O   UNL     1       4.125   6.195  16.150  0.00  0.00    +0.000 OA
ATOM     31  H   UNL     1       4.917   6.379  15.618  0.00  0.00    +0.000 HD
ENDBRANCH  24  30
TORSDOF 2
ENDMDL
MODEL 4
REMARK VINA RESULT:      -7.2      9.270     13.506
REMARK  Name = 
REMARK  3 active torsions:
REMARK  status: ('A' for Active; 'I' for Inactive)
REMARK    1  A    between atoms: C_1  and  N_2
REMARK    2  A    between atoms: C_10  and  O_11
REMARK    3  A    between atoms: C_25  and  O_26
REMARK                            x       y       z     vdW  Elec       q    Type
REMARK                         _______ _______ _______ _____ _____    ______ ____
ROOT
ATOM      1  C   UNL     1      12.333  13.427  16.858  0.00  0.00    +0.000 C 
ATOM      2  N   UNL     1      11.671  13.303  18.155  0.00  0.00    +0.000 NA
ATOM      3  C   UNL     1      11.522  14.645  18.694  0.00  0.00    +0.000 C 
ATOM      4  C   UNL     1      10.705  14.477  19.922  0.00  0.00    +0.000 C 
ATOM      5  C   UNL     1       9.240  14.100  19.488  0.00  0.00    +0.000 C 
ATOM      6  C   UNL     1       8.829  13.194  20.553  0.00  0.00    +0.000 A 
ATOM      7  C   UNL     1       9.309  11.900  20.631  0.00  0.00    +0.000 A 
ATOM      8  C   UNL     1       8.872  11.203  21.751  0.00  0.00    +0.000 A 
ATOM      9  C   UNL     1       8.075  11.859  22.744  0.00  0.00    +0.000 A 
ATOM     10  C   UNL     1       7.724  13.216  22.630  0.00  0.00    +0.000 A 
ATOM     11  C   UNL     1       8.106  13.877  21.502  0.00  0.00    +0.000 A 
ATOM     12  O   UNL     1       7.962  15.214  21.212  0.00  0.00    +0.000 OA
ATOM     13  C   UNL     1       8.450  15.376  19.843  0.00  0.00    +0.000 C 
ATOM     14  C   UNL     1       7.271  15.614  19.019  0.00  0.00    +0.000 A 
ATOM     15  N   UNL     1       6.440  16.678  19.192  0.00  0.00    +0.000 N 
ATOM     16  C   UNL     1       5.181  16.315  18.776  0.00  0.00    +0.000 A 
ATOM     17  C   UNL     1       3.966  16.955  19.000  0.00  0.00    +0.000 A 
ATOM     18  C   UNL     1       2.809  16.259  18.656  0.00  0.00    +0.000 A 
ATOM     19  C   UNL     1       2.879  14.988  18.082  0.00  0.00    +0.000 A 
ATOM     20  C   UNL     1       4.118  14.390  17.800  0.00  0.00    +0.000 A 
ATOM     21  C   UNL     1       5.311  15.063  18.148  0.00  0.00    +0.000 A 
ATOM     22  C   UNL     1       6.715  14.738  18.139  0.00  0.00    +0.000 A 
ATOM     23  C   UNL     1       7.420  13.493  17.719  0.00  0.00    +0.000 C 
ATOM     24  C   UNL     1       9.000  13.323  18.072  0.00  0.00    +0.000 C 
ATOM     25  C   UNL     1      10.397  12.497  18.150  0.00  0.00    +0.000 C 
ATOM     26  C   UNL     1      10.301  11.467  19.523  0.00  0.00    +0.000 C 
ATOM     27  H   UNL     1       6.626  17.466  19.794  0.00  0.00    +0.000 HD
ENDROOT
BRANCH  10  28
ATOM     28  O   UNL     1       7.049  13.896  23.591  0.00  0.00    +0.000 OA
ATOM     29  H   UNL     1       7.316  14.826  23.560  0.00  0.00    +0.000 HD
ENDBRANCH  10  28
BRANCH  24  30
ATOM     30  O   UNL     1       8.536  11.829  17.845  0.00  0.00    +0.000 OA
ATOM     31  H   UNL     1       7.798  11.833  17.213  0.00  0.00    +0.000 HD
ENDBRANCH  24  30
TORSDOF 2
ENDMDL
MODEL 5
REMARK VINA RESULT:      -7.2      2.558      6.707
REMARK  Name = 
REMARK  3 active torsions:
REMARK  status: ('A' for Active; 'I' for Inactive)
REMARK    1  A    between atoms: C_1  and  N_2
REMARK    2  A    between atoms: C_10  and  O_11
REMARK    3  A    between atoms: C_25  and  O_26
REMARK                            x       y       z     vdW  Elec       q    Type
REMARK                         _______ _______ _______ _____ _____    ______ ____
ROOT
ATOM      1  C   UNL     1       2.648  14.883  18.012  0.00  0.00    +0.000 C 
ATOM      2  N   UNL     1       2.406  13.734  18.882  0.00  0.00    +0.000 NA
ATOM      3  C   UNL     1       2.270  14.239  20.239  0.00  0.00    +0.000 C 
ATOM      4  C   UNL     1       1.866  13.064  21.049  0.00  0.00    +0.000 C 
ATOM      5  C   UNL     1       0.389  12.685  20.659  0.00  0.00    +0.000 C 
ATOM      6  C   UNL     1       0.405  11.232  20.774  0.00  0.00    +0.000 A 
ATOM      7  C   UNL     1       1.027  10.435  19.831  0.00  0.00    +0.000 A 
ATOM      8  C   UNL     1       1.011   9.081  20.139  0.00  0.00    +0.000 A 
ATOM      9  C   UNL     1       0.466   8.630  21.384  0.00  0.00    +0.000 A 
ATOM     10  C   UNL     1      -0.051   9.530  22.333  0.00  0.00    +0.000 A 
ATOM     11  C   UNL     1      -0.085  10.850  22.000  0.00  0.00    +0.000 A 
ATOM     12  O   UNL     1      -0.454  11.914  22.791  0.00  0.00    +0.000 OA
ATOM     13  C   UNL     1      -0.402  13.088  21.920  0.00  0.00    +0.000 C 
ATOM     14  C   UNL     1      -1.786  13.473  21.676  0.00  0.00    +0.000 A 
ATOM     15  N   UNL     1      -2.645  13.845  22.665  0.00  0.00    +0.000 N 
ATOM     16  C   UNL     1      -3.922  13.521  22.272  0.00  0.00    +0.000 A 
ATOM     17  C   UNL     1      -5.084  13.460  23.035  0.00  0.00    +0.000 A 
ATOM     18  C   UNL     1      -6.207  12.891  22.438  0.00  0.00    +0.000 A 
ATOM     19  C   UNL     1      -6.165  12.435  21.119  0.00  0.00    +0.000 A 
ATOM     20  C   UNL     1      -5.002  12.570  20.345  0.00  0.00    +0.000 A 
ATOM     21  C   UNL     1      -3.841  13.131  20.923  0.00  0.00    +0.000 A 
ATOM     22  C   UNL     1      -2.472  13.314  20.512  0.00  0.00    +0.000 A 
ATOM     23  C   UNL     1      -1.785  12.951  19.239  0.00  0.00    +0.000 C 
ATOM     24  C   UNL     1      -0.162  13.046  19.165  0.00  0.00    +0.000 C 
ATOM     25  C   UNL     1       1.281  12.827  18.449  0.00  0.00    +0.000 C 
ATOM     26  C   UNL     1       1.700  11.172  18.646  0.00  0.00    +0.000 C 
ATOM     27  H   UNL     1      -2.381  14.025  23.622  0.00  0.00    +0.000 HD
ENDROOT
BRANCH  10  28
ATOM     28  O   UNL     1      -0.491   9.151  23.560  0.00  0.00    +0.000 OA
ATOM     29  H   UNL     1      -0.910   9.911  23.988  0.00  0.00    +0.000 HD
ENDBRANCH  10  28
BRANCH  24  30
ATOM     30  O   UNL     1      -0.503  12.052  17.984  0.00  0.00    +0.000 OA
ATOM     31  H   UNL     1      -1.253  12.417  17.487  0.00  0.00    +0.000 HD
ENDBRANCH  24  30
TORSDOF 2
ENDMDL
MODEL 6
REMARK VINA RESULT:      -7.1      5.269      8.338
REMARK  Name = 
REMARK  3 active torsions:
REMARK  status: ('A' for Active; 'I' for Inactive)
REMARK    1  A    between atoms: C_1  and  N_2
REMARK    2  A    between atoms: C_10  and  O_11
REMARK    3  A    between atoms: C_25  and  O_26
REMARK                            x       y       z     vdW  Elec       q    Type
REMARK                         _______ _______ _______ _____ _____    ______ ____
ROOT
ATOM      1  C   UNL     1       1.516  17.928  16.883  0.00  0.00    +0.000 C 
ATOM      2  N   UNL     1       2.330  17.485  18.014  0.00  0.00    +0.000 NA
ATOM      3  C   UNL     1       1.534  17.668  19.217  0.00  0.00    +0.000 C 
ATOM      4  C   UNL     1       2.336  17.056  20.305  0.00  0.00    +0.000 C 
ATOM      5  C   UNL     1       2.326  15.496  20.103  0.00  0.00    +0.000 C 
ATOM      6  C   UNL     1       3.658  15.119  20.559  0.00  0.00    +0.000 A 
ATOM      7  C   UNL     1       4.785  15.371  19.797  0.00  0.00    +0.000 A 
ATOM      8  C   UNL     1       5.976  15.016  20.419  0.00  0.00    +0.000 A 
ATOM      9  C   UNL     1       5.970  14.528  21.765  0.00  0.00    +0.000 A 
ATOM     10  C   UNL     1       4.778  14.406  22.501  0.00  0.00    +0.000 A 
ATOM     11  C   UNL     1       3.609  14.701  21.867  0.00  0.00    +0.000 A 
ATOM     12  O   UNL     1       2.343  14.746  22.402  0.00  0.00    +0.000 OA
ATOM     13  C   UNL     1       1.449  15.014  21.276  0.00  0.00    +0.000 C 
ATOM     14  C   UNL     1       0.725  13.773  21.029  0.00  0.00    +0.000 A 
ATOM     15  N   UNL     1      -0.086  13.183  21.950  0.00  0.00    +0.000 N 
ATOM     16  C   UNL     1      -0.086  11.828  21.720  0.00  0.00    +0.000 A 
ATOM     17  C   UNL     1      -0.539  10.800  22.542  0.00  0.00    +0.000 A 
ATOM     18  C   UNL     1      -0.222   9.498  22.163  0.00  0.00    +0.000 A 
ATOM     19  C   UNL     1       0.492   9.245  20.990  0.00  0.00    +0.000 A 
ATOM     20  C   UNL     1       0.878  10.292  20.140  0.00  0.00    +0.000 A 
ATOM     21  C   UNL     1       0.584  11.626  20.500  0.00  0.00    +0.000 A 
ATOM     22  C   UNL     1       0.911  12.929  19.978  0.00  0.00    +0.000 A 
ATOM     23  C   UNL     1       1.723  13.322  18.790  0.00  0.00    +0.000 C 
ATOM     24  C   UNL     1       2.139  14.884  18.600  0.00  0.00    +0.000 C 
ATOM     25  C   UNL     1       2.926  16.107  17.874  0.00  0.00    +0.000 C 
ATOM     26  C   UNL     1       4.551  16.068  18.434  0.00  0.00    +0.000 C 
ATOM     27  H   UNL     1      -0.376  13.605  22.819  0.00  0.00    +0.000 HD
ENDROOT
BRANCH  10  28
ATOM     28  O   UNL     1       4.741  14.035  23.807  0.00  0.00    +0.000 OA
ATOM     29  H   UNL     1       3.915  14.355  24.197  0.00  0.00    +0.000 HD
ENDBRANCH  10  28
BRANCH  24  30
ATOM     30  O   UNL     1       3.209  14.134  17.711  0.00  0.00    +0.000 OA
ATOM     31  H   UNL     1       3.640  14.789  17.138  0.00  0.00    +0.000 HD
ENDBRANCH  24  30
TORSDOF 2
ENDMDL
MODEL 7
REMARK VINA RESULT:      -7.1      2.456      6.198
REMARK  Name = 
REMARK  3 active torsions:
REMARK  status: ('A' for Active; 'I' for Inactive)
REMARK    1  A    between atoms: C_1  and  N_2
REMARK    2  A    between atoms: C_10  and  O_11
REMARK    3  A    between atoms: C_25  and  O_26
REMARK                            x       y       z     vdW  Elec       q    Type
REMARK                         _______ _______ _______ _____ _____    ______ ____
ROOT
ATOM      1  C   UNL     1       1.326  16.068  18.823  0.00  0.00    +0.000 C 
ATOM      2  N   UNL     1       1.277  14.771  19.495  0.00  0.00    +0.000 NA
ATOM      3  C   UNL     1       1.237  15.027  20.926  0.00  0.00    +0.000 C 
ATOM      4  C   UNL     1       1.023  13.697  21.549  0.00  0.00    +0.000 C 
ATOM      5  C   UNL     1      -0.447  13.236  21.226  0.00  0.00    +0.000 C 
ATOM      6  C   UNL     1      -0.291  11.794  21.083  0.00  0.00    +0.000 A 
ATOM      7  C   UNL     1       0.299  11.235  19.965  0.00  0.00    +0.000 A 
ATOM      8  C   UNL     1       0.434   9.854  20.030  0.00  0.00    +0.000 A 
ATOM      9  C   UNL     1       0.062   9.148  21.219  0.00  0.00    +0.000 A 
ATOM     10  C   UNL     1      -0.432   9.818  22.352  0.00  0.00    +0.000 A 
ATOM     11  C   UNL     1      -0.617  11.164  22.260  0.00  0.00    +0.000 A 
ATOM     12  O   UNL     1      -0.995  12.037  23.254  0.00  0.00    +0.000 OA
ATOM     13  C   UNL     1      -1.136  13.339  22.602  0.00  0.00    +0.000 C 
ATOM     14  C   UNL     1      -2.567  13.612  22.550  0.00  0.00    +0.000 A 
ATOM     15  N   UNL     1      -3.349  13.722  23.659  0.00  0.00    +0.000 N 
ATOM     16  C   UNL     1      -4.626  13.337  23.326  0.00  0.00    +0.000 A 
ATOM     17  C   UNL     1      -5.694  13.029  24.164  0.00  0.00    +0.000 A 
ATOM     18  C   UNL     1      -6.818  12.453  23.575  0.00  0.00    +0.000 A 
ATOM     19  C   UNL     1      -6.871  12.229  22.197  0.00  0.00    +0.000 A 
ATOM     20  C   UNL     1      -5.810  12.612  21.362  0.00  0.00    +0.000 A 
ATOM     21  C   UNL     1      -4.650  13.187  21.928  0.00  0.00    +0.000 A 
ATOM     22  C   UNL     1      -3.352  13.578  21.439  0.00  0.00    +0.000 A 
ATOM     23  C   UNL     1      -2.770  13.506  20.068  0.00  0.00    +0.000 C 
ATOM     24  C   UNL     1      -1.178  13.781  19.872  0.00  0.00    +0.000 C 
ATOM     25  C   UNL     1       0.198  13.837  19.008  0.00  0.00    +0.000 C 
ATOM     26  C   UNL     1       0.779  12.224  18.874  0.00  0.00    +0.000 C 
ATOM     27  H   UNL     1      -3.006  13.768  24.606  0.00  0.00    +0.000 HD
ENDROOT
BRANCH  10  28
ATOM     28  O   UNL     1      -0.710   9.196  23.527  0.00  0.00    +0.000 OA
ATOM     29  H   UNL     1      -0.268   8.336  23.535  0.00  0.00    +0.000 HD
ENDBRANCH  10  28
BRANCH  24  30
ATOM     30  O   UNL     1      -1.549  12.967  18.568  0.00  0.00    +0.000 OA
ATOM     31  H   UNL     1      -2.517  12.913  18.510  0.00  0.00    +0.000 HD
ENDBRANCH  24  30
TORSDOF 2
ENDMDL
MODEL 8
REMARK VINA RESULT:      -7.1      1.377      1.806
REMARK  Name = 
REMARK  3 active torsions:
REMARK  status: ('A' for Active; 'I' for Inactive)
REMARK    1  A    between atoms: C_1  and  N_2
REMARK    2  A    between atoms: C_10  and  O_11
REMARK    3  A    between atoms: C_25  and  O_26
REMARK                            x       y       z     vdW  Elec       q    Type
REMARK                         _______ _______ _______ _____ _____    ______ ____
ROOT
ATOM      1  C   UNL     1      -3.442  18.205  23.669  0.00  0.00    +0.000 C 
ATOM      2  N   UNL     1      -4.254  17.157  23.055  0.00  0.00    +0.000 NA
ATOM      3  C   UNL     1      -3.793  16.998  21.685  0.00  0.00    +0.000 C 
ATOM      4  C   UNL     1      -4.531  15.821  21.164  0.00  0.00    +0.000 C 
ATOM      5  C   UNL     1      -3.973  14.537  21.881  0.00  0.00    +0.000 C 
ATOM      6  C   UNL     1      -5.166  13.708  21.998  0.00  0.00    +0.000 A 
ATOM      7  C   UNL     1      -6.157  13.988  22.922  0.00  0.00    +0.000 A 
ATOM      8  C   UNL     1      -7.256  13.142  22.843  0.00  0.00    +0.000 A 
ATOM      9  C   UNL     1      -7.332  12.152  21.811  0.00  0.00    +0.000 A 
ATOM     10  C   UNL     1      -6.320  12.012  20.846  0.00  0.00    +0.000 A 
ATOM     11  C   UNL     1      -5.219  12.806  20.963  0.00  0.00    +0.000 A 
ATOM     12  O   UNL     1      -4.156  12.914  20.097  0.00  0.00    +0.000 OA
ATOM     13  C   UNL     1      -3.212  13.826  20.743  0.00  0.00    +0.000 C 
ATOM     14  C   UNL     1      -2.089  13.005  21.178  0.00  0.00    +0.000 A 
ATOM     15  N   UNL     1      -1.309  12.289  20.322  0.00  0.00    +0.000 N 
ATOM     16  C   UNL     1      -0.822  11.194  20.995  0.00  0.00    +0.000 A 
ATOM     17  C   UNL     1      -0.212  10.052  20.484  0.00  0.00    +0.000 A 
ATOM     18  C   UNL     1      -0.010   8.992  21.365  0.00  0.00    +0.000 A 
ATOM     19  C   UNL     1      -0.377   9.095  22.708  0.00  0.00    +0.000 A 
ATOM     20  C   UNL     1      -0.927  10.282  23.218  0.00  0.00    +0.000 A 
ATOM     21  C   UNL     1      -1.157  11.372  22.349  0.00  0.00    +0.000 A 
ATOM     22  C   UNL     1      -1.795  12.659  22.460  0.00  0.00    +0.000 A 
ATOM     23  C   UNL     1      -2.463  13.314  23.623  0.00  0.00    +0.000 C 
ATOM     24  C   UNL     1      -3.328  14.670  23.375  0.00  0.00    +0.000 C 
ATOM     25  C   UNL     1      -4.329  15.866  23.831  0.00  0.00    +0.000 C 
ATOM     26  C   UNL     1      -5.923  15.223  23.826  0.00  0.00    +0.000 C 
ATOM     27  H   UNL     1      -1.336  12.364  19.316  0.00  0.00    +0.000 HD
ENDROOT
BRANCH  10  28
ATOM     28  O   UNL     1      -6.398  11.150  19.800  0.00  0.00    +0.000 OA
ATOM     29  H   UNL     1      -6.638  11.646  19.005  0.00  0.00    +0.000 HD
ENDBRANCH  10  28
BRANCH  24  30
ATOM     30  O   UNL     1      -3.913  14.135  24.742  0.00  0.00    +0.000 OA
ATOM     31  H   UNL     1      -3.424  14.557  25.467  0.00  0.00    +0.000 HD
ENDBRANCH  24  30
TORSDOF 2
ENDMDL
MODEL 9
REMARK VINA RESULT:      -7.0      4.085      6.132
REMARK  Name = 
REMARK  3 active torsions:
REMARK  status: ('A' for Active; 'I' for Inactive)
REMARK    1  A    between atoms: C_1  and  N_2
REMARK    2  A    between atoms: C_10  and  O_11
REMARK    3  A    between atoms: C_25  and  O_26
REMARK                            x       y       z     vdW  Elec       q    Type
REMARK                         _______ _______ _______ _____ _____    ______ ____
ROOT
ATOM      1  C   UNL     1       2.557  14.245  21.504  0.00  0.00    +0.000 C 
ATOM      2  N   UNL     1       1.551  13.677  20.610  0.00  0.00    +0.000 NA
ATOM      3  C   UNL     1       2.232  13.282  19.388  0.00  0.00    +0.000 C 
ATOM      4  C   UNL     1       1.206  12.568  18.588  0.00  0.00    +0.000 C 
ATOM      5  C   UNL     1       0.907  11.193  19.292  0.00  0.00    +0.000 C 
ATOM      6  C   UNL     1      -0.517  11.018  19.030  0.00  0.00    +0.000 A 
ATOM      7  C   UNL     1      -1.475  11.753  19.704  0.00  0.00    +0.000 A 
ATOM      8  C   UNL     1      -2.774  11.513  19.274  0.00  0.00    +0.000 A 
ATOM      9  C   UNL     1      -3.018  10.642  18.163  0.00  0.00    +0.000 A 
ATOM     10  C   UNL     1      -1.966  10.020  17.468  0.00  0.00    +0.000 A 
ATOM     11  C   UNL     1      -0.699  10.213  17.931  0.00  0.00    +0.000 A 
ATOM     12  O   UNL     1       0.482   9.789  17.368  0.00  0.00    +0.000 OA
ATOM     13  C   UNL     1       1.530  10.177  18.313  0.00  0.00    +0.000 C 
ATOM     14  C   UNL     1       1.996   8.941  18.929  0.00  0.00    +0.000 A 
ATOM     15  N   UNL     1       2.559   7.920  18.227  0.00  0.00    +0.000 N 
ATOM     16  C   UNL     1       2.297   6.744  18.889  0.00  0.00    +0.000 A 
ATOM     17  C   UNL     1       2.431   5.435  18.435  0.00  0.00    +0.000 A 
ATOM     18  C   UNL     1       1.887   4.429  19.231  0.00  0.00    +0.000 A 
ATOM     19  C   UNL     1       1.268   4.730  20.446  0.00  0.00    +0.000 A 
ATOM     20  C   UNL     1       1.206   6.051  20.917  0.00  0.00    +0.000 A 
ATOM     21  C   UNL     1       1.736   7.097  20.129  0.00  0.00    +0.000 A 
ATOM     22  C   UNL     1       1.751   8.536  20.205  0.00  0.00    +0.000 A 
ATOM     23  C   UNL     1       1.175   9.460  21.224  0.00  0.00    +0.000 C 
ATOM     24  C   UNL     1       1.122  11.055  20.904  0.00  0.00    +0.000 C 
ATOM     25  C   UNL     1       0.695  12.592  21.214  0.00  0.00    +0.000 C 
ATOM     26  C   UNL     1      -0.952  12.764  20.753  0.00  0.00    +0.000 C 
ATOM     27  H   UNL     1       2.836   7.969  17.257  0.00  0.00    +0.000 HD
ENDROOT
BRANCH  10  28
ATOM     28  O   UNL     1      -2.150   9.262  16.357  0.00  0.00    +0.000 OA
ATOM     29  H   UNL     1      -2.290   8.343  16.626  0.00  0.00    +0.000 HD
ENDBRANCH  10  28
BRANCH  24  30
ATOM     30  O   UNL     1       0.020  10.893  22.026  0.00  0.00    +0.000 OA
ATOM     31  H   UNL     1      -0.670  11.559  21.872  0.00  0.00    +0.000 HD
ENDBRANCH  24  30
TORSDOF 2
ENDMDL
