MODEL 1
REMARK VINA RESULT:      -8.4      0.000      0.000
REMARK  Name = 
REMARK  7 active torsions:
REMARK  status: ('A' for Active; 'I' for Inactive)
REMARK    1  A    between atoms: C_1  and  C_2
REMARK    2  A    between atoms: C_7  and  C_9
REMARK    3  A    between atoms: C_9  and  C_10
REMARK    4  A    between atoms: C_10  and  C_11
REMARK    5  A    between atoms: C_12  and  C_13
REMARK    6  A    between atoms: C_17  and  C_18
REMARK    7  A    between atoms: C_27  and  C_28
REMARK                            x       y       z     vdW  Elec       q    Type
REMARK                         _______ _______ _______ _____ _____    ______ ____
ROOT
ATOM      1  C   UNL     1       0.271  10.124  20.522  0.00  0.00    +0.000 A 
ATOM      2  C   UNL     1       0.413   9.060  21.620  0.00  0.00    +0.000 A 
ATOM      3  C   UNL     1      -0.225   9.256  22.986  0.00  0.00    +0.000 C 
ATOM      4  N   UNL     1       1.066   7.939  21.500  0.00  0.00    +0.000 NA
ATOM      5  C   UNL     1       1.688   7.710  20.317  0.00  0.00    +0.000 A 
ATOM      6  C   UNL     1       2.439   6.647  19.883  0.00  0.00    +0.000 A 
ATOM      7  C   UNL     1       2.848   6.973  18.571  0.00  0.00    +0.000 A 
ATOM      8  N   UNL     1       2.385   8.177  18.213  0.00  0.00    +0.000 NA
ATOM      9  N   UNL     1       1.654   8.621  19.270  0.00  0.00    +0.000 N 
ATOM     10  C   UNL     1       0.934   9.827  19.373  0.00  0.00    +0.000 A 
ATOM     11  C   UNL     1       1.001  10.717  18.158  0.00  0.00    +0.000 C 
ENDROOT
BRANCH   7  12
ATOM     12  C   UNL     1       3.666   6.173  17.662  0.00  0.00    +0.000 A 
ATOM     13  C   UNL     1       3.543   4.776  17.636  0.00  0.00    +0.000 A 
ATOM     14  C   UNL     1       4.330   4.011  16.769  0.00  0.00    +0.000 A 
ATOM     15  C   UNL     1       5.246   4.638  15.927  0.00  0.00    +0.000 A 
ATOM     16 CL   UNL     1       6.220   3.694  14.870  0.00  0.00    +0.000 Cl
ATOM     17  C   UNL     1       5.376   6.025  15.936  0.00  0.00    +0.000 A 
ATOM     18  C   UNL     1       4.586   6.790  16.799  0.00  0.00    +0.000 A 
ENDBRANCH   7  12
BRANCH   1  19
ATOM     19  C   UNL     1      -0.564  11.352  20.832  0.00  0.00    +0.000 C 
BRANCH  19  20
ATOM     20  C   UNL     1       0.084  12.553  21.529  0.00  0.00    +0.000 C 
BRANCH  20  27
ATOM     21  C   UNL     1      -6.741  12.614  23.745  0.00  0.00    +0.000 C 
ATOM     22  C   UNL     1      -5.411  13.250  23.573  0.00  0.00    +0.000 A 
ATOM     23  C   UNL     1      -5.015  14.476  24.071  0.00  0.00    +0.000 A 
ATOM     24  S   UNL     1      -3.377  14.765  23.675  0.00  0.00    +0.000 S 
ATOM     25  C   UNL     1      -3.310  13.255  22.890  0.00  0.00    +0.000 A 
ATOM     26  N   UNL     1      -2.178  12.788  22.275  0.00  0.00    +0.000 N 
ATOM     27  C   UNL     1      -0.898  13.274  22.437  0.00  0.00    +0.000 C 
ATOM     28  O   UNL     1      -0.537  14.172  23.188  0.00  0.00    +0.000 OA
ATOM     29  N   UNL     1      -4.431  12.574  22.858  0.00  0.00    +0.000 NA
ATOM     30  H   UNL     1      -2.334  11.932  21.759  0.00  0.00    +0.000 HD
ENDBRANCH  20  27
ENDBRANCH  19  20
ENDBRANCH   1  19
TORSDOF 4
ENDMDL
MODEL 2
REMARK VINA RESULT:      -8.2      3.068      4.837
REMARK  Name = 
REMARK  7 active torsions:
REMARK  status: ('A' for Active; 'I' for Inactive)
REMARK    1  A    between atoms: C_1  and  C_2
REMARK    2  A    between atoms: C_7  and  C_9
REMARK    3  A    between atoms: C_9  and  C_10
REMARK    4  A    between atoms: C_10  and  C_11
REMARK    5  A    between atoms: C_12  and  C_13
REMARK    6  A    between atoms: C_17  and  C_18
REMARK    7  A    between atoms: C_27  and  C_28
REMARK                            x       y       z     vdW  Elec       q    Type
REMARK                         _______ _______ _______ _____ _____    ______ ____
ROOT
ATOM      1  C   UNL     1       0.233  10.251  20.544  0.00  0.00    +0.000 A 
ATOM      2  C   UNL     1       0.392   9.210  21.661  0.00  0.00    +0.000 A 
ATOM      3  C   UNL     1      -0.228   9.433  23.032  0.00  0.00    +0.000 C 
ATOM      4  N   UNL     1       1.048   8.090  21.556  0.00  0.00    +0.000 NA
ATOM      5  C   UNL     1       1.656   7.838  20.370  0.00  0.00    +0.000 A 
ATOM      6  C   UNL     1       2.405   6.769  19.947  0.00  0.00    +0.000 A 
ATOM      7  C   UNL     1       2.795   7.070  18.624  0.00  0.00    +0.000 A 
ATOM      8  N   UNL     1       2.323   8.265  18.248  0.00  0.00    +0.000 NA
ATOM      9  N   UNL     1       1.604   8.728  19.305  0.00  0.00    +0.000 N 
ATOM     10  C   UNL     1       0.881   9.933  19.392  0.00  0.00    +0.000 A 
ATOM     11  C   UNL     1       0.929  10.799  18.159  0.00  0.00    +0.000 C 
ENDROOT
BRANCH   7  12
ATOM     12  C   UNL     1       3.604   6.255  17.721  0.00  0.00    +0.000 A 
ATOM     13  C   UNL     1       3.416   4.867  17.653  0.00  0.00    +0.000 A 
ATOM     14  C   UNL     1       4.194   4.087  16.792  0.00  0.00    +0.000 A 
ATOM     15  C   UNL     1       5.167   4.689  15.998  0.00  0.00    +0.000 A 
ATOM     16 CL   UNL     1       6.129   3.725  14.947  0.00  0.00    +0.000 Cl
ATOM     17  C   UNL     1       5.362   6.068  16.048  0.00  0.00    +0.000 A 
ATOM     18  C   UNL     1       4.581   6.848  16.905  0.00  0.00    +0.000 A 
ENDBRANCH   7  12
BRANCH   1  19
ATOM     19  C   UNL     1      -0.603  11.483  20.840  0.00  0.00    +0.000 C 
BRANCH  19  20
ATOM     20  C   UNL     1       0.068  12.733  21.420  0.00  0.00    +0.000 C 
BRANCH  20  27
ATOM     21  C   UNL     1       5.879  14.878  17.797  0.00  0.00    +0.000 C 
ATOM     22  C   UNL     1       4.477  15.052  18.252  0.00  0.00    +0.000 A 
ATOM     23  C   UNL     1       3.602  16.044  17.856  0.00  0.00    +0.000 A 
ATOM     24  S   UNL     1       2.078  15.807  18.594  0.00  0.00    +0.000 S 
ATOM     25  C   UNL     1       2.681  14.415  19.368  0.00  0.00    +0.000 A 
ATOM     26  N   UNL     1       1.920  13.645  20.209  0.00  0.00    +0.000 N 
ATOM     27  C   UNL     1       0.547  13.673  20.326  0.00  0.00    +0.000 C 
ATOM     28  O   UNL     1      -0.238  14.351  19.673  0.00  0.00    +0.000 OA
ATOM     29  N   UNL     1       3.947  14.143  19.156  0.00  0.00    +0.000 NA
ATOM     30  H   UNL     1       2.454  12.925  20.675  0.00  0.00    +0.000 HD
ENDBRANCH  20  27
ENDBRANCH  19  20
ENDBRANCH   1  19
TORSDOF 4
ENDMDL
MODEL 3
REMARK VINA RESULT:      -8.2      0.947      1.007
REMARK  Name = 
REMARK  7 active torsions:
REMARK  status: ('A' for Active; 'I' for Inactive)
REMARK    1  A    between atoms: C_1  and  C_2
REMARK    2  A    between atoms: C_7  and  C_9
REMARK    3  A    between atoms: C_9  and  C_10
REMARK    4  A    between atoms: C_10  and  C_11
REMARK    5  A    between atoms: C_12  and  C_13
REMARK    6  A    between atoms: C_17  and  C_18
REMARK    7  A    between atoms: C_27  and  C_28
REMARK                            x       y       z     vdW  Elec       q    Type
REMARK                         _______ _______ _______ _____ _____    ______ ____
ROOT
ATOM      1  C   UNL     1       0.492  10.321  20.537  0.00  0.00    +0.000 A 
ATOM      2  C   UNL     1       0.467   9.195  21.580  0.00  0.00    +0.000 A 
ATOM      3  C   UNL     1      -0.228   9.385  22.920  0.00  0.00    +0.000 C 
ATOM      4  N   UNL     1       1.016   8.023  21.434  0.00  0.00    +0.000 NA
ATOM      5  C   UNL     1       1.682   7.792  20.275  0.00  0.00    +0.000 A 
ATOM      6  C   UNL     1       2.353   6.684  19.823  0.00  0.00    +0.000 A 
ATOM      7  C   UNL     1       2.866   7.033  18.555  0.00  0.00    +0.000 A 
ATOM      8  N   UNL     1       2.542   8.294  18.240  0.00  0.00    +0.000 NA
ATOM      9  N   UNL     1       1.796   8.754  19.279  0.00  0.00    +0.000 N 
ATOM     10  C   UNL     1       1.189  10.018  19.410  0.00  0.00    +0.000 A 
ATOM     11  C   UNL     1       1.411  10.957  18.251  0.00  0.00    +0.000 C 
ENDROOT
BRANCH   7  12
ATOM     12  C   UNL     1       3.656   6.204  17.648  0.00  0.00    +0.000 A 
ATOM     13  C   UNL     1       3.499   4.810  17.640  0.00  0.00    +0.000 A 
ATOM     14  C   UNL     1       4.260   4.016  16.774  0.00  0.00    +0.000 A 
ATOM     15  C   UNL     1       5.183   4.611  15.918  0.00  0.00    +0.000 A 
ATOM     16 CL   UNL     1       6.123   3.631  14.863  0.00  0.00    +0.000 Cl
ATOM     17  C   UNL     1       5.346   5.994  15.909  0.00  0.00    +0.000 A 
ATOM     18  C   UNL     1       4.583   6.788  16.770  0.00  0.00    +0.000 A 
ENDBRANCH   7  12
BRANCH   1  19
ATOM     19  C   UNL     1      -0.240  11.608  20.869  0.00  0.00    +0.000 C 
BRANCH  19  20
ATOM     20  C   UNL     1      -1.634  11.860  20.285  0.00  0.00    +0.000 C 
BRANCH  20  27
ATOM     21  C   UNL     1      -7.489  13.221  24.204  0.00  0.00    +0.000 C 
ATOM     22  C   UNL     1      -6.332  13.651  23.380  0.00  0.00    +0.000 A 
ATOM     23  C   UNL     1      -5.923  14.950  23.151  0.00  0.00    +0.000 A 
ATOM     24  S   UNL     1      -4.506  14.955  22.193  0.00  0.00    +0.000 S 
ATOM     25  C   UNL     1      -4.532  13.253  22.162  0.00  0.00    +0.000 A 
ATOM     26  N   UNL     1      -3.591  12.508  21.500  0.00  0.00    +0.000 N 
ATOM     27  C   UNL     1      -2.371  12.954  21.040  0.00  0.00    +0.000 C 
ATOM     28  O   UNL     1      -1.891  14.073  21.178  0.00  0.00    +0.000 OA
ATOM     29  N   UNL     1      -5.546  12.682  22.771  0.00  0.00    +0.000 NA
ATOM     30  H   UNL     1      -3.811  11.522  21.482  0.00  0.00    +0.000 HD
ENDBRANCH  20  27
ENDBRANCH  19  20
ENDBRANCH   1  19
TORSDOF 4
ENDMDL
MODEL 4
REMARK VINA RESULT:      -8.2      1.950      2.774
REMARK  Name = 
REMARK  7 active torsions:
REMARK  status: ('A' for Active; 'I' for Inactive)
REMARK    1  A    between atoms: C_1  and  C_2
REMARK    2  A    between atoms: C_7  and  C_9
REMARK    3  A    between atoms: C_9  and  C_10
REMARK    4  A    between atoms: C_10  and  C_11
REMARK    5  A    between atoms: C_12  and  C_13
REMARK    6  A    between atoms: C_17  and  C_18
REMARK    7  A    between atoms: C_27  and  C_28
REMARK                            x       y       z     vdW  Elec       q    Type
REMARK                         _______ _______ _______ _____ _____    ______ ____
ROOT
ATOM      1  C   UNL     1      -0.215  11.282  21.220  0.00  0.00    +0.000 A 
ATOM      2  C   UNL     1      -0.450  11.813  19.798  0.00  0.00    +0.000 A 
ATOM      3  C   UNL     1      -1.282  13.063  19.557  0.00  0.00    +0.000 C 
ATOM      4  N   UNL     1       0.012  11.269  18.708  0.00  0.00    +0.000 NA
ATOM      5  C   UNL     1       0.737  10.132  18.843  0.00  0.00    +0.000 A 
ATOM      6  C   UNL     1       1.352   9.335  17.910  0.00  0.00    +0.000 A 
ATOM      7  C   UNL     1       1.939   8.274  18.634  0.00  0.00    +0.000 A 
ATOM      8  N   UNL     1       1.694   8.398  19.944  0.00  0.00    +0.000 NA
ATOM      9  N   UNL     1       0.980   9.547  20.080  0.00  0.00    +0.000 N 
ATOM     10  C   UNL     1       0.509  10.132  21.271  0.00  0.00    +0.000 A 
ATOM     11  C   UNL     1       0.842   9.375  22.531  0.00  0.00    +0.000 C 
ENDROOT
BRANCH   7  12
ATOM     12  C   UNL     1       2.715   7.153  18.110  0.00  0.00    +0.000 A 
ATOM     13  C   UNL     1       2.271   5.835  18.288  0.00  0.00    +0.000 A 
ATOM     14  C   UNL     1       3.017   4.762  17.789  0.00  0.00    +0.000 A 
ATOM     15  C   UNL     1       4.212   5.001  17.115  0.00  0.00    +0.000 A 
ATOM     16 CL   UNL     1       5.132   3.678  16.513  0.00  0.00    +0.000 Cl
ATOM     17  C   UNL     1       4.664   6.305  16.924  0.00  0.00    +0.000 A 
ATOM     18  C   UNL     1       3.916   7.377  17.418  0.00  0.00    +0.000 A 
ENDBRANCH   7  12
BRANCH   1  19
ATOM     19  C   UNL     1      -0.801  12.073  22.375  0.00  0.00    +0.000 C 
BRANCH  19  20
ATOM     20  C   UNL     1      -1.900  11.448  23.240  0.00  0.00    +0.000 C 
BRANCH  20  27
ATOM     21  C   UNL     1      -7.622  13.362  19.356  0.00  0.00    +0.000 C 
ATOM     22  C   UNL     1      -6.676  13.556  20.483  0.00  0.00    +0.000 A 
ATOM     23  C   UNL     1      -6.774  14.502  21.485  0.00  0.00    +0.000 A 
ATOM     24  S   UNL     1      -5.491  14.307  22.598  0.00  0.00    +0.000 S 
ATOM     25  C   UNL     1      -4.912  12.990  21.686  0.00  0.00    +0.000 A 
ATOM     26  N   UNL     1      -3.792  12.282  22.034  0.00  0.00    +0.000 N 
ATOM     27  C   UNL     1      -3.157  12.303  23.257  0.00  0.00    +0.000 C 
ATOM     28  O   UNL     1      -3.503  12.915  24.260  0.00  0.00    +0.000 OA
ATOM     29  N   UNL     1      -5.576  12.716  20.587  0.00  0.00    +0.000 NA
ATOM     30  H   UNL     1      -3.518  11.608  21.332  0.00  0.00    +0.000 HD
ENDBRANCH  20  27
ENDBRANCH  19  20
ENDBRANCH   1  19
TORSDOF 4
ENDMDL
MODEL 5
REMARK VINA RESULT:      -8.1      1.563      2.024
REMARK  Name = 
REMARK  7 active torsions:
REMARK  status: ('A' for Active; 'I' for Inactive)
REMARK    1  A    between atoms: C_1  and  C_2
REMARK    2  A    between atoms: C_7  and  C_9
REMARK    3  A    between atoms: C_9  and  C_10
REMARK    4  A    between atoms: C_10  and  C_11
REMARK    5  A    between atoms: C_12  and  C_13
REMARK    6  A    between atoms: C_17  and  C_18
REMARK    7  A    between atoms: C_27  and  C_28
REMARK                            x       y       z     vdW  Elec       q    Type
REMARK                         _______ _______ _______ _____ _____    ______ ____
ROOT
ATOM      1  C   UNL     1       0.481  10.382  20.552  0.00  0.00    +0.000 A 
ATOM      2  C   UNL     1       0.469   9.265  21.605  0.00  0.00    +0.000 A 
ATOM      3  C   UNL     1      -0.208   9.467  22.952  0.00  0.00    +0.000 C 
ATOM      4  N   UNL     1       1.015   8.092  21.461  0.00  0.00    +0.000 NA
ATOM      5  C   UNL     1       1.666   7.851  20.296  0.00  0.00    +0.000 A 
ATOM      6  C   UNL     1       2.329   6.738  19.845  0.00  0.00    +0.000 A 
ATOM      7  C   UNL     1       2.826   7.076  18.567  0.00  0.00    +0.000 A 
ATOM      8  N   UNL     1       2.499   8.334  18.246  0.00  0.00    +0.000 NA
ATOM      9  N   UNL     1       1.767   8.804  19.291  0.00  0.00    +0.000 N 
ATOM     10  C   UNL     1       1.163  10.069  19.418  0.00  0.00    +0.000 A 
ATOM     11  C   UNL     1       1.371  10.998  18.249  0.00  0.00    +0.000 C 
ENDROOT
BRANCH   7  12
ATOM     12  C   UNL     1       3.604   6.238  17.657  0.00  0.00    +0.000 A 
ATOM     13  C   UNL     1       3.446   4.844  17.663  0.00  0.00    +0.000 A 
ATOM     14  C   UNL     1       4.195   4.042  16.795  0.00  0.00    +0.000 A 
ATOM     15  C   UNL     1       5.106   4.629  15.921  0.00  0.00    +0.000 A 
ATOM     16 CL   UNL     1       6.032   3.639  14.862  0.00  0.00    +0.000 Cl
ATOM     17  C   UNL     1       5.270   6.012  15.897  0.00  0.00    +0.000 A 
ATOM     18  C   UNL     1       4.519   6.814  16.762  0.00  0.00    +0.000 A 
ENDBRANCH   7  12
BRANCH   1  19
ATOM     19  C   UNL     1      -0.245  11.673  20.883  0.00  0.00    +0.000 C 
BRANCH  19  20
ATOM     20  C   UNL     1      -1.703  11.855  20.449  0.00  0.00    +0.000 C 
BRANCH  20  27
ATOM     21  C   UNL     1      -1.024  16.000  26.266  0.00  0.00    +0.000 C 
ATOM     22  C   UNL     1      -1.835  15.333  25.218  0.00  0.00    +0.000 A 
ATOM     23  C   UNL     1      -3.192  15.482  25.007  0.00  0.00    +0.000 A 
ATOM     24  S   UNL     1      -3.676  14.566  23.647  0.00  0.00    +0.000 S 
ATOM     25  C   UNL     1      -2.067  14.051  23.433  0.00  0.00    +0.000 A 
ATOM     26  N   UNL     1      -1.686  13.205  22.425  0.00  0.00    +0.000 N 
ATOM     27  C   UNL     1      -2.419  12.890  21.301  0.00  0.00    +0.000 C 
ATOM     28  O   UNL     1      -3.512  13.341  20.978  0.00  0.00    +0.000 OA
ATOM     29  N   UNL     1      -1.205  14.473  24.329  0.00  0.00    +0.000 NA
ATOM     30  H   UNL     1      -0.724  12.906  22.503  0.00  0.00    +0.000 HD
ENDBRANCH  20  27
ENDBRANCH  19  20
ENDBRANCH   1  19
TORSDOF 4
ENDMDL
MODEL 6
REMARK VINA RESULT:      -8.1      3.098      4.323
REMARK  Name = 
REMARK  7 active torsions:
REMARK  status: ('A' for Active; 'I' for Inactive)
REMARK    1  A    between atoms: C_1  and  C_2
REMARK    2  A    between atoms: C_7  and  C_9
REMARK    3  A    between atoms: C_9  and  C_10
REMARK    4  A    between atoms: C_10  and  C_11
REMARK    5  A    between atoms: C_12  and  C_13
REMARK    6  A    between atoms: C_17  and  C_18
REMARK    7  A    between atoms: C_27  and  C_28
REMARK                            x       y       z     vdW  Elec       q    Type
REMARK                         _______ _______ _______ _____ _____    ______ ____
ROOT
ATOM      1  C   UNL     1      -0.055  10.825  20.813  0.00  0.00    +0.000 A 
ATOM      2  C   UNL     1      -0.058   9.763  21.921  0.00  0.00    +0.000 A 
ATOM      3  C   UNL     1      -0.755  10.019  23.248  0.00  0.00    +0.000 C 
ATOM      4  N   UNL     1       0.514   8.595  21.844  0.00  0.00    +0.000 NA
ATOM      5  C   UNL     1       1.183   8.308  20.700  0.00  0.00    +0.000 A 
ATOM      6  C   UNL     1       1.874   7.187  20.313  0.00  0.00    +0.000 A 
ATOM      7  C   UNL     1       2.380   7.470  19.026  0.00  0.00    +0.000 A 
ATOM      8  N   UNL     1       2.032   8.703  18.637  0.00  0.00    +0.000 NA
ATOM      9  N   UNL     1       1.278   9.211  19.648  0.00  0.00    +0.000 N 
ATOM     10  C   UNL     1       0.648  10.469  19.704  0.00  0.00    +0.000 A 
ATOM     11  C   UNL     1       0.851  11.340  18.492  0.00  0.00    +0.000 C 
ENDROOT
BRANCH   7  12
ATOM     12  C   UNL     1       3.185   6.603  18.168  0.00  0.00    +0.000 A 
ATOM     13  C   UNL     1       2.947   5.221  18.130  0.00  0.00    +0.000 A 
ATOM     14  C   UNL     1       3.721   4.391  17.312  0.00  0.00    +0.000 A 
ATOM     15  C   UNL     1       4.739   4.937  16.534  0.00  0.00    +0.000 A 
ATOM     16 CL   UNL     1       5.696   3.912  15.538  0.00  0.00    +0.000 Cl
ATOM     17  C   UNL     1       4.985   6.308  16.556  0.00  0.00    +0.000 A 
ATOM     18  C   UNL     1       4.208   7.139  17.369  0.00  0.00    +0.000 A 
ENDBRANCH   7  12
BRANCH   1  19
ATOM     19  C   UNL     1      -0.810  12.116  21.069  0.00  0.00    +0.000 C 
BRANCH  19  20
ATOM     20  C   UNL     1      -0.166  13.214  21.922  0.00  0.00    +0.000 C 
BRANCH  20  27
ATOM     21  C   UNL     1       1.168  18.301  17.040  0.00  0.00    +0.000 C 
ATOM     22  C   UNL     1       1.563  17.118  17.844  0.00  0.00    +0.000 A 
ATOM     23  C   UNL     1       2.817  16.542  17.899  0.00  0.00    +0.000 A 
ATOM     24  S   UNL     1       2.813  15.240  19.007  0.00  0.00    +0.000 S 
ATOM     25  C   UNL     1       1.169  15.537  19.337  0.00  0.00    +0.000 A 
ATOM     26  N   UNL     1       0.443  14.789  20.226  0.00  0.00    +0.000 N 
ATOM     27  C   UNL     1       0.949  13.926  21.174  0.00  0.00    +0.000 C 
ATOM     28  O   UNL     1       2.129  13.710  21.424  0.00  0.00    +0.000 OA
ATOM     29  N   UNL     1       0.611  16.504  18.646  0.00  0.00    +0.000 NA
ATOM     30  H   UNL     1      -0.541  15.019  20.223  0.00  0.00    +0.000 HD
ENDBRANCH  20  27
ENDBRANCH  19  20
ENDBRANCH   1  19
TORSDOF 4
ENDMDL
MODEL 7
REMARK VINA RESULT:      -8.1      5.757     11.096
REMARK  Name = 
REMARK  7 active torsions:
REMARK  status: ('A' for Active; 'I' for Inactive)
REMARK    1  A    between atoms: C_1  and  C_2
REMARK    2  A    between atoms: C_7  and  C_9
REMARK    3  A    between atoms: C_9  and  C_10
REMARK    4  A    between atoms: C_10  and  C_11
REMARK    5  A    between atoms: C_12  and  C_13
REMARK    6  A    between atoms: C_17  and  C_18
REMARK    7  A    between atoms: C_27  and  C_28
REMARK                            x       y       z     vdW  Elec       q    Type
REMARK                         _______ _______ _______ _____ _____    ______ ____
ROOT
ATOM      1  C   UNL     1       3.796   5.060  18.890  0.00  0.00    +0.000 A 
ATOM      2  C   UNL     1       3.127   4.322  20.059  0.00  0.00    +0.000 A 
ATOM      3  C   UNL     1       3.439   2.861  20.343  0.00  0.00    +0.000 C 
ATOM      4  N   UNL     1       2.263   4.845  20.881  0.00  0.00    +0.000 NA
ATOM      5  C   UNL     1       1.911   6.138  20.669  0.00  0.00    +0.000 A 
ATOM      6  C   UNL     1       1.047   6.962  21.345  0.00  0.00    +0.000 A 
ATOM      7  C   UNL     1       1.068   8.193  20.655  0.00  0.00    +0.000 A 
ATOM      8  N   UNL     1       1.892   8.135  19.601  0.00  0.00    +0.000 NA
ATOM      9  N   UNL     1       2.429   6.887  19.621  0.00  0.00    +0.000 N 
ATOM     10  C   UNL     1       3.382   6.346  18.736  0.00  0.00    +0.000 A 
ATOM     11  C   UNL     1       3.841   7.277  17.643  0.00  0.00    +0.000 C 
ENDROOT
BRANCH   7  12
ATOM     12  C   UNL     1       0.323   9.410  20.969  0.00  0.00    +0.000 A 
ATOM     13  C   UNL     1       0.025  10.342  19.965  0.00  0.00    +0.000 A 
ATOM     14  C   UNL     1      -0.684  11.509  20.268  0.00  0.00    +0.000 A 
ATOM     15  C   UNL     1      -1.094  11.752  21.577  0.00  0.00    +0.000 A 
ATOM     16 CL   UNL     1      -1.957  13.193  21.948  0.00  0.00    +0.000 Cl
ATOM     17  C   UNL     1      -0.812  10.833  22.585  0.00  0.00    +0.000 A 
ATOM     18  C   UNL     1      -0.108   9.664  22.282  0.00  0.00    +0.000 A 
ENDBRANCH   7  12
BRANCH   1  19
ATOM     19  C   UNL     1       4.812   4.297  18.061  0.00  0.00    +0.000 C 
BRANCH  19  20
ATOM     20  C   UNL     1       6.246   4.822  17.948  0.00  0.00    +0.000 C 
BRANCH  20  27
ATOM     21  C   UNL     1       4.887   2.802  11.198  0.00  0.00    +0.000 C 
ATOM     22  C   UNL     1       5.741   3.441  12.230  0.00  0.00    +0.000 A 
ATOM     23  C   UNL     1       6.916   4.132  12.012  0.00  0.00    +0.000 A 
ATOM     24  S   UNL     1       7.516   4.744  13.492  0.00  0.00    +0.000 S 
ATOM     25  C   UNL     1       6.183   4.063  14.303  0.00  0.00    +0.000 A 
ATOM     26  N   UNL     1       6.003   4.172  15.657  0.00  0.00    +0.000 N 
ATOM     27  C   UNL     1       6.650   5.051  16.500  0.00  0.00    +0.000 C 
ATOM     28  O   UNL     1       7.459   5.916  16.188  0.00  0.00    +0.000 OA
ATOM     29  N   UNL     1       5.350   3.372  13.560  0.00  0.00    +0.000 NA
ATOM     30  H   UNL     1       5.229   3.619  15.998  0.00  0.00    +0.000 HD
ENDBRANCH  20  27
ENDBRANCH  19  20
ENDBRANCH   1  19
TORSDOF 4
ENDMDL
MODEL 8
REMARK VINA RESULT:      -8.0      2.829      3.624
REMARK  Name = 
REMARK  7 active torsions:
REMARK  status: ('A' for Active; 'I' for Inactive)
REMARK    1  A    between atoms: C_1  and  C_2
REMARK    2  A    between atoms: C_7  and  C_9
REMARK    3  A    between atoms: C_9  and  C_10
REMARK    4  A    between atoms: C_10  and  C_11
REMARK    5  A    between atoms: C_12  and  C_13
REMARK    6  A    between atoms: C_17  and  C_18
REMARK    7  A    between atoms: C_27  and  C_28
REMARK                            x       y       z     vdW  Elec       q    Type
REMARK                         _______ _______ _______ _____ _____    ______ ____
ROOT
ATOM      1  C   UNL     1       0.236  10.251  20.580  0.00  0.00    +0.000 A 
ATOM      2  C   UNL     1       0.381   9.202  21.691  0.00  0.00    +0.000 A 
ATOM      3  C   UNL     1      -0.242   9.420  23.061  0.00  0.00    +0.000 C 
ATOM      4  N   UNL     1       1.027   8.076  21.580  0.00  0.00    +0.000 NA
ATOM      5  C   UNL     1       1.637   7.826  20.395  0.00  0.00    +0.000 A 
ATOM      6  C   UNL     1       2.377   6.753  19.968  0.00  0.00    +0.000 A 
ATOM      7  C   UNL     1       2.775   7.059  18.648  0.00  0.00    +0.000 A 
ATOM      8  N   UNL     1       2.316   8.261  18.278  0.00  0.00    +0.000 NA
ATOM      9  N   UNL     1       1.598   8.724  19.336  0.00  0.00    +0.000 N 
ATOM     10  C   UNL     1       0.886   9.935  19.428  0.00  0.00    +0.000 A 
ATOM     11  C   UNL     1       0.946  10.808  18.201  0.00  0.00    +0.000 C 
ENDROOT
BRANCH   7  12
ATOM     12  C   UNL     1       3.580   6.242  17.742  0.00  0.00    +0.000 A 
ATOM     13  C   UNL     1       3.437   4.847  17.725  0.00  0.00    +0.000 A 
ATOM     14  C   UNL     1       4.211   4.066  16.861  0.00  0.00    +0.000 A 
ATOM     15  C   UNL     1       5.135   4.674  16.014  0.00  0.00    +0.000 A 
ATOM     16 CL   UNL     1       6.093   3.710  14.961  0.00  0.00    +0.000 Cl
ATOM     17  C   UNL     1       5.285   6.059  16.015  0.00  0.00    +0.000 A 
ATOM     18  C   UNL     1       4.508   6.841  16.875  0.00  0.00    +0.000 A 
ENDBRANCH   7  12
BRANCH   1  19
ATOM     19  C   UNL     1      -0.589  11.489  20.881  0.00  0.00    +0.000 C 
BRANCH  19  20
ATOM     20  C   UNL     1       0.115  12.827  21.129  0.00  0.00    +0.000 C 
BRANCH  20  27
ATOM     21  C   UNL     1      -0.215  18.528  16.783  0.00  0.00    +0.000 C 
ATOM     22  C   UNL     1      -0.661  17.753  17.967  0.00  0.00    +0.000 A 
ATOM     23  C   UNL     1      -1.725  18.054  18.794  0.00  0.00    +0.000 A 
ATOM     24  S   UNL     1      -1.898  16.843  19.988  0.00  0.00    +0.000 S 
ATOM     25  C   UNL     1      -0.569  16.011  19.323  0.00  0.00    +0.000 A 
ATOM     26  N   UNL     1      -0.099  14.831  19.838  0.00  0.00    +0.000 N 
ATOM     27  C   UNL     1      -0.756  14.005  20.723  0.00  0.00    +0.000 C 
ATOM     28  O   UNL     1      -1.888  14.150  21.171  0.00  0.00    +0.000 OA
ATOM     29  N   UNL     1       0.024  16.594  18.307  0.00  0.00    +0.000 NA
ATOM     30  H   UNL     1       0.761  14.526  19.402  0.00  0.00    +0.000 HD
ENDBRANCH  20  27
ENDBRANCH  19  20
ENDBRANCH   1  19
TORSDOF 4
ENDMDL
MODEL 9
REMARK VINA RESULT:      -8.0      5.653     11.037
REMARK  Name = 
REMARK  7 active torsions:
REMARK  status: ('A' for Active; 'I' for Inactive)
REMARK    1  A    between atoms: C_1  and  C_2
REMARK    2  A    between atoms: C_7  and  C_9
REMARK    3  A    between atoms: C_9  and  C_10
REMARK    4  A    between atoms: C_10  and  C_11
REMARK    5  A    between atoms: C_12  and  C_13
REMARK    6  A    between atoms: C_17  and  C_18
REMARK    7  A    between atoms: C_27  and  C_28
REMARK                            x       y       z     vdW  Elec       q    Type
REMARK                         _______ _______ _______ _____ _____    ______ ____
ROOT
ATOM      1  C   UNL     1       3.122   6.164  18.716  0.00  0.00    +0.000 A 
ATOM      2  C   UNL     1       2.631   5.371  19.936  0.00  0.00    +0.000 A 
ATOM      3  C   UNL     1       2.990   3.903  20.111  0.00  0.00    +0.000 C 
ATOM      4  N   UNL     1       1.888   5.849  20.893  0.00  0.00    +0.000 NA
ATOM      5  C   UNL     1       1.502   7.145  20.788  0.00  0.00    +0.000 A 
ATOM      6  C   UNL     1       0.737   7.929  21.613  0.00  0.00    +0.000 A 
ATOM      7  C   UNL     1       0.651   9.188  20.979  0.00  0.00    +0.000 A 
ATOM      8  N   UNL     1       1.318   9.183  19.818  0.00  0.00    +0.000 NA
ATOM      9  N   UNL     1       1.861   7.942  19.709  0.00  0.00    +0.000 N 
ATOM     10  C   UNL     1       2.682   7.450  18.676  0.00  0.00    +0.000 A 
ATOM     11  C   UNL     1       2.975   8.431  17.570  0.00  0.00    +0.000 C 
ENDROOT
BRANCH   7  12
ATOM     12  C   UNL     1      -0.050  10.382  21.447  0.00  0.00    +0.000 A 
ATOM     13  C   UNL     1      -0.788  10.352  22.640  0.00  0.00    +0.000 A 
ATOM     14  C   UNL     1      -1.463  11.494  23.085  0.00  0.00    +0.000 A 
ATOM     15  C   UNL     1      -1.406  12.668  22.338  0.00  0.00    +0.000 A 
ATOM     16 CL   UNL     1      -2.246  14.067  22.883  0.00  0.00    +0.000 Cl
ATOM     17  C   UNL     1      -0.673  12.717  21.155  0.00  0.00    +0.000 A 
ATOM     18  C   UNL     1       0.006  11.577  20.713  0.00  0.00    +0.000 A 
ENDBRANCH   7  12
BRANCH   1  19
ATOM     19  C   UNL     1       4.015   5.448  17.720  0.00  0.00    +0.000 C 
BRANCH  19  20
ATOM     20  C   UNL     1       5.532   5.655  17.777  0.00  0.00    +0.000 C 
BRANCH  20  27
ATOM     21  C   UNL     1       4.720   2.846  11.224  0.00  0.00    +0.000 C 
ATOM     22  C   UNL     1       5.537   3.482  12.287  0.00  0.00    +0.000 A 
ATOM     23  C   UNL     1       6.845   3.911  12.174  0.00  0.00    +0.000 A 
ATOM     24  S   UNL     1       7.349   4.637  13.637  0.00  0.00    +0.000 S 
ATOM     25  C   UNL     1       5.811   4.342  14.304  0.00  0.00    +0.000 A 
ATOM     26  N   UNL     1       5.475   4.698  15.584  0.00  0.00    +0.000 N 
ATOM     27  C   UNL     1       6.164   5.572  16.397  0.00  0.00    +0.000 C 
ATOM     28  O   UNL     1       7.163   6.220  16.109  0.00  0.00    +0.000 OA
ATOM     29  N   UNL     1       4.965   3.698  13.534  0.00  0.00    +0.000 NA
ATOM     30  H   UNL     1       4.568   4.352  15.865  0.00  0.00    +0.000 HD
ENDBRANCH  20  27
ENDBRANCH  19  20
ENDBRANCH   1  19
TORSDOF 4
ENDMDL
