MODEL 1
REMARK VINA RESULT:      -7.4      0.000      0.000
REMARK  Name = 
REMARK  11 active torsions:
REMARK  status: ('A' for Active; 'I' for Inactive)
REMARK    1  A    between atoms: C_1  and  O_2
REMARK    2  A    between atoms: O_2  and  C_3
REMARK    3  A    between atoms: C_3  and  C_4
REMARK    4  A    between atoms: C_4  and  N_5
REMARK    5  A    between atoms: C_8  and  C_9
REMARK    6  A    between atoms: C_9  and  N_10
REMARK    7  A    between atoms: N_10  and  C_11
REMARK    8  A    between atoms: N_10  and  C_18
REMARK    9  A    between atoms: C_11  and  C_12
REMARK   10  A    between atoms: C_18  and  C_19
REMARK   11  A    between atoms: N_27  and  C_28
REMARK                            x       y       z     vdW  Elec       q    Type
REMARK                         _______ _______ _______ _____ _____    ______ ____
ROOT
ATOM      1  N   UNL     1       1.918   6.135  19.147  0.00  0.00    +0.000 NA
ENDROOT
BRANCH   1   2
ATOM      2  C   UNL     1       2.833   6.051  18.004  0.00  0.00    +0.000 C 
BRANCH   2   6
ATOM      3  N   UNL     1       6.378   5.354  16.451  0.00  0.00    +0.000 NA
ATOM      4  C   UNL     1       5.203   5.969  15.836  0.00  0.00    +0.000 C 
ATOM      5  C   UNL     1       4.746   7.075  16.782  0.00  0.00    +0.000 C 
ATOM      6  C   UNL     1       4.298   6.519  18.145  0.00  0.00    +0.000 C 
ATOM      7  C   UNL     1       5.299   5.471  18.674  0.00  0.00    +0.000 C 
ATOM      8  C   UNL     1       5.952   4.565  17.614  0.00  0.00    +0.000 C 
BRANCH   3   9
ATOM      9  C   UNL     1       7.210   4.597  15.501  0.00  0.00    +0.000 C 
BRANCH   9  10
ATOM     10  C   UNL     1       6.645   4.669  14.066  0.00  0.00    +0.000 C 
BRANCH  10  12
ATOM     11  C   UNL     1       6.101   3.356  12.210  0.00  0.00    +0.000 C 
ATOM     12  O   UNL     1       6.127   3.410  13.637  0.00  0.00    +0.000 OA
ENDBRANCH  10  12
ENDBRANCH   9  10
ENDBRANCH   3   9
ENDBRANCH   2   6
ENDBRANCH   1   2
BRANCH   1  13
ATOM     13  C   UNL     1       1.480   4.867  19.751  0.00  0.00    +0.000 C 
BRANCH  13  14
ATOM     14  C   UNL     1       2.190   3.546  19.503  0.00  0.00    +0.000 A 
ATOM     15  C   UNL     1       1.917   2.826  18.329  0.00  0.00    +0.000 A 
ATOM     16  C   UNL     1       2.763   1.792  17.948  0.00  0.00    +0.000 A 
ATOM     17  N   UNL     1       3.842   1.403  18.659  0.00  0.00    +0.000 NA
ATOM     18  C   UNL     1       4.067   2.067  19.809  0.00  0.00    +0.000 A 
ATOM     19  C   UNL     1       3.280   3.119  20.266  0.00  0.00    +0.000 A 
ENDBRANCH  13  14
ENDBRANCH   1  13
BRANCH   1  20
ATOM     20  C   UNL     1       2.469   7.121  20.098  0.00  0.00    +0.000 C 
BRANCH  20  21
ATOM     21  C   UNL     1       1.519   8.161  20.599  0.00  0.00    +0.000 A 
ATOM     22  N   UNL     1       1.069   8.204  21.838  0.00  0.00    +0.000 NA
ATOM     23  C   UNL     1       0.296   9.326  21.916  0.00  0.00    +0.000 A 
ATOM     24  C   UNL     1      -0.399   9.835  23.021  0.00  0.00    +0.000 A 
ATOM     25  C   UNL     1      -1.141  11.006  22.861  0.00  0.00    +0.000 A 
ATOM     26  C   UNL     1      -1.190  11.654  21.623  0.00  0.00    +0.000 A 
ATOM     27  C   UNL     1      -0.493  11.164  20.515  0.00  0.00    +0.000 A 
ATOM     28  C   UNL     1       0.248   9.991  20.696  0.00  0.00    +0.000 A 
ATOM     29  N   UNL     1       1.055   9.236  19.869  0.00  0.00    +0.000 N 
ATOM     30  C   UNL     1       1.378   9.525  18.493  0.00  0.00    +0.000 C 
ENDBRANCH  20  21
ENDBRANCH   1  20
TORSDOF 9
ENDMDL
MODEL 2
REMARK VINA RESULT:      -7.1      1.624      2.424
REMARK  Name = 
REMARK  11 active torsions:
REMARK  status: ('A' for Active; 'I' for Inactive)
REMARK    1  A    between atoms: C_1  and  O_2
REMARK    2  A    between atoms: O_2  and  C_3
REMARK    3  A    between atoms: C_3  and  C_4
REMARK    4  A    between atoms: C_4  and  N_5
REMARK    5  A    between atoms: C_8  and  C_9
REMARK    6  A    between atoms: C_9  and  N_10
REMARK    7  A    between atoms: N_10  and  C_11
REMARK    8  A    between atoms: N_10  and  C_18
REMARK    9  A    between atoms: C_11  and  C_12
REMARK   10  A    between atoms: C_18  and  C_19
REMARK   11  A    between atoms: N_27  and  C_28
REMARK                            x       y       z     vdW  Elec       q    Type
REMARK                         _______ _______ _______ _____ _____    ______ ____
ROOT
ATOM      1  N   UNL     1       2.048   7.152  18.916  0.00  0.00    +0.000 NA
ENDROOT
BRANCH   1   2
ATOM      2  C   UNL     1       2.925   6.602  17.877  0.00  0.00    +0.000 C 
BRANCH   2   6
ATOM      3  N   UNL     1       5.994   4.732  16.282  0.00  0.00    +0.000 NA
ATOM      4  C   UNL     1       5.358   5.983  15.873  0.00  0.00    +0.000 C 
ATOM      5  C   UNL     1       5.282   6.859  17.119  0.00  0.00    +0.000 C 
ATOM      6  C   UNL     1       4.389   6.239  18.207  0.00  0.00    +0.000 C 
ATOM      7  C   UNL     1       4.694   4.737  18.386  0.00  0.00    +0.000 C 
ATOM      8  C   UNL     1       5.052   3.962  17.104  0.00  0.00    +0.000 C 
BRANCH   3   9
ATOM      9  C   UNL     1       6.556   3.964  15.158  0.00  0.00    +0.000 C 
BRANCH   9  10
ATOM     10  C   UNL     1       5.681   4.084  13.893  0.00  0.00    +0.000 C 
BRANCH  10  12
ATOM     11  C   UNL     1       5.771   2.860  11.902  0.00  0.00    +0.000 C 
ATOM     12  O   UNL     1       6.432   3.840  12.704  0.00  0.00    +0.000 OA
ENDBRANCH  10  12
ENDBRANCH   9  10
ENDBRANCH   3   9
ENDBRANCH   2   6
ENDBRANCH   1   2
BRANCH   1  13
ATOM     13  C   UNL     1       2.084   6.504  20.237  0.00  0.00    +0.000 C 
BRANCH  13  14
ATOM     14  C   UNL     1       1.751   5.036  20.444  0.00  0.00    +0.000 A 
ATOM     15  C   UNL     1       1.099   4.325  19.424  0.00  0.00    +0.000 A 
ATOM     16  C   UNL     1       1.061   2.937  19.474  0.00  0.00    +0.000 A 
ATOM     17  N   UNL     1       1.596   2.205  20.472  0.00  0.00    +0.000 NA
ATOM     18  C   UNL     1       2.176   2.898  21.471  0.00  0.00    +0.000 A 
ATOM     19  C   UNL     1       2.269   4.286  21.504  0.00  0.00    +0.000 A 
ENDBRANCH  13  14
ENDBRANCH   1  13
BRANCH   1  20
ATOM     20  C   UNL     1       2.231   8.617  18.936  0.00  0.00    +0.000 C 
BRANCH  20  21
ATOM     21  C   UNL     1       0.987   9.441  18.845  0.00  0.00    +0.000 A 
ATOM     22  N   UNL     1       0.204   9.467  17.784  0.00  0.00    +0.000 NA
ATOM     23  C   UNL     1      -0.850  10.269  18.116  0.00  0.00    +0.000 A 
ATOM     24  C   UNL     1      -1.968  10.610  17.344  0.00  0.00    +0.000 A 
ATOM     25  C   UNL     1      -2.924  11.465  17.896  0.00  0.00    +0.000 A 
ATOM     26  C   UNL     1      -2.766  11.969  19.190  0.00  0.00    +0.000 A 
ATOM     27  C   UNL     1      -1.661  11.629  19.975  0.00  0.00    +0.000 A 
ATOM     28  C   UNL     1      -0.715  10.768  19.407  0.00  0.00    +0.000 A 
ATOM     29  N   UNL     1       0.461  10.210  19.863  0.00  0.00    +0.000 N 
ATOM     30  C   UNL     1       1.035  10.377  21.176  0.00  0.00    +0.000 C 
ENDBRANCH  20  21
ENDBRANCH   1  20
TORSDOF 9
ENDMDL
MODEL 3
REMARK VINA RESULT:      -7.0      1.288      2.230
REMARK  Name = 
REMARK  11 active torsions:
REMARK  status: ('A' for Active; 'I' for Inactive)
REMARK    1  A    between atoms: C_1  and  O_2
REMARK    2  A    between atoms: O_2  and  C_3
REMARK    3  A    between atoms: C_3  and  C_4
REMARK    4  A    between atoms: C_4  and  N_5
REMARK    5  A    between atoms: C_8  and  C_9
REMARK    6  A    between atoms: C_9  and  N_10
REMARK    7  A    between atoms: N_10  and  C_11
REMARK    8  A    between atoms: N_10  and  C_18
REMARK    9  A    between atoms: C_11  and  C_12
REMARK   10  A    between atoms: C_18  and  C_19
REMARK   11  A    between atoms: N_27  and  C_28
REMARK                            x       y       z     vdW  Elec       q    Type
REMARK                         _______ _______ _______ _____ _____    ______ ____
ROOT
ATOM      1  N   UNL     1       1.887   6.737  20.170  0.00  0.00    +0.000 NA
ENDROOT
BRANCH   1   2
ATOM      2  C   UNL     1       3.153   6.605  19.443  0.00  0.00    +0.000 C 
BRANCH   2   6
ATOM      3  N   UNL     1       5.402   5.226  16.527  0.00  0.00    +0.000 NA
ATOM      4  C   UNL     1       4.676   4.492  17.561  0.00  0.00    +0.000 C 
ATOM      5  C   UNL     1       3.241   5.008  17.534  0.00  0.00    +0.000 C 
ATOM      6  C   UNL     1       3.158   6.500  17.902  0.00  0.00    +0.000 C 
ATOM      7  C   UNL     1       4.243   7.314  17.168  0.00  0.00    +0.000 C 
ATOM      8  C   UNL     1       5.599   6.612  16.971  0.00  0.00    +0.000 C 
BRANCH   3   9
ATOM      9  C   UNL     1       6.647   4.564  16.101  0.00  0.00    +0.000 C 
BRANCH   9  10
ATOM     10  C   UNL     1       6.852   4.663  14.574  0.00  0.00    +0.000 C 
BRANCH  10  12
ATOM     11  C   UNL     1       6.262   3.542  12.609  0.00  0.00    +0.000 C 
ATOM     12  O   UNL     1       5.782   4.049  13.856  0.00  0.00    +0.000 OA
ENDBRANCH  10  12
ENDBRANCH   9  10
ENDBRANCH   3   9
ENDBRANCH   2   6
ENDBRANCH   1   2
BRANCH   1  13
ATOM     13  C   UNL     1       1.441   5.578  20.960  0.00  0.00    +0.000 C 
BRANCH  13  14
ATOM     14  C   UNL     1       1.593   4.145  20.478  0.00  0.00    +0.000 A 
ATOM     15  C   UNL     1       0.670   3.625  19.556  0.00  0.00    +0.000 A 
ATOM     16  C   UNL     1       0.963   2.442  18.888  0.00  0.00    +0.000 A 
ATOM     17  N   UNL     1       2.088   1.725  19.086  0.00  0.00    +0.000 NA
ATOM     18  C   UNL     1       2.944   2.206  20.008  0.00  0.00    +0.000 A 
ATOM     19  C   UNL     1       2.739   3.384  20.720  0.00  0.00    +0.000 A 
ENDBRANCH  13  14
ENDBRANCH   1  13
BRANCH   1  20
ATOM     20  C   UNL     1       1.917   8.017  20.905  0.00  0.00    +0.000 C 
BRANCH  20  21
ATOM     21  C   UNL     1       0.980   9.079  20.426  0.00  0.00    +0.000 A 
ATOM     22  N   UNL     1       0.785   9.361  19.153  0.00  0.00    +0.000 NA
ATOM     23  C   UNL     1      -0.183  10.323  19.127  0.00  0.00    +0.000 A 
ATOM     24  C   UNL     1      -0.762  10.951  18.017  0.00  0.00    +0.000 A 
ATOM     25  C   UNL     1      -1.738  11.926  18.236  0.00  0.00    +0.000 A 
ATOM     26  C   UNL     1      -2.126  12.265  19.536  0.00  0.00    +0.000 A 
ATOM     27  C   UNL     1      -1.564  11.638  20.652  0.00  0.00    +0.000 A 
ATOM     28  C   UNL     1      -0.591  10.662  20.412  0.00  0.00    +0.000 A 
ATOM     29  N   UNL     1       0.156   9.838  21.230  0.00  0.00    +0.000 N 
ATOM     30  C   UNL     1       0.077   9.764  22.668  0.00  0.00    +0.000 C 
ENDBRANCH  20  21
ENDBRANCH   1  20
TORSDOF 9
ENDMDL
MODEL 4
REMARK VINA RESULT:      -7.0      1.362      1.510
REMARK  Name = 
REMARK  11 active torsions:
REMARK  status: ('A' for Active; 'I' for Inactive)
REMARK    1  A    between atoms: C_1  and  O_2
REMARK    2  A    between atoms: O_2  and  C_3
REMARK    3  A    between atoms: C_3  and  C_4
REMARK    4  A    between atoms: C_4  and  N_5
REMARK    5  A    between atoms: C_8  and  C_9
REMARK    6  A    between atoms: C_9  and  N_10
REMARK    7  A    between atoms: N_10  and  C_11
REMARK    8  A    between atoms: N_10  and  C_18
REMARK    9  A    between atoms: C_11  and  C_12
REMARK   10  A    between atoms: C_18  and  C_19
REMARK   11  A    between atoms: N_27  and  C_28
REMARK                            x       y       z     vdW  Elec       q    Type
REMARK                         _______ _______ _______ _____ _____    ______ ____
ROOT
ATOM      1  N   UNL     1       2.235   7.043  18.718  0.00  0.00    +0.000 NA
ENDROOT
BRANCH   1   2
ATOM      2  C   UNL     1       3.081   6.640  17.589  0.00  0.00    +0.000 C 
BRANCH   2   6
ATOM      3  N   UNL     1       5.887   4.590  15.749  0.00  0.00    +0.000 NA
ATOM      4  C   UNL     1       5.380   5.930  15.460  0.00  0.00    +0.000 C 
ATOM      5  C   UNL     1       5.432   6.706  16.772  0.00  0.00    +0.000 C 
ATOM      6  C   UNL     1       4.505   6.098  17.839  0.00  0.00    +0.000 C 
ATOM      7  C   UNL     1       4.650   4.563  17.891  0.00  0.00    +0.000 C 
ATOM      8  C   UNL     1       4.889   3.861  16.541  0.00  0.00    +0.000 C 
BRANCH   3   9
ATOM      9  C   UNL     1       6.333   3.859  14.550  0.00  0.00    +0.000 C 
BRANCH   9  10
ATOM     10  C   UNL     1       7.205   4.745  13.635  0.00  0.00    +0.000 C 
BRANCH  10  12
ATOM     11  C   UNL     1       6.169   3.282  12.134  0.00  0.00    +0.000 C 
ATOM     12  O   UNL     1       7.114   4.344  12.268  0.00  0.00    +0.000 OA
ENDBRANCH  10  12
ENDBRANCH   9  10
ENDBRANCH   3   9
ENDBRANCH   2   6
ENDBRANCH   1   2
BRANCH   1  13
ATOM     13  C   UNL     1       2.483   6.386  20.011  0.00  0.00    +0.000 C 
BRANCH  13  14
ATOM     14  C   UNL     1       1.951   5.003  20.348  0.00  0.00    +0.000 A 
ATOM     15  C   UNL     1       1.240   4.282  19.376  0.00  0.00    +0.000 A 
ATOM     16  C   UNL     1       1.014   2.923  19.561  0.00  0.00    +0.000 A 
ATOM     17  N   UNL     1       1.418   2.235  20.649  0.00  0.00    +0.000 NA
ATOM     18  C   UNL     1       2.056   2.946  21.598  0.00  0.00    +0.000 A 
ATOM     19  C   UNL     1       2.333   4.306  21.497  0.00  0.00    +0.000 A 
ENDBRANCH  13  14
ENDBRANCH   1  13
BRANCH   1  20
ATOM     20  C   UNL     1       2.211   8.519  18.763  0.00  0.00    +0.000 C 
BRANCH  20  21
ATOM     21  C   UNL     1       1.289   9.137  19.763  0.00  0.00    +0.000 A 
ATOM     22  N   UNL     1       1.112   8.665  20.982  0.00  0.00    +0.000 NA
ATOM     23  C   UNL     1       0.263   9.537  21.600  0.00  0.00    +0.000 A 
ATOM     24  C   UNL     1      -0.228   9.499  22.912  0.00  0.00    +0.000 A 
ATOM     25  C   UNL     1      -1.104  10.504  23.326  0.00  0.00    +0.000 A 
ATOM     26  C   UNL     1      -1.482  11.524  22.448  0.00  0.00    +0.000 A 
ATOM     27  C   UNL     1      -0.992  11.581  21.140  0.00  0.00    +0.000 A 
ATOM     28  C   UNL     1      -0.113  10.567  20.745  0.00  0.00    +0.000 A 
ATOM     29  N   UNL     1       0.572  10.301  19.577  0.00  0.00    +0.000 N 
ATOM     30  C   UNL     1       0.562  11.103  18.378  0.00  0.00    +0.000 C 
ENDBRANCH  20  21
ENDBRANCH   1  20
TORSDOF 9
ENDMDL
MODEL 5
REMARK VINA RESULT:      -7.0      1.418      1.832
REMARK  Name = 
REMARK  11 active torsions:
REMARK  status: ('A' for Active; 'I' for Inactive)
REMARK    1  A    between atoms: C_1  and  O_2
REMARK    2  A    between atoms: O_2  and  C_3
REMARK    3  A    between atoms: C_3  and  C_4
REMARK    4  A    between atoms: C_4  and  N_5
REMARK    5  A    between atoms: C_8  and  C_9
REMARK    6  A    between atoms: C_9  and  N_10
REMARK    7  A    between atoms: N_10  and  C_11
REMARK    8  A    between atoms: N_10  and  C_18
REMARK    9  A    between atoms: C_11  and  C_12
REMARK   10  A    between atoms: C_18  and  C_19
REMARK   11  A    between atoms: N_27  and  C_28
REMARK                            x       y       z     vdW  Elec       q    Type
REMARK                         _______ _______ _______ _____ _____    ______ ____
ROOT
ATOM      1  N   UNL     1       2.717   5.516  18.075  0.00  0.00    +0.000 NA
ENDROOT
BRANCH   1   2
ATOM      2  C   UNL     1       3.867   4.953  17.361  0.00  0.00    +0.000 C 
BRANCH   2   6
ATOM      3  N   UNL     1       6.863   5.307  14.839  0.00  0.00    +0.000 NA
ATOM      4  C   UNL     1       5.445   5.598  14.638  0.00  0.00    +0.000 C 
ATOM      5  C   UNL     1       5.019   6.503  15.790  0.00  0.00    +0.000 C 
ATOM      6  C   UNL     1       5.143   5.798  17.152  0.00  0.00    +0.000 C 
ATOM      7  C   UNL     1       6.484   5.046  17.269  0.00  0.00    +0.000 C 
ATOM      8  C   UNL     1       7.007   4.391  15.977  0.00  0.00    +0.000 C 
BRANCH   3   9
ATOM      9  C   UNL     1       7.545   4.840  13.620  0.00  0.00    +0.000 C 
BRANCH   9  10
ATOM     10  C   UNL     1       6.577   4.098  12.674  0.00  0.00    +0.000 C 
BRANCH  10  12
ATOM     11  C   UNL     1       6.535   2.086  11.484  0.00  0.00    +0.000 C 
ATOM     12  O   UNL     1       7.276   3.280  11.736  0.00  0.00    +0.000 OA
ENDBRANCH  10  12
ENDBRANCH   9  10
ENDBRANCH   3   9
ENDBRANCH   2   6
ENDBRANCH   1   2
BRANCH   1  13
ATOM     13  C   UNL     1       1.679   4.576  18.526  0.00  0.00    +0.000 C 
BRANCH  13  14
ATOM     14  C   UNL     1       1.886   3.613  19.684  0.00  0.00    +0.000 A 
ATOM     15  C   UNL     1       3.087   2.891  19.775  0.00  0.00    +0.000 A 
ATOM     16  C   UNL     1       3.411   2.249  20.964  0.00  0.00    +0.000 A 
ATOM     17  N   UNL     1       2.621   2.248  22.058  0.00  0.00    +0.000 NA
ATOM     18  C   UNL     1       1.448   2.902  21.944  0.00  0.00    +0.000 A 
ATOM     19  C   UNL     1       1.043   3.578  20.798  0.00  0.00    +0.000 A 
ENDBRANCH  13  14
ENDBRANCH   1  13
BRANCH   1  20
ATOM     20  C   UNL     1       3.231   6.425  19.120  0.00  0.00    +0.000 C 
BRANCH  20  21
ATOM     21  C   UNL     1       2.263   7.424  19.665  0.00  0.00    +0.000 A 
ATOM     22  N   UNL     1       1.753   7.359  20.880  0.00  0.00    +0.000 NA
ATOM     23  C   UNL     1       0.982   8.476  21.022  0.00  0.00    +0.000 A 
ATOM     24  C   UNL     1       0.236   8.890  22.133  0.00  0.00    +0.000 A 
ATOM     25  C   UNL     1      -0.493  10.077  22.043  0.00  0.00    +0.000 A 
ATOM     26  C   UNL     1      -0.479  10.833  20.868  0.00  0.00    +0.000 A 
ATOM     27  C   UNL     1       0.269  10.439  19.755  0.00  0.00    +0.000 A 
ATOM     28  C   UNL     1       0.996   9.248  19.865  0.00  0.00    +0.000 A 
ATOM     29  N   UNL     1       1.839   8.564  19.014  0.00  0.00    +0.000 N 
ATOM     30  C   UNL     1       2.229   8.972  17.687  0.00  0.00    +0.000 C 
ENDBRANCH  20  21
ENDBRANCH   1  20
TORSDOF 9
ENDMDL
MODEL 6
REMARK VINA RESULT:      -6.9      0.787      1.633
REMARK  Name = 
REMARK  11 active torsions:
REMARK  status: ('A' for Active; 'I' for Inactive)
REMARK    1  A    between atoms: C_1  and  O_2
REMARK    2  A    between atoms: O_2  and  C_3
REMARK    3  A    between atoms: C_3  and  C_4
REMARK    4  A    between atoms: C_4  and  N_5
REMARK    5  A    between atoms: C_8  and  C_9
REMARK    6  A    between atoms: C_9  and  N_10
REMARK    7  A    between atoms: N_10  and  C_11
REMARK    8  A    between atoms: N_10  and  C_18
REMARK    9  A    between atoms: C_11  and  C_12
REMARK   10  A    between atoms: C_18  and  C_19
REMARK   11  A    between atoms: N_27  and  C_28
REMARK                            x       y       z     vdW  Elec       q    Type
REMARK                         _______ _______ _______ _____ _____    ______ ____
ROOT
ATOM      1  N   UNL     1       1.894   6.214  19.184  0.00  0.00    +0.000 NA
ENDROOT
BRANCH   1   2
ATOM      2  C   UNL     1       2.809   6.102  18.043  0.00  0.00    +0.000 C 
BRANCH   2   6
ATOM      3  N   UNL     1       6.361   5.325  16.547  0.00  0.00    +0.000 NA
ATOM      4  C   UNL     1       5.193   5.914  15.897  0.00  0.00    +0.000 C 
ATOM      5  C   UNL     1       4.733   7.063  16.789  0.00  0.00    +0.000 C 
ATOM      6  C   UNL     1       4.275   6.571  18.173  0.00  0.00    +0.000 C 
ATOM      7  C   UNL     1       5.269   5.545  18.755  0.00  0.00    +0.000 C 
ATOM      8  C   UNL     1       5.926   4.590  17.741  0.00  0.00    +0.000 C 
BRANCH   3   9
ATOM      9  C   UNL     1       7.197   4.522  15.637  0.00  0.00    +0.000 C 
BRANCH   9  10
ATOM     10  C   UNL     1       6.781   4.715  14.163  0.00  0.00    +0.000 C 
BRANCH  10  12
ATOM     11  C   UNL     1       6.392   3.482  12.216  0.00  0.00    +0.000 C 
ATOM     12  O   UNL     1       6.175   3.539  13.626  0.00  0.00    +0.000 OA
ENDBRANCH  10  12
ENDBRANCH   9  10
ENDBRANCH   3   9
ENDBRANCH   2   6
ENDBRANCH   1   2
BRANCH   1  13
ATOM     13  C   UNL     1       1.623   4.988  19.951  0.00  0.00    +0.000 C 
BRANCH  13  14
ATOM     14  C   UNL     1       2.197   3.634  19.571  0.00  0.00    +0.000 A 
ATOM     15  C   UNL     1       1.762   3.006  18.393  0.00  0.00    +0.000 A 
ATOM     16  C   UNL     1       2.483   1.932  17.883  0.00  0.00    +0.000 A 
ATOM     17  N   UNL     1       3.586   1.421  18.468  0.00  0.00    +0.000 NA
ATOM     18  C   UNL     1       3.966   1.999  19.624  0.00  0.00    +0.000 A 
ATOM     19  C   UNL     1       3.313   3.081  20.205  0.00  0.00    +0.000 A 
ENDBRANCH  13  14
ENDBRANCH   1  13
BRANCH   1  20
ATOM     20  C   UNL     1       2.318   7.375  19.993  0.00  0.00    +0.000 C 
BRANCH  20  21
ATOM     21  C   UNL     1       1.455   8.592  19.910  0.00  0.00    +0.000 A 
ATOM     22  N   UNL     1       0.992   9.083  18.777  0.00  0.00    +0.000 NA
ATOM     23  C   UNL     1       0.197  10.137  19.124  0.00  0.00    +0.000 A 
ATOM     24  C   UNL     1      -0.543  10.986  18.291  0.00  0.00    +0.000 A 
ATOM     25  C   UNL     1      -1.283  12.015  18.876  0.00  0.00    +0.000 A 
ATOM     26  C   UNL     1      -1.283  12.193  20.262  0.00  0.00    +0.000 A 
ATOM     27  C   UNL     1      -0.558  11.347  21.106  0.00  0.00    +0.000 A 
ATOM     28  C   UNL     1       0.174  10.319  20.502  0.00  0.00    +0.000 A 
ATOM     29  N   UNL     1       0.974   9.305  20.989  0.00  0.00    +0.000 N 
ATOM     30  C   UNL     1       1.246   9.022  22.377  0.00  0.00    +0.000 C 
ENDBRANCH  20  21
ENDBRANCH   1  20
TORSDOF 9
ENDMDL
MODEL 7
REMARK VINA RESULT:      -6.8      1.187      1.438
REMARK  Name = 
REMARK  11 active torsions:
REMARK  status: ('A' for Active; 'I' for Inactive)
REMARK    1  A    between atoms: C_1  and  O_2
REMARK    2  A    between atoms: O_2  and  C_3
REMARK    3  A    between atoms: C_3  and  C_4
REMARK    4  A    between atoms: C_4  and  N_5
REMARK    5  A    between atoms: C_8  and  C_9
REMARK    6  A    between atoms: C_9  and  N_10
REMARK    7  A    between atoms: N_10  and  C_11
REMARK    8  A    between atoms: N_10  and  C_18
REMARK    9  A    between atoms: C_11  and  C_12
REMARK   10  A    between atoms: C_18  and  C_19
REMARK   11  A    between atoms: N_27  and  C_28
REMARK                            x       y       z     vdW  Elec       q    Type
REMARK                         _______ _______ _______ _____ _____    ______ ____
ROOT
ATOM      1  N   UNL     1       2.199   6.278  18.463  0.00  0.00    +0.000 NA
ENDROOT
BRANCH   1   2
ATOM      2  C   UNL     1       3.208   6.458  17.413  0.00  0.00    +0.000 C 
BRANCH   2   6
ATOM      3  N   UNL     1       6.370   5.087  15.520  0.00  0.00    +0.000 NA
ATOM      4  C   UNL     1       5.680   6.365  15.363  0.00  0.00    +0.000 C 
ATOM      5  C   UNL     1       5.556   6.966  16.759  0.00  0.00    +0.000 C 
ATOM      6  C   UNL     1       4.686   6.100  17.685  0.00  0.00    +0.000 C 
ATOM      7  C   UNL     1       5.058   4.608  17.561  0.00  0.00    +0.000 C 
ATOM      8  C   UNL     1       5.459   4.126  16.155  0.00  0.00    +0.000 C 
BRANCH   3   9
ATOM      9  C   UNL     1       6.973   4.588  14.272  0.00  0.00    +0.000 C 
BRANCH   9  10
ATOM     10  C   UNL     1       5.998   3.680  13.492  0.00  0.00    +0.000 C 
BRANCH  10  12
ATOM     11  C   UNL     1       7.365   4.529  11.796  0.00  0.00    +0.000 C 
ATOM     12  O   UNL     1       6.377   3.551  12.121  0.00  0.00    +0.000 OA
ENDBRANCH  10  12
ENDBRANCH   9  10
ENDBRANCH   3   9
ENDBRANCH   2   6
ENDBRANCH   1   2
BRANCH   1  13
ATOM     13  C   UNL     1       1.711   4.910  18.698  0.00  0.00    +0.000 C 
BRANCH  13  14
ATOM     14  C   UNL     1       2.097   4.096  19.922  0.00  0.00    +0.000 A 
ATOM     15  C   UNL     1       1.120   3.789  20.883  0.00  0.00    +0.000 A 
ATOM     16  C   UNL     1       1.379   2.811  21.835  0.00  0.00    +0.000 A 
ATOM     17  N   UNL     1       2.543   2.135  21.920  0.00  0.00    +0.000 NA
ATOM     18  C   UNL     1       3.493   2.472  21.025  0.00  0.00    +0.000 A 
ATOM     19  C   UNL     1       3.321   3.432  20.033  0.00  0.00    +0.000 A 
ENDBRANCH  13  14
ENDBRANCH   1  13
BRANCH   1  20
ATOM     20  C   UNL     1       2.668   6.989  19.669  0.00  0.00    +0.000 C 
BRANCH  20  21
ATOM     21  C   UNL     1       1.720   7.979  20.265  0.00  0.00    +0.000 A 
ATOM     22  N   UNL     1       1.246   7.891  21.492  0.00  0.00    +0.000 NA
ATOM     23  C   UNL     1       0.484   9.007  21.681  0.00  0.00    +0.000 A 
ATOM     24  C   UNL     1      -0.226   9.400  22.822  0.00  0.00    +0.000 A 
ATOM     25  C   UNL     1      -0.952  10.591  22.780  0.00  0.00    +0.000 A 
ATOM     26  C   UNL     1      -0.970  11.373  21.621  0.00  0.00    +0.000 A 
ATOM     27  C   UNL     1      -0.257  10.999  20.478  0.00  0.00    +0.000 A 
ATOM     28  C   UNL     1       0.468   9.804  20.541  0.00  0.00    +0.000 A 
ATOM     29  N   UNL     1       1.283   9.135  19.651  0.00  0.00    +0.000 N 
ATOM     30  C   UNL     1       1.635   9.570  18.322  0.00  0.00    +0.000 C 
ENDBRANCH  20  21
ENDBRANCH   1  20
TORSDOF 9
ENDMDL
MODEL 8
REMARK VINA RESULT:      -6.8      1.401      1.691
REMARK  Name = 
REMARK  11 active torsions:
REMARK  status: ('A' for Active; 'I' for Inactive)
REMARK    1  A    between atoms: C_1  and  O_2
REMARK    2  A    between atoms: O_2  and  C_3
REMARK    3  A    between atoms: C_3  and  C_4
REMARK    4  A    between atoms: C_4  and  N_5
REMARK    5  A    between atoms: C_8  and  C_9
REMARK    6  A    between atoms: C_9  and  N_10
REMARK    7  A    between atoms: N_10  and  C_11
REMARK    8  A    between atoms: N_10  and  C_18
REMARK    9  A    between atoms: C_11  and  C_12
REMARK   10  A    between atoms: C_18  and  C_19
REMARK   11  A    between atoms: N_27  and  C_28
REMARK                            x       y       z     vdW  Elec       q    Type
REMARK                         _______ _______ _______ _____ _____    ______ ____
ROOT
ATOM      1  N   UNL     1       3.042   6.230  18.275  0.00  0.00    +0.000 NA
ENDROOT
BRANCH   1   2
ATOM      2  C   UNL     1       4.050   5.956  19.304  0.00  0.00    +0.000 C 
BRANCH   2   6
ATOM      3  N   UNL     1       6.566   4.657  16.577  0.00  0.00    +0.000 NA
ATOM      4  C   UNL     1       6.598   5.897  17.348  0.00  0.00    +0.000 C 
ATOM      5  C   UNL     1       6.448   5.501  18.814  0.00  0.00    +0.000 C 
ATOM      6  C   UNL     1       5.090   4.835  19.095  0.00  0.00    +0.000 C 
ATOM      7  C   UNL     1       4.752   3.786  18.015  0.00  0.00    +0.000 C 
ATOM      8  C   UNL     1       5.197   4.125  16.580  0.00  0.00    +0.000 C 
BRANCH   3   9
ATOM      9  C   UNL     1       7.140   4.789  15.227  0.00  0.00    +0.000 C 
BRANCH   9  10
ATOM     10  C   UNL     1       6.072   4.583  14.131  0.00  0.00    +0.000 C 
BRANCH  10  12
ATOM     11  C   UNL     1       6.717   3.691  12.068  0.00  0.00    +0.000 C 
ATOM     12  O   UNL     1       6.295   3.379  13.396  0.00  0.00    +0.000 OA
ENDBRANCH  10  12
ENDBRANCH   9  10
ENDBRANCH   3   9
ENDBRANCH   2   6
ENDBRANCH   1   2
BRANCH   1  13
ATOM     13  C   UNL     1       1.785   5.467  18.344  0.00  0.00    +0.000 C 
BRANCH  13  14
ATOM     14  C   UNL     1       1.546   4.364  19.361  0.00  0.00    +0.000 A 
ATOM     15  C   UNL     1       1.394   3.040  18.921  0.00  0.00    +0.000 A 
ATOM     16  C   UNL     1       1.476   1.999  19.838  0.00  0.00    +0.000 A 
ATOM     17  N   UNL     1       1.671   2.177  21.161  0.00  0.00    +0.000 NA
ATOM     18  C   UNL     1       1.766   3.454  21.581  0.00  0.00    +0.000 A 
ATOM     19  C   UNL     1       1.704   4.557  20.736  0.00  0.00    +0.000 A 
ENDBRANCH  13  14
ENDBRANCH   1  13
BRANCH   1  20
ATOM     20  C   UNL     1       2.878   7.695  18.178  0.00  0.00    +0.000 C 
BRANCH  20  21
ATOM     21  C   UNL     1       2.002   8.332  19.208  0.00  0.00    +0.000 A 
ATOM     22  N   UNL     1       1.941   7.932  20.464  0.00  0.00    +0.000 NA
ATOM     23  C   UNL     1       1.096   8.802  21.092  0.00  0.00    +0.000 A 
ATOM     24  C   UNL     1       0.707   8.825  22.437  0.00  0.00    +0.000 A 
ATOM     25  C   UNL     1      -0.185   9.814  22.856  0.00  0.00    +0.000 A 
ATOM     26  C   UNL     1      -0.679  10.757  21.950  0.00  0.00    +0.000 A 
ATOM     27  C   UNL     1      -0.291  10.753  20.608  0.00  0.00    +0.000 A 
ATOM     28  C   UNL     1       0.607   9.757  20.207  0.00  0.00    +0.000 A 
ATOM     29  N   UNL     1       1.216   9.448  19.008  0.00  0.00    +0.000 N 
ATOM     30  C   UNL     1       1.076  10.170  17.767  0.00  0.00    +0.000 C 
ENDBRANCH  20  21
ENDBRANCH   1  20
TORSDOF 9
ENDMDL
MODEL 9
REMARK VINA RESULT:      -6.7      1.126      1.383
REMARK  Name = 
REMARK  11 active torsions:
REMARK  status: ('A' for Active; 'I' for Inactive)
REMARK    1  A    between atoms: C_1  and  O_2
REMARK    2  A    between atoms: O_2  and  C_3
REMARK    3  A    between atoms: C_3  and  C_4
REMARK    4  A    between atoms: C_4  and  N_5
REMARK    5  A    between atoms: C_8  and  C_9
REMARK    6  A    between atoms: C_9  and  N_10
REMARK    7  A    between atoms: N_10  and  C_11
REMARK    8  A    between atoms: N_10  and  C_18
REMARK    9  A    between atoms: C_11  and  C_12
REMARK   10  A    between atoms: C_18  and  C_19
REMARK   11  A    between atoms: N_27  and  C_28
REMARK                            x       y       z     vdW  Elec       q    Type
REMARK                         _______ _______ _______ _____ _____    ______ ____
ROOT
ATOM      1  N   UNL     1       3.027   6.422  18.499  0.00  0.00    +0.000 NA
ENDROOT
BRANCH   1   2
ATOM      2  C   UNL     1       4.464   6.136  18.458  0.00  0.00    +0.000 C 
BRANCH   2   6
ATOM      3  N   UNL     1       6.617   5.652  15.203  0.00  0.00    +0.000 NA
ATOM      4  C   UNL     1       5.165   5.624  15.365  0.00  0.00    +0.000 C 
ATOM      5  C   UNL     1       4.786   6.900  16.111  0.00  0.00    +0.000 C 
ATOM      6  C   UNL     1       5.392   6.943  17.524  0.00  0.00    +0.000 C 
ATOM      7  C   UNL     1       6.875   6.519  17.505  0.00  0.00    +0.000 C 
ATOM      8  C   UNL     1       7.248   5.408  16.506  0.00  0.00    +0.000 C 
BRANCH   3   9
ATOM      9  C   UNL     1       7.106   4.761  14.138  0.00  0.00    +0.000 C 
BRANCH   9  10
ATOM     10  C   UNL     1       6.086   3.649  13.812  0.00  0.00    +0.000 C 
BRANCH  10  12
ATOM     11  C   UNL     1       7.059   3.247  11.724  0.00  0.00    +0.000 C 
ATOM     12  O   UNL     1       5.843   3.549  12.409  0.00  0.00    +0.000 OA
ENDBRANCH  10  12
ENDBRANCH   9  10
ENDBRANCH   3   9
ENDBRANCH   2   6
ENDBRANCH   1   2
BRANCH   1  13
ATOM     13  C   UNL     1       2.134   5.482  17.802  0.00  0.00    +0.000 C 
BRANCH  13  14
ATOM     14  C   UNL     1       2.173   3.981  18.036  0.00  0.00    +0.000 A 
ATOM     15  C   UNL     1       3.203   3.220  17.461  0.00  0.00    +0.000 A 
ATOM     16  C   UNL     1       3.423   1.921  17.904  0.00  0.00    +0.000 A 
ATOM     17  N   UNL     1       2.683   1.315  18.854  0.00  0.00    +0.000 NA
ATOM     18  C   UNL     1       1.666   2.037  19.365  0.00  0.00    +0.000 A 
ATOM     19  C   UNL     1       1.374   3.344  18.989  0.00  0.00    +0.000 A 
ENDBRANCH  13  14
ENDBRANCH   1  13
BRANCH   1  20
ATOM     20  C   UNL     1       2.660   6.708  19.901  0.00  0.00    +0.000 C 
BRANCH  20  21
ATOM     21  C   UNL     1       1.779   7.893  20.128  0.00  0.00    +0.000 A 
ATOM     22  N   UNL     1       1.162   8.137  21.267  0.00  0.00    +0.000 NA
ATOM     23  C   UNL     1       0.525   9.333  21.099  0.00  0.00    +0.000 A 
ATOM     24  C   UNL     1      -0.257  10.044  22.018  0.00  0.00    +0.000 A 
ATOM     25  C   UNL     1      -0.824  11.255  21.615  0.00  0.00    +0.000 A 
ATOM     26  C   UNL     1      -0.615  11.743  20.322  0.00  0.00    +0.000 A 
ATOM     27  C   UNL     1       0.172  11.049  19.398  0.00  0.00    +0.000 A 
ATOM     28  C   UNL     1       0.735   9.840  19.822  0.00  0.00    +0.000 A 
ATOM     29  N   UNL     1       1.557   8.909  19.221  0.00  0.00    +0.000 N 
ATOM     30  C   UNL     1       2.109   8.988  17.890  0.00  0.00    +0.000 C 
ENDBRANCH  20  21
ENDBRANCH   1  20
TORSDOF 9
ENDMDL
