MODEL 1
REMARK VINA RESULT:      -4.6      0.000      0.000
REMARK  Name = 
REMARK  11 active torsions:
REMARK  status: ('A' for Active; 'I' for Inactive)
REMARK    1  A    between atoms: C_1  and  C_2
REMARK    2  A    between atoms: C_2  and  O_3
REMARK    3  A    between atoms: O_3  and  C_4
REMARK    4  A    between atoms: C_4  and  C_5
REMARK    5  A    between atoms: C_5  and  N_6
REMARK    6  A    between atoms: N_6  and  C_7
REMARK    7  A    between atoms: N_6  and  N_12
REMARK    8  A    between atoms: C_7  and  C_8
REMARK    9  A    between atoms: C_8  and  O_9
REMARK   10  A    between atoms: O_9  and  C_10
REMARK   11  A    between atoms: C_10  and  C_11
REMARK                            x       y       z     vdW  Elec       q    Type
REMARK                         _______ _______ _______ _____ _____    ______ ____
ROOT
ATOM      1  N   UNL     1       4.957   3.807  18.079  0.00  0.00    +0.000 N 
ENDROOT
BRANCH   1   2
ATOM      2  N   UNL     1       5.283   3.664  19.350  0.00  0.00    +0.000 NA
ATOM      3  O   UNL     1       4.928   2.576  19.819  0.00  0.00    +0.000 OA
ENDBRANCH   1   2
BRANCH   1   4
ATOM      4  C   UNL     1       5.513   5.012  17.461  0.00  0.00    +0.000 C 
BRANCH   4   5
ATOM      5  C   UNL     1       7.033   5.206  17.292  0.00  0.00    +0.000 C 
BRANCH   5   6
ATOM      6  O   UNL     1       7.610   4.594  16.135  0.00  0.00    +0.000 OA
BRANCH   6   8
ATOM      7  C   UNL     1       6.307   3.936  14.178  0.00  0.00    +0.000 C 
ATOM      8  C   UNL     1       6.947   5.073  14.956  0.00  0.00    +0.000 C 
ENDBRANCH   6   8
ENDBRANCH   5   6
ENDBRANCH   4   5
ENDBRANCH   1   4
BRANCH   1   9
ATOM      9  C   UNL     1       3.648   3.289  17.655  0.00  0.00    +0.000 C 
BRANCH   9  10
ATOM     10  C   UNL     1       2.356   4.107  17.835  0.00  0.00    +0.000 C 
BRANCH  10  11
ATOM     11  O   UNL     1       1.171   3.315  17.945  0.00  0.00    +0.000 OA
BRANCH  11  12
ATOM     12  C   UNL     1       1.047   2.806  19.279  0.00  0.00    +0.000 C 
ATOM     13  C   UNL     1       1.002   3.941  20.282  0.00  0.00    +0.000 C 
ENDBRANCH  11  12
ENDBRANCH  10  11
ENDBRANCH   9  10
ENDBRANCH   1   9
TORSDOF 9
ENDMDL
MODEL 2
REMARK VINA RESULT:      -4.5      1.611      2.270
REMARK  Name = 
REMARK  11 active torsions:
REMARK  status: ('A' for Active; 'I' for Inactive)
REMARK    1  A    between atoms: C_1  and  C_2
REMARK    2  A    between atoms: C_2  and  O_3
REMARK    3  A    between atoms: O_3  and  C_4
REMARK    4  A    between atoms: C_4  and  C_5
REMARK    5  A    between atoms: C_5  and  N_6
REMARK    6  A    between atoms: N_6  and  C_7
REMARK    7  A    between atoms: N_6  and  N_12
REMARK    8  A    between atoms: C_7  and  C_8
REMARK    9  A    between atoms: C_8  and  O_9
REMARK   10  A    between atoms: O_9  and  C_10
REMARK   11  A    between atoms: C_10  and  C_11
REMARK                            x       y       z     vdW  Elec       q    Type
REMARK                         _______ _______ _______ _____ _____    ______ ____
ROOT
ATOM      1  N   UNL     1       4.821   4.180  17.783  0.00  0.00    +0.000 N 
ENDROOT
BRANCH   1   2
ATOM      2  N   UNL     1       5.169   4.488  19.018  0.00  0.00    +0.000 NA
ATOM      3  O   UNL     1       4.471   5.384  19.506  0.00  0.00    +0.000 OA
ENDBRANCH   1   2
BRANCH   1   4
ATOM      4  C   UNL     1       5.441   5.033  16.767  0.00  0.00    +0.000 C 
BRANCH   4   5
ATOM      5  C   UNL     1       6.960   5.000  16.502  0.00  0.00    +0.000 C 
BRANCH   5   6
ATOM      6  O   UNL     1       7.609   6.273  16.460  0.00  0.00    +0.000 OA
BRANCH   6   8
ATOM      7  C   UNL     1       7.921   8.375  17.662  0.00  0.00    +0.000 C 
ATOM      8  C   UNL     1       7.094   7.110  17.506  0.00  0.00    +0.000 C 
ENDBRANCH   6   8
ENDBRANCH   5   6
ENDBRANCH   4   5
ENDBRANCH   1   4
BRANCH   1   9
ATOM      9  C   UNL     1       3.469   3.640  17.576  0.00  0.00    +0.000 C 
BRANCH   9  10
ATOM     10  C   UNL     1       3.122   2.177  17.907  0.00  0.00    +0.000 C 
BRANCH  10  11
ATOM     11  O   UNL     1       2.130   2.026  18.925  0.00  0.00    +0.000 OA
BRANCH  11  12
ATOM     12  C   UNL     1       1.349   3.223  19.028  0.00  0.00    +0.000 C 
ATOM     13  C   UNL     1       1.083   3.564  20.480  0.00  0.00    +0.000 C 
ENDBRANCH  11  12
ENDBRANCH  10  11
ENDBRANCH   9  10
ENDBRANCH   1   9
TORSDOF 9
ENDMDL
MODEL 3
REMARK VINA RESULT:      -4.5      1.737      2.030
REMARK  Name = 
REMARK  11 active torsions:
REMARK  status: ('A' for Active; 'I' for Inactive)
REMARK    1  A    between atoms: C_1  and  C_2
REMARK    2  A    between atoms: C_2  and  O_3
REMARK    3  A    between atoms: O_3  and  C_4
REMARK    4  A    between atoms: C_4  and  C_5
REMARK    5  A    between atoms: C_5  and  N_6
REMARK    6  A    between atoms: N_6  and  C_7
REMARK    7  A    between atoms: N_6  and  N_12
REMARK    8  A    between atoms: C_7  and  C_8
REMARK    9  A    between atoms: C_8  and  O_9
REMARK   10  A    between atoms: O_9  and  C_10
REMARK   11  A    between atoms: C_10  and  C_11
REMARK                            x       y       z     vdW  Elec       q    Type
REMARK                         _______ _______ _______ _____ _____    ______ ____
ROOT
ATOM      1  N   UNL     1       6.131   4.968  18.728  0.00  0.00    +0.000 N 
ENDROOT
BRANCH   1   2
ATOM      2  N   UNL     1       6.714   5.261  19.875  0.00  0.00    +0.000 NA
ATOM      3  O   UNL     1       7.945   5.332  19.786  0.00  0.00    +0.000 OA
ENDBRANCH   1   2
BRANCH   1   4
ATOM      4  C   UNL     1       6.111   6.081  17.777  0.00  0.00    +0.000 C 
BRANCH   4   5
ATOM      5  C   UNL     1       7.136   6.184  16.630  0.00  0.00    +0.000 C 
BRANCH   5   6
ATOM      6  O   UNL     1       7.544   4.941  16.052  0.00  0.00    +0.000 OA
BRANCH   6   8
ATOM      7  C   UNL     1       5.689   4.087  14.715  0.00  0.00    +0.000 C 
ATOM      8  C   UNL     1       7.013   4.831  14.724  0.00  0.00    +0.000 C 
ENDBRANCH   6   8
ENDBRANCH   5   6
ENDBRANCH   4   5
ENDBRANCH   1   4
BRANCH   1   9
ATOM      9  C   UNL     1       5.030   3.995  18.758  0.00  0.00    +0.000 C 
BRANCH   9  10
ATOM     10  C   UNL     1       3.770   4.224  19.614  0.00  0.00    +0.000 C 
BRANCH  10  11
ATOM     11  O   UNL     1       3.326   3.065  20.325  0.00  0.00    +0.000 OA
BRANCH  11  12
ATOM     12  C   UNL     1       2.276   3.422  21.232  0.00  0.00    +0.000 C 
ATOM     13  C   UNL     1       1.019   3.794  20.473  0.00  0.00    +0.000 C 
ENDBRANCH  11  12
ENDBRANCH  10  11
ENDBRANCH   9  10
ENDBRANCH   1   9
TORSDOF 9
ENDMDL
MODEL 4
REMARK VINA RESULT:      -4.5      1.717      1.962
REMARK  Name = 
REMARK  11 active torsions:
REMARK  status: ('A' for Active; 'I' for Inactive)
REMARK    1  A    between atoms: C_1  and  C_2
REMARK    2  A    between atoms: C_2  and  O_3
REMARK    3  A    between atoms: O_3  and  C_4
REMARK    4  A    between atoms: C_4  and  C_5
REMARK    5  A    between atoms: C_5  and  N_6
REMARK    6  A    between atoms: N_6  and  C_7
REMARK    7  A    between atoms: N_6  and  N_12
REMARK    8  A    between atoms: C_7  and  C_8
REMARK    9  A    between atoms: C_8  and  O_9
REMARK   10  A    between atoms: O_9  and  C_10
REMARK   11  A    between atoms: C_10  and  C_11
REMARK                            x       y       z     vdW  Elec       q    Type
REMARK                         _______ _______ _______ _____ _____    ______ ____
ROOT
ATOM      1  N   UNL     1       5.113   4.457  18.363  0.00  0.00    +0.000 N 
ENDROOT
BRANCH   1   2
ATOM      2  N   UNL     1       6.098   4.254  19.216  0.00  0.00    +0.000 NA
ATOM      3  O   UNL     1       6.521   5.300  19.722  0.00  0.00    +0.000 OA
ENDBRANCH   1   2
BRANCH   1   4
ATOM      4  C   UNL     1       4.750   5.867  18.207  0.00  0.00    +0.000 C 
BRANCH   4   5
ATOM      5  C   UNL     1       4.796   6.566  16.834  0.00  0.00    +0.000 C 
BRANCH   5   6
ATOM      6  O   UNL     1       5.957   6.300  16.043  0.00  0.00    +0.000 OA
BRANCH   6   8
ATOM      7  C   UNL     1       6.450   4.134  15.029  0.00  0.00    +0.000 C 
ATOM      8  C   UNL     1       5.616   5.403  14.976  0.00  0.00    +0.000 C 
ENDBRANCH   6   8
ENDBRANCH   5   6
ENDBRANCH   4   5
ENDBRANCH   1   4
BRANCH   1   9
ATOM      9  C   UNL     1       4.088   3.408  18.252  0.00  0.00    +0.000 C 
BRANCH   9  10
ATOM     10  C   UNL     1       3.862   2.374  19.370  0.00  0.00    +0.000 C 
BRANCH  10  11
ATOM     11  O   UNL     1       3.210   2.898  20.530  0.00  0.00    +0.000 OA
BRANCH  11  12
ATOM     12  C   UNL     1       1.807   2.612  20.472  0.00  0.00    +0.000 C 
ATOM     13  C   UNL     1       1.005   3.893  20.371  0.00  0.00    +0.000 C 
ENDBRANCH  11  12
ENDBRANCH  10  11
ENDBRANCH   9  10
ENDBRANCH   1   9
TORSDOF 9
ENDMDL
MODEL 5
REMARK VINA RESULT:      -4.5      1.477      1.549
REMARK  Name = 
REMARK  11 active torsions:
REMARK  status: ('A' for Active; 'I' for Inactive)
REMARK    1  A    between atoms: C_1  and  C_2
REMARK    2  A    between atoms: C_2  and  O_3
REMARK    3  A    between atoms: O_3  and  C_4
REMARK    4  A    between atoms: C_4  and  C_5
REMARK    5  A    between atoms: C_5  and  N_6
REMARK    6  A    between atoms: N_6  and  C_7
REMARK    7  A    between atoms: N_6  and  N_12
REMARK    8  A    between atoms: C_7  and  C_8
REMARK    9  A    between atoms: C_8  and  O_9
REMARK   10  A    between atoms: O_9  and  C_10
REMARK   11  A    between atoms: C_10  and  C_11
REMARK                            x       y       z     vdW  Elec       q    Type
REMARK                         _______ _______ _______ _____ _____    ______ ____
ROOT
ATOM      1  N   UNL     1       5.617   4.359  18.645  0.00  0.00    +0.000 N 
ENDROOT
BRANCH   1   2
ATOM      2  N   UNL     1       5.936   4.915  19.798  0.00  0.00    +0.000 NA
ATOM      3  O   UNL     1       7.082   5.381  19.807  0.00  0.00    +0.000 OA
ENDBRANCH   1   2
BRANCH   1   4
ATOM      4  C   UNL     1       6.063   5.123  17.479  0.00  0.00    +0.000 C 
BRANCH   4   5
ATOM      5  C   UNL     1       6.667   4.430  16.241  0.00  0.00    +0.000 C 
BRANCH   5   6
ATOM      6  O   UNL     1       7.448   5.266  15.383  0.00  0.00    +0.000 OA
BRANCH   6   8
ATOM      7  C   UNL     1       6.068   3.900  13.902  0.00  0.00    +0.000 C 
ATOM      8  C   UNL     1       7.157   4.953  14.013  0.00  0.00    +0.000 C 
ENDBRANCH   6   8
ENDBRANCH   5   6
ENDBRANCH   4   5
ENDBRANCH   1   4
BRANCH   1   9
ATOM      9  C   UNL     1       4.371   3.581  18.592  0.00  0.00    +0.000 C 
BRANCH   9  10
ATOM     10  C   UNL     1       3.221   3.955  17.638  0.00  0.00    +0.000 C 
BRANCH  10  11
ATOM     11  O   UNL     1       2.249   4.835  18.209  0.00  0.00    +0.000 OA
BRANCH  11  12
ATOM     12  C   UNL     1       2.265   4.720  19.637  0.00  0.00    +0.000 C 
ATOM     13  C   UNL     1       1.057   3.946  20.124  0.00  0.00    +0.000 C 
ENDBRANCH  11  12
ENDBRANCH  10  11
ENDBRANCH   9  10
ENDBRANCH   1   9
TORSDOF 9
ENDMDL
MODEL 6
REMARK VINA RESULT:      -4.5      2.038      2.415
REMARK  Name = 
REMARK  11 active torsions:
REMARK  status: ('A' for Active; 'I' for Inactive)
REMARK    1  A    between atoms: C_1  and  C_2
REMARK    2  A    between atoms: C_2  and  O_3
REMARK    3  A    between atoms: O_3  and  C_4
REMARK    4  A    between atoms: C_4  and  C_5
REMARK    5  A    between atoms: C_5  and  N_6
REMARK    6  A    between atoms: N_6  and  C_7
REMARK    7  A    between atoms: N_6  and  N_12
REMARK    8  A    between atoms: C_7  and  C_8
REMARK    9  A    between atoms: C_8  and  O_9
REMARK   10  A    between atoms: O_9  and  C_10
REMARK   11  A    between atoms: C_10  and  C_11
REMARK                            x       y       z     vdW  Elec       q    Type
REMARK                         _______ _______ _______ _____ _____    ______ ____
ROOT
ATOM      1  N   UNL     1       6.662   5.248  18.889  0.00  0.00    +0.000 N 
ENDROOT
BRANCH   1   2
ATOM      2  N   UNL     1       7.252   5.282  20.069  0.00  0.00    +0.000 NA
ATOM      3  O   UNL     1       8.480   5.163  19.996  0.00  0.00    +0.000 OA
ENDBRANCH   1   2
BRANCH   1   4
ATOM      4  C   UNL     1       7.076   6.329  17.992  0.00  0.00    +0.000 C 
BRANCH   4   5
ATOM      5  C   UNL     1       6.551   6.424  16.546  0.00  0.00    +0.000 C 
BRANCH   5   6
ATOM      6  O   UNL     1       7.376   5.817  15.547  0.00  0.00    +0.000 OA
BRANCH   6   8
ATOM      7  C   UNL     1       5.361   4.505  15.126  0.00  0.00    +0.000 C 
ATOM      8  C   UNL     1       6.875   4.507  15.241  0.00  0.00    +0.000 C 
ENDBRANCH   6   8
ENDBRANCH   5   6
ENDBRANCH   4   5
ENDBRANCH   1   4
BRANCH   1   9
ATOM      9  C   UNL     1       5.291   4.720  18.834  0.00  0.00    +0.000 C 
BRANCH   9  10
ATOM     10  C   UNL     1       4.113   5.453  19.503  0.00  0.00    +0.000 C 
BRANCH  10  11
ATOM     11  O   UNL     1       2.977   4.624  19.760  0.00  0.00    +0.000 OA
BRANCH  11  12
ATOM     12  C   UNL     1       2.768   3.727  18.661  0.00  0.00    +0.000 C 
ATOM     13  C   UNL     1       1.582   4.169  17.829  0.00  0.00    +0.000 C 
ENDBRANCH  11  12
ENDBRANCH  10  11
ENDBRANCH   9  10
ENDBRANCH   1   9
TORSDOF 9
ENDMDL
MODEL 7
REMARK VINA RESULT:      -4.5      2.369      5.680
REMARK  Name = 
REMARK  11 active torsions:
REMARK  status: ('A' for Active; 'I' for Inactive)
REMARK    1  A    between atoms: C_1  and  C_2
REMARK    2  A    between atoms: C_2  and  O_3
REMARK    3  A    between atoms: O_3  and  C_4
REMARK    4  A    between atoms: C_4  and  C_5
REMARK    5  A    between atoms: C_5  and  N_6
REMARK    6  A    between atoms: N_6  and  C_7
REMARK    7  A    between atoms: N_6  and  N_12
REMARK    8  A    between atoms: C_7  and  C_8
REMARK    9  A    between atoms: C_8  and  O_9
REMARK   10  A    between atoms: O_9  and  C_10
REMARK   11  A    between atoms: C_10  and  C_11
REMARK                            x       y       z     vdW  Elec       q    Type
REMARK                         _______ _______ _______ _____ _____    ______ ____
ROOT
ATOM      1  N   UNL     1       7.010   5.415  16.754  0.00  0.00    +0.000 N 
ENDROOT
BRANCH   1   2
ATOM      2  N   UNL     1       7.596   6.507  16.302  0.00  0.00    +0.000 NA
ATOM      3  O   UNL     1       7.186   7.536  16.850  0.00  0.00    +0.000 OA
ENDBRANCH   1   2
BRANCH   1   4
ATOM      4  C   UNL     1       7.237   5.172  18.180  0.00  0.00    +0.000 C 
BRANCH   4   5
ATOM      5  C   UNL     1       6.071   5.117  19.186  0.00  0.00    +0.000 C 
BRANCH   5   6
ATOM      6  O   UNL     1       5.492   3.826  19.393  0.00  0.00    +0.000 OA
BRANCH   6   8
ATOM      7  C   UNL     1       3.053   3.866  19.504  0.00  0.00    +0.000 C 
ATOM      8  C   UNL     1       4.284   3.712  18.627  0.00  0.00    +0.000 C 
ENDBRANCH   6   8
ENDBRANCH   5   6
ENDBRANCH   4   5
ENDBRANCH   1   4
BRANCH   1   9
ATOM      9  C   UNL     1       6.869   4.288  15.820  0.00  0.00    +0.000 C 
BRANCH   9  10
ATOM     10  C   UNL     1       6.189   4.452  14.449  0.00  0.00    +0.000 C 
BRANCH  10  11
ATOM     11  O   UNL     1       7.096   4.681  13.368  0.00  0.00    +0.000 OA
BRANCH  11  12
ATOM     12  C   UNL     1       6.809   3.780  12.290  0.00  0.00    +0.000 C 
ATOM     13  C   UNL     1       5.355   3.356  12.322  0.00  0.00    +0.000 C 
ENDBRANCH  11  12
ENDBRANCH  10  11
ENDBRANCH   9  10
ENDBRANCH   1   9
TORSDOF 9
ENDMDL
MODEL 8
REMARK VINA RESULT:      -4.5      1.652      5.492
REMARK  Name = 
REMARK  11 active torsions:
REMARK  status: ('A' for Active; 'I' for Inactive)
REMARK    1  A    between atoms: C_1  and  C_2
REMARK    2  A    between atoms: C_2  and  O_3
REMARK    3  A    between atoms: O_3  and  C_4
REMARK    4  A    between atoms: C_4  and  C_5
REMARK    5  A    between atoms: C_5  and  N_6
REMARK    6  A    between atoms: N_6  and  C_7
REMARK    7  A    between atoms: N_6  and  N_12
REMARK    8  A    between atoms: C_7  and  C_8
REMARK    9  A    between atoms: C_8  and  O_9
REMARK   10  A    between atoms: O_9  and  C_10
REMARK   11  A    between atoms: C_10  and  C_11
REMARK                            x       y       z     vdW  Elec       q    Type
REMARK                         _______ _______ _______ _____ _____    ______ ____
ROOT
ATOM      1  N   UNL     1       5.968   4.810  18.577  0.00  0.00    +0.000 N 
ENDROOT
BRANCH   1   2
ATOM      2  N   UNL     1       6.261   5.318  19.759  0.00  0.00    +0.000 NA
ATOM      3  O   UNL     1       7.473   5.305  20.002  0.00  0.00    +0.000 OA
ENDBRANCH   1   2
BRANCH   1   4
ATOM      4  C   UNL     1       4.792   3.937  18.586  0.00  0.00    +0.000 C 
BRANCH   4   5
ATOM      5  C   UNL     1       3.409   4.449  19.036  0.00  0.00    +0.000 C 
BRANCH   5   6
ATOM      6  O   UNL     1       2.285   3.793  18.444  0.00  0.00    +0.000 OA
BRANCH   6   8
ATOM      7  C   UNL     1       1.475   4.522  20.629  0.00  0.00    +0.000 C 
ATOM      8  C   UNL     1       1.259   3.612  19.432  0.00  0.00    +0.000 C 
ENDBRANCH   6   8
ENDBRANCH   5   6
ENDBRANCH   4   5
ENDBRANCH   1   4
BRANCH   1   9
ATOM      9  C   UNL     1       7.086   4.543  17.660  0.00  0.00    +0.000 C 
BRANCH   9  10
ATOM     10  C   UNL     1       6.979   4.819  16.149  0.00  0.00    +0.000 C 
BRANCH  10  11
ATOM     11  O   UNL     1       6.343   3.777  15.407  0.00  0.00    +0.000 OA
BRANCH  11  12
ATOM     12  C   UNL     1       5.649   4.332  14.282  0.00  0.00    +0.000 C 
ATOM     13  C   UNL     1       6.025   3.601  13.009  0.00  0.00    +0.000 C 
ENDBRANCH  11  12
ENDBRANCH  10  11
ENDBRANCH   9  10
ENDBRANCH   1   9
TORSDOF 9
ENDMDL
MODEL 9
REMARK VINA RESULT:      -4.4      1.916      5.715
REMARK  Name = 
REMARK  11 active torsions:
REMARK  status: ('A' for Active; 'I' for Inactive)
REMARK    1  A    between atoms: C_1  and  C_2
REMARK    2  A    between atoms: C_2  and  O_3
REMARK    3  A    between atoms: O_3  and  C_4
REMARK    4  A    between atoms: C_4  and  C_5
REMARK    5  A    between atoms: C_5  and  N_6
REMARK    6  A    between atoms: N_6  and  C_7
REMARK    7  A    between atoms: N_6  and  N_12
REMARK    8  A    between atoms: C_7  and  C_8
REMARK    9  A    between atoms: C_8  and  O_9
REMARK   10  A    between atoms: O_9  and  C_10
REMARK   11  A    between atoms: C_10  and  C_11
REMARK                            x       y       z     vdW  Elec       q    Type
REMARK                         _______ _______ _______ _____ _____    ______ ____
ROOT
ATOM      1  N   UNL     1       4.527   4.478  17.523  0.00  0.00    +0.000 N 
ENDROOT
BRANCH   1   2
ATOM      2  N   UNL     1       4.117   5.706  17.268  0.00  0.00    +0.000 NA
ATOM      3  O   UNL     1       4.110   6.430  18.270  0.00  0.00    +0.000 OA
ENDBRANCH   1   2
BRANCH   1   4
ATOM      4  C   UNL     1       4.294   4.055  18.905  0.00  0.00    +0.000 C 
BRANCH   4   5
ATOM      5  C   UNL     1       3.021   3.284  19.310  0.00  0.00    +0.000 C 
BRANCH   5   6
ATOM      6  O   UNL     1       1.791   3.998  19.160  0.00  0.00    +0.000 OA
BRANCH   6   8
ATOM      7  C   UNL     1       1.729   3.028  21.400  0.00  0.00    +0.000 C 
ATOM      8  C   UNL     1       1.001   3.848  20.349  0.00  0.00    +0.000 C 
ENDBRANCH   6   8
ENDBRANCH   5   6
ENDBRANCH   4   5
ENDBRANCH   1   4
BRANCH   1   9
ATOM      9  C   UNL     1       5.701   3.991  16.784  0.00  0.00    +0.000 C 
BRANCH   9  10
ATOM     10  C   UNL     1       7.081   4.660  16.922  0.00  0.00    +0.000 C 
BRANCH  10  11
ATOM     11  O   UNL     1       7.691   4.485  18.203  0.00  0.00    +0.000 OA
BRANCH  11  12
ATOM     12  C   UNL     1       7.712   5.733  18.908  0.00  0.00    +0.000 C 
ATOM     13  C   UNL     1       7.638   6.895  17.938  0.00  0.00    +0.000 C 
ENDBRANCH  11  12
ENDBRANCH  10  11
ENDBRANCH   9  10
ENDBRANCH   1   9
TORSDOF 9
ENDMDL
