MODEL 1
REMARK VINA RESULT:      -7.3      0.000      0.000
REMARK  Name = 
REMARK  7 active torsions:
REMARK  status: ('A' for Active; 'I' for Inactive)
REMARK    1  A    between atoms: C_1  and  C_2
REMARK    2  A    between atoms: C_2  and  O_3
REMARK    3  A    between atoms: O_3  and  C_4
REMARK    4  A    between atoms: C_6  and  N_7
REMARK    5  A    between atoms: C_8  and  C_10
REMARK    6  A    between atoms: C_12  and  C_13
REMARK    7  A    between atoms: N_14  and  C_15
REMARK                            x       y       z     vdW  Elec       q    Type
REMARK                         _______ _______ _______ _____ _____    ______ ____
ROOT
ATOM      1  N   UNL     1       5.348   4.864  17.761  0.00  0.00    +0.000 N 
ATOM      2  C   UNL     1       6.591   4.578  17.233  0.00  0.00    +0.000 C 
ATOM      3  O   UNL     1       7.588   4.388  17.923  0.00  0.00    +0.000 OA
ATOM      4  H   UNL     1       4.594   4.928  17.081  0.00  0.00    +0.000 HD
ENDROOT
BRANCH   2   5
ATOM      5  C   UNL     1       6.622   4.513  15.762  0.00  0.00    +0.000 A 
ATOM      6  C   UNL     1       5.866   3.634  14.948  0.00  0.00    +0.000 A 
ATOM      7  C   UNL     1       6.212   3.927  13.648  0.00  0.00    +0.000 A 
ATOM      8  C   UNL     1       5.740   3.347  12.366  0.00  0.00    +0.000 C 
ATOM      9  N   UNL     1       7.149   4.931  13.731  0.00  0.00    +0.000 N 
ATOM     10  N   UNL     1       7.408   5.314  15.012  0.00  0.00    +0.000 NA
BRANCH   9  11
ATOM     11  C   UNL     1       7.843   5.571  12.613  0.00  0.00    +0.000 C 
ATOM     12  F   UNL     1       9.136   5.857  12.934  0.00  0.00    +0.000 F 
ATOM     13  F   UNL     1       7.886   4.755  11.525  0.00  0.00    +0.000 F 
ENDBRANCH   9  11
ENDBRANCH   2   5
BRANCH   1  16
ATOM     14  C   UNL     1       3.181   4.119  19.751  0.00  0.00    +0.000 C 
ATOM     15  C   UNL     1       4.637   3.606  19.833  0.00  0.00    +0.000 C 
ATOM     16  C   UNL     1       5.107   4.935  19.212  0.00  0.00    +0.000 C 
ATOM     17  C   UNL     1       3.750   5.547  19.610  0.00  0.00    +0.000 C 
BRANCH  14  18
ATOM     18  O   UNL     1       2.387   3.668  18.628  0.00  0.00    +0.000 OA
BRANCH  18  20
ATOM     19  C   UNL     1       0.916   3.127  20.431  0.00  0.00    +0.000 C 
ATOM     20  C   UNL     1       1.198   2.952  18.954  0.00  0.00    +0.000 C 
ENDBRANCH  18  20
ENDBRANCH  14  18
ENDBRANCH   1  16
TORSDOF 5
ENDMDL
MODEL 2
REMARK VINA RESULT:      -7.2      0.869      1.074
REMARK  Name = 
REMARK  7 active torsions:
REMARK  status: ('A' for Active; 'I' for Inactive)
REMARK    1  A    between atoms: C_1  and  C_2
REMARK    2  A    between atoms: C_2  and  O_3
REMARK    3  A    between atoms: O_3  and  C_4
REMARK    4  A    between atoms: C_6  and  N_7
REMARK    5  A    between atoms: C_8  and  C_10
REMARK    6  A    between atoms: C_12  and  C_13
REMARK    7  A    between atoms: N_14  and  C_15
REMARK                            x       y       z     vdW  Elec       q    Type
REMARK                         _______ _______ _______ _____ _____    ______ ____
ROOT
ATOM      1  N   UNL     1       5.664   4.124  17.674  0.00  0.00    +0.000 N 
ATOM      2  C   UNL     1       6.332   5.136  17.016  0.00  0.00    +0.000 C 
ATOM      3  O   UNL     1       6.709   6.164  17.570  0.00  0.00    +0.000 OA
ATOM      4  H   UNL     1       5.472   3.296  17.113  0.00  0.00    +0.000 HD
ENDROOT
BRANCH   2   5
ATOM      5  C   UNL     1       6.564   4.877  15.585  0.00  0.00    +0.000 A 
ATOM      6  C   UNL     1       5.851   3.959  14.776  0.00  0.00    +0.000 A 
ATOM      7  C   UNL     1       6.403   4.053  13.518  0.00  0.00    +0.000 A 
ATOM      8  C   UNL     1       6.063   3.348  12.257  0.00  0.00    +0.000 C 
ATOM      9  N   UNL     1       7.409   4.985  13.622  0.00  0.00    +0.000 N 
ATOM     10  N   UNL     1       7.520   5.511  14.873  0.00  0.00    +0.000 NA
BRANCH   9  11
ATOM     11  C   UNL     1       8.311   5.419  12.555  0.00  0.00    +0.000 C 
ATOM     12  F   UNL     1       7.694   6.293  11.711  0.00  0.00    +0.000 F 
ATOM     13  F   UNL     1       9.397   6.067  13.058  0.00  0.00    +0.000 F 
ENDBRANCH   9  11
ENDBRANCH   2   5
BRANCH   1  16
ATOM     14  C   UNL     1       3.261   3.965  19.521  0.00  0.00    +0.000 C 
ATOM     15  C   UNL     1       4.485   3.026  19.619  0.00  0.00    +0.000 C 
ATOM     16  C   UNL     1       5.372   4.180  19.116  0.00  0.00    +0.000 C 
ATOM     17  C   UNL     1       4.245   5.155  19.507  0.00  0.00    +0.000 C 
BRANCH  14  18
ATOM     18  O   UNL     1       2.434   3.847  18.339  0.00  0.00    +0.000 OA
BRANCH  18  20
ATOM     19  C   UNL     1       0.794   2.183  18.838  0.00  0.00    +0.000 C 
ATOM     20  C   UNL     1       1.041   3.653  18.571  0.00  0.00    +0.000 C 
ENDBRANCH  18  20
ENDBRANCH  14  18
ENDBRANCH   1  16
TORSDOF 5
ENDMDL
MODEL 3
REMARK VINA RESULT:      -6.8      2.262      3.065
REMARK  Name = 
REMARK  7 active torsions:
REMARK  status: ('A' for Active; 'I' for Inactive)
REMARK    1  A    between atoms: C_1  and  C_2
REMARK    2  A    between atoms: C_2  and  O_3
REMARK    3  A    between atoms: O_3  and  C_4
REMARK    4  A    between atoms: C_6  and  N_7
REMARK    5  A    between atoms: C_8  and  C_10
REMARK    6  A    between atoms: C_12  and  C_13
REMARK    7  A    between atoms: N_14  and  C_15
REMARK                            x       y       z     vdW  Elec       q    Type
REMARK                         _______ _______ _______ _____ _____    ______ ____
ROOT
ATOM      1  N   UNL     1       6.071   4.263  15.938  0.00  0.00    +0.000 N 
ATOM      2  C   UNL     1       6.730   4.587  14.770  0.00  0.00    +0.000 C 
ATOM      3  O   UNL     1       7.686   5.355  14.728  0.00  0.00    +0.000 OA
ATOM      4  H   UNL     1       5.341   3.560  15.842  0.00  0.00    +0.000 HD
ENDROOT
BRANCH   2   5
ATOM      5  C   UNL     1       6.193   3.926  13.569  0.00  0.00    +0.000 A 
ATOM      6  C   UNL     1       4.897   4.106  13.025  0.00  0.00    +0.000 A 
ATOM      7  C   UNL     1       4.837   3.297  11.912  0.00  0.00    +0.000 A 
ATOM      8  C   UNL     1       3.743   3.078  10.933  0.00  0.00    +0.000 C 
ATOM      9  N   UNL     1       6.058   2.668  11.843  0.00  0.00    +0.000 N 
ATOM     10  N   UNL     1       6.908   3.044  12.839  0.00  0.00    +0.000 NA
BRANCH   9  11
ATOM     11  C   UNL     1       6.479   1.685  10.844  0.00  0.00    +0.000 C 
ATOM     12  F   UNL     1       7.836   1.617  10.760  0.00  0.00    +0.000 F 
ATOM     13  F   UNL     1       6.047   0.436  11.168  0.00  0.00    +0.000 F 
ENDBRANCH   9  11
ENDBRANCH   2   5
BRANCH   1  16
ATOM     14  C   UNL     1       4.825   5.665  18.324  0.00  0.00    +0.000 C 
ATOM     15  C   UNL     1       5.595   4.328  18.418  0.00  0.00    +0.000 C 
ATOM     16  C   UNL     1       6.483   4.793  17.248  0.00  0.00    +0.000 C 
ATOM     17  C   UNL     1       6.022   6.236  17.534  0.00  0.00    +0.000 C 
BRANCH  14  18
ATOM     18  O   UNL     1       3.570   5.652  17.603  0.00  0.00    +0.000 OA
BRANCH  18  20
ATOM     19  C   UNL     1       1.681   4.254  18.028  0.00  0.00    +0.000 C 
ATOM     20  C   UNL     1       2.395   5.537  18.400  0.00  0.00    +0.000 C 
ENDBRANCH  18  20
ENDBRANCH  14  18
ENDBRANCH   1  16
TORSDOF 5
ENDMDL
MODEL 4
REMARK VINA RESULT:      -6.7      1.720      2.072
REMARK  Name = 
REMARK  7 active torsions:
REMARK  status: ('A' for Active; 'I' for Inactive)
REMARK    1  A    between atoms: C_1  and  C_2
REMARK    2  A    between atoms: C_2  and  O_3
REMARK    3  A    between atoms: O_3  and  C_4
REMARK    4  A    between atoms: C_6  and  N_7
REMARK    5  A    between atoms: C_8  and  C_10
REMARK    6  A    between atoms: C_12  and  C_13
REMARK    7  A    between atoms: N_14  and  C_15
REMARK                            x       y       z     vdW  Elec       q    Type
REMARK                         _______ _______ _______ _____ _____    ______ ____
ROOT
ATOM      1  N   UNL     1       5.718   4.388  17.333  0.00  0.00    +0.000 N 
ATOM      2  C   UNL     1       6.960   4.415  16.733  0.00  0.00    +0.000 C 
ATOM      3  O   UNL     1       8.012   4.416  17.365  0.00  0.00    +0.000 OA
ATOM      4  H   UNL     1       4.930   4.319  16.692  0.00  0.00    +0.000 HD
ENDROOT
BRANCH   2   5
ATOM      5  C   UNL     1       6.920   4.437  15.261  0.00  0.00    +0.000 A 
ATOM      6  C   UNL     1       7.717   5.247  14.416  0.00  0.00    +0.000 A 
ATOM      7  C   UNL     1       7.345   4.935  13.128  0.00  0.00    +0.000 A 
ATOM      8  C   UNL     1       7.839   5.447  11.825  0.00  0.00    +0.000 C 
ATOM      9  N   UNL     1       6.355   3.987  13.247  0.00  0.00    +0.000 N 
ATOM     10  N   UNL     1       6.085   3.659  14.541  0.00  0.00    +0.000 NA
BRANCH   9  11
ATOM     11  C   UNL     1       5.616   3.354  12.154  0.00  0.00    +0.000 C 
ATOM     12  F   UNL     1       5.746   1.998  12.191  0.00  0.00    +0.000 F 
ATOM     13  F   UNL     1       4.284   3.617  12.239  0.00  0.00    +0.000 F 
ENDBRANCH   9  11
ENDBRANCH   2   5
BRANCH   1  16
ATOM     14  C   UNL     1       3.476   4.125  19.362  0.00  0.00    +0.000 C 
ATOM     15  C   UNL     1       4.675   3.154  19.274  0.00  0.00    +0.000 C 
ATOM     16  C   UNL     1       5.550   4.327  18.794  0.00  0.00    +0.000 C 
ATOM     17  C   UNL     1       4.490   5.289  19.363  0.00  0.00    +0.000 C 
BRANCH  14  18
ATOM     18  O   UNL     1       2.549   4.128  18.251  0.00  0.00    +0.000 OA
BRANCH  18  20
ATOM     19  C   UNL     1       1.048   3.528  20.010  0.00  0.00    +0.000 C 
ATOM     20  C   UNL     1       1.263   3.572  18.511  0.00  0.00    +0.000 C 
ENDBRANCH  18  20
ENDBRANCH  14  18
ENDBRANCH   1  16
TORSDOF 5
ENDMDL
MODEL 5
REMARK VINA RESULT:      -6.7      1.241      2.010
REMARK  Name = 
REMARK  7 active torsions:
REMARK  status: ('A' for Active; 'I' for Inactive)
REMARK    1  A    between atoms: C_1  and  C_2
REMARK    2  A    between atoms: C_2  and  O_3
REMARK    3  A    between atoms: O_3  and  C_4
REMARK    4  A    between atoms: C_6  and  N_7
REMARK    5  A    between atoms: C_8  and  C_10
REMARK    6  A    between atoms: C_12  and  C_13
REMARK    7  A    between atoms: N_14  and  C_15
REMARK                            x       y       z     vdW  Elec       q    Type
REMARK                         _______ _______ _______ _____ _____    ______ ____
ROOT
ATOM      1  N   UNL     1       5.385   4.099  17.494  0.00  0.00    +0.000 N 
ATOM      2  C   UNL     1       6.600   4.552  17.020  0.00  0.00    +0.000 C 
ATOM      3  O   UNL     1       7.497   4.958  17.752  0.00  0.00    +0.000 OA
ATOM      4  H   UNL     1       4.758   3.724  16.785  0.00  0.00    +0.000 HD
ENDROOT
BRANCH   2   5
ATOM      5  C   UNL     1       6.735   4.502  15.555  0.00  0.00    +0.000 A 
ATOM      6  C   UNL     1       5.960   3.711  14.671  0.00  0.00    +0.000 A 
ATOM      7  C   UNL     1       6.429   3.984  13.406  0.00  0.00    +0.000 A 
ATOM      8  C   UNL     1       6.000   3.470  12.082  0.00  0.00    +0.000 C 
ATOM      9  N   UNL     1       7.450   4.891  13.576  0.00  0.00    +0.000 N 
ATOM     10  N   UNL     1       7.649   5.230  14.880  0.00  0.00    +0.000 NA
BRANCH   9  11
ATOM     11  C   UNL     1       8.285   5.472  12.525  0.00  0.00    +0.000 C 
ATOM     12  F   UNL     1       7.571   6.329  11.744  0.00  0.00    +0.000 F 
ATOM     13  F   UNL     1       9.313   6.193  13.051  0.00  0.00    +0.000 F 
ENDBRANCH   9  11
ENDBRANCH   2   5
BRANCH   1  16
ATOM     14  C   UNL     1       3.290   5.151  19.421  0.00  0.00    +0.000 C 
ATOM     15  C   UNL     1       3.615   3.651  19.238  0.00  0.00    +0.000 C 
ATOM     16  C   UNL     1       5.074   4.036  18.931  0.00  0.00    +0.000 C 
ATOM     17  C   UNL     1       4.804   5.401  19.593  0.00  0.00    +0.000 C 
BRANCH  14  18
ATOM     18  O   UNL     1       2.685   5.835  18.298  0.00  0.00    +0.000 OA
BRANCH  18  20
ATOM     19  C   UNL     1       2.873   8.142  17.709  0.00  0.00    +0.000 C 
ATOM     20  C   UNL     1       2.150   7.128  18.570  0.00  0.00    +0.000 C 
ENDBRANCH  18  20
ENDBRANCH  14  18
ENDBRANCH   1  16
TORSDOF 5
ENDMDL
MODEL 6
REMARK VINA RESULT:      -6.6      2.287      3.102
REMARK  Name = 
REMARK  7 active torsions:
REMARK  status: ('A' for Active; 'I' for Inactive)
REMARK    1  A    between atoms: C_1  and  C_2
REMARK    2  A    between atoms: C_2  and  O_3
REMARK    3  A    between atoms: O_3  and  C_4
REMARK    4  A    between atoms: C_6  and  N_7
REMARK    5  A    between atoms: C_8  and  C_10
REMARK    6  A    between atoms: C_12  and  C_13
REMARK    7  A    between atoms: N_14  and  C_15
REMARK                            x       y       z     vdW  Elec       q    Type
REMARK                         _______ _______ _______ _____ _____    ______ ____
ROOT
ATOM      1  N   UNL     1       5.687   5.071  15.612  0.00  0.00    +0.000 N 
ATOM      2  C   UNL     1       6.614   4.846  14.614  0.00  0.00    +0.000 C 
ATOM      3  O   UNL     1       7.775   5.237  14.674  0.00  0.00    +0.000 OA
ATOM      4  H   UNL     1       4.781   4.631  15.466  0.00  0.00    +0.000 HD
ENDROOT
BRANCH   2   5
ATOM      5  C   UNL     1       6.093   4.087  13.464  0.00  0.00    +0.000 A 
ATOM      6  C   UNL     1       4.785   4.178  12.927  0.00  0.00    +0.000 A 
ATOM      7  C   UNL     1       4.747   3.298  11.869  0.00  0.00    +0.000 A 
ATOM      8  C   UNL     1       3.653   2.971  10.920  0.00  0.00    +0.000 C 
ATOM      9  N   UNL     1       5.993   2.717  11.824  0.00  0.00    +0.000 N 
ATOM     10  N   UNL     1       6.836   3.191  12.783  0.00  0.00    +0.000 NA
BRANCH   9  11
ATOM     11  C   UNL     1       6.444   1.690  10.885  0.00  0.00    +0.000 C 
ATOM     12  F   UNL     1       7.804   1.633  10.831  0.00  0.00    +0.000 F 
ATOM     13  F   UNL     1       6.020   0.453  11.262  0.00  0.00    +0.000 F 
ENDBRANCH   9  11
ENDBRANCH   2   5
BRANCH   1  16
ATOM     14  C   UNL     1       5.064   4.895  18.577  0.00  0.00    +0.000 C 
ATOM     15  C   UNL     1       6.495   4.852  17.995  0.00  0.00    +0.000 C 
ATOM     16  C   UNL     1       6.027   5.778  16.857  0.00  0.00    +0.000 C 
ATOM     17  C   UNL     1       4.818   6.163  17.731  0.00  0.00    +0.000 C 
BRANCH  14  18
ATOM     18  O   UNL     1       4.194   3.781  18.269  0.00  0.00    +0.000 OA
BRANCH  18  20
ATOM     19  C   UNL     1       3.529   1.519  18.657  0.00  0.00    +0.000 C 
ATOM     20  C   UNL     1       4.072   2.787  19.283  0.00  0.00    +0.000 C 
ENDBRANCH  18  20
ENDBRANCH  14  18
ENDBRANCH   1  16
TORSDOF 5
ENDMDL
MODEL 7
REMARK VINA RESULT:      -6.6      2.895      3.769
REMARK  Name = 
REMARK  7 active torsions:
REMARK  status: ('A' for Active; 'I' for Inactive)
REMARK    1  A    between atoms: C_1  and  C_2
REMARK    2  A    between atoms: C_2  and  O_3
REMARK    3  A    between atoms: O_3  and  C_4
REMARK    4  A    between atoms: C_6  and  N_7
REMARK    5  A    between atoms: C_8  and  C_10
REMARK    6  A    between atoms: C_12  and  C_13
REMARK    7  A    between atoms: N_14  and  C_15
REMARK                            x       y       z     vdW  Elec       q    Type
REMARK                         _______ _______ _______ _____ _____    ______ ____
ROOT
ATOM      1  N   UNL     1       3.521   3.099  18.880  0.00  0.00    +0.000 N 
ATOM      2  C   UNL     1       3.369   3.455  17.556  0.00  0.00    +0.000 C 
ATOM      3  O   UNL     1       2.344   3.241  16.915  0.00  0.00    +0.000 OA
ATOM      4  H   UNL     1       4.393   3.398  19.311  0.00  0.00    +0.000 HD
ENDROOT
BRANCH   2   5
ATOM      5  C   UNL     1       4.542   4.124  16.971  0.00  0.00    +0.000 A 
ATOM      6  C   UNL     1       5.090   3.880  15.687  0.00  0.00    +0.000 A 
ATOM      7  C   UNL     1       6.168   4.727  15.566  0.00  0.00    +0.000 A 
ATOM      8  C   UNL     1       7.117   4.932  14.444  0.00  0.00    +0.000 C 
ATOM      9  N   UNL     1       6.234   5.416  16.755  0.00  0.00    +0.000 N 
ATOM     10  N   UNL     1       5.245   5.072  17.625  0.00  0.00    +0.000 NA
BRANCH   9  11
ATOM     11  C   UNL     1       7.231   6.421  17.128  0.00  0.00    +0.000 C 
ATOM     12  F   UNL     1       6.656   7.642  17.310  0.00  0.00    +0.000 F 
ATOM     13  F   UNL     1       7.842   6.101  18.300  0.00  0.00    +0.000 F 
ENDBRANCH   9  11
ENDBRANCH   2   5
BRANCH   1  16
ATOM     14  C   UNL     1       1.644   3.762  21.171  0.00  0.00    +0.000 C 
ATOM     15  C   UNL     1       1.167   3.305  19.774  0.00  0.00    +0.000 C 
ATOM     16  C   UNL     1       2.445   2.454  19.651  0.00  0.00    +0.000 C 
ATOM     17  C   UNL     1       2.600   2.550  21.181  0.00  0.00    +0.000 C 
BRANCH  14  18
ATOM     18  O   UNL     1       2.295   5.051  21.255  0.00  0.00    +0.000 OA
BRANCH  18  20
ATOM     19  C   UNL     1       2.468   6.723  19.558  0.00  0.00    +0.000 C 
ATOM     20  C   UNL     1       1.601   6.141  20.654  0.00  0.00    +0.000 C 
ENDBRANCH  18  20
ENDBRANCH  14  18
ENDBRANCH   1  16
TORSDOF 5
ENDMDL
MODEL 8
REMARK VINA RESULT:      -6.4      2.061      2.792
REMARK  Name = 
REMARK  7 active torsions:
REMARK  status: ('A' for Active; 'I' for Inactive)
REMARK    1  A    between atoms: C_1  and  C_2
REMARK    2  A    between atoms: C_2  and  O_3
REMARK    3  A    between atoms: O_3  and  C_4
REMARK    4  A    between atoms: C_6  and  N_7
REMARK    5  A    between atoms: C_8  and  C_10
REMARK    6  A    between atoms: C_12  and  C_13
REMARK    7  A    between atoms: N_14  and  C_15
REMARK                            x       y       z     vdW  Elec       q    Type
REMARK                         _______ _______ _______ _____ _____    ______ ____
ROOT
ATOM      1  N   UNL     1       5.528   4.094  17.278  0.00  0.00    +0.000 N 
ATOM      2  C   UNL     1       6.724   4.356  16.640  0.00  0.00    +0.000 C 
ATOM      3  O   UNL     1       7.759   4.632  17.238  0.00  0.00    +0.000 OA
ATOM      4  H   UNL     1       4.765   3.810  16.667  0.00  0.00    +0.000 HD
ENDROOT
BRANCH   2   5
ATOM      5  C   UNL     1       6.656   4.270  15.171  0.00  0.00    +0.000 A 
ATOM      6  C   UNL     1       7.414   5.039  14.254  0.00  0.00    +0.000 A 
ATOM      7  C   UNL     1       7.028   4.625  13.000  0.00  0.00    +0.000 A 
ATOM      8  C   UNL     1       7.482   5.056  11.654  0.00  0.00    +0.000 C 
ATOM      9  N   UNL     1       6.067   3.661  13.207  0.00  0.00    +0.000 N 
ATOM     10  N   UNL     1       5.831   3.420  14.526  0.00  0.00    +0.000 NA
BRANCH   9  11
ATOM     11  C   UNL     1       5.327   2.931  12.177  0.00  0.00    +0.000 C 
ATOM     12  F   UNL     1       4.667   3.783  11.345  0.00  0.00    +0.000 F 
ATOM     13  F   UNL     1       6.163   2.195  11.395  0.00  0.00    +0.000 F 
ENDBRANCH   9  11
ENDBRANCH   2   5
BRANCH   1  16
ATOM     14  C   UNL     1       3.949   5.538  19.431  0.00  0.00    +0.000 C 
ATOM     15  C   UNL     1       3.949   4.003  19.247  0.00  0.00    +0.000 C 
ATOM     16  C   UNL     1       5.402   4.094  18.745  0.00  0.00    +0.000 C 
ATOM     17  C   UNL     1       5.492   5.486  19.400  0.00  0.00    +0.000 C 
BRANCH  14  18
ATOM     18  O   UNL     1       3.346   6.326  18.378  0.00  0.00    +0.000 OA
BRANCH  18  20
ATOM     19  C   UNL     1       2.393   8.432  17.776  0.00  0.00    +0.000 C 
ATOM     20  C   UNL     1       2.411   7.316  18.799  0.00  0.00    +0.000 C 
ENDBRANCH  18  20
ENDBRANCH  14  18
ENDBRANCH   1  16
TORSDOF 5
ENDMDL
MODEL 9
REMARK VINA RESULT:      -6.4      4.360      7.214
REMARK  Name = 
REMARK  7 active torsions:
REMARK  status: ('A' for Active; 'I' for Inactive)
REMARK    1  A    between atoms: C_1  and  C_2
REMARK    2  A    between atoms: C_2  and  O_3
REMARK    3  A    between atoms: O_3  and  C_4
REMARK    4  A    between atoms: C_6  and  N_7
REMARK    5  A    between atoms: C_8  and  C_10
REMARK    6  A    between atoms: C_12  and  C_13
REMARK    7  A    between atoms: N_14  and  C_15
REMARK                            x       y       z     vdW  Elec       q    Type
REMARK                         _______ _______ _______ _____ _____    ______ ____
ROOT
ATOM      1  N   UNL     1       5.103   4.946  16.930  0.00  0.00    +0.000 N 
ATOM      2  C   UNL     1       4.999   4.906  18.306  0.00  0.00    +0.000 C 
ATOM      3  O   UNL     1       5.827   5.412  19.058  0.00  0.00    +0.000 OA
ATOM      4  H   UNL     1       4.313   4.550  16.425  0.00  0.00    +0.000 HD
ENDROOT
BRANCH   2   5
ATOM      5  C   UNL     1       3.801   4.208  18.802  0.00  0.00    +0.000 A 
ATOM      6  C   UNL     1       2.846   3.523  18.011  0.00  0.00    +0.000 A 
ATOM      7  C   UNL     1       1.910   3.027  18.891  0.00  0.00    +0.000 A 
ATOM      8  C   UNL     1       0.690   2.217  18.651  0.00  0.00    +0.000 C 
ATOM      9  N   UNL     1       2.320   3.437  20.138  0.00  0.00    +0.000 N 
ATOM     10  N   UNL     1       3.479   4.151  20.111  0.00  0.00    +0.000 NA
BRANCH   9  11
ATOM     11  C   UNL     1       1.639   3.180  21.408  0.00  0.00    +0.000 C 
ATOM     12  F   UNL     1       1.642   1.852  21.711  0.00  0.00    +0.000 F 
ATOM     13  F   UNL     1       2.261   3.813  22.440  0.00  0.00    +0.000 F 
ENDBRANCH   9  11
ENDBRANCH   2   5
BRANCH   1  16
ATOM     14  C   UNL     1       6.564   4.821  14.273  0.00  0.00    +0.000 C 
ATOM     15  C   UNL     1       5.870   6.091  14.814  0.00  0.00    +0.000 C 
ATOM     16  C   UNL     1       6.210   5.631  16.244  0.00  0.00    +0.000 C 
ATOM     17  C   UNL     1       7.273   4.694  15.639  0.00  0.00    +0.000 C 
BRANCH  14  18
ATOM     18  O   UNL     1       5.713   3.704  13.924  0.00  0.00    +0.000 OA
BRANCH  18  20
ATOM     19  C   UNL     1       4.639   3.423  11.809  0.00  0.00    +0.000 C 
ATOM     20  C   UNL     1       5.894   3.167  12.616  0.00  0.00    +0.000 C 
ENDBRANCH  18  20
ENDBRANCH  14  18
ENDBRANCH   1  16
TORSDOF 5
ENDMDL
