MODEL 1
REMARK VINA RESULT:      -6.5      0.000      0.000
REMARK  Name = 
REMARK  7 active torsions:
REMARK  status: ('A' for Active; 'I' for Inactive)
REMARK    1  A    between atoms: C_1  and  C_2
REMARK    2  A    between atoms: C_2  and  S_3
REMARK    3  A    between atoms: S_3  and  N_6
REMARK    4  A    between atoms: C_9  and  N_10
REMARK    5  A    between atoms: N_10  and  C_11
REMARK    6  A    between atoms: C_11  and  C_12
REMARK    7  A    between atoms: N_15  and  C_16
REMARK                            x       y       z     vdW  Elec       q    Type
REMARK                         _______ _______ _______ _____ _____    ______ ____
ROOT
ATOM      1  N   UNL     1       3.053   4.521  20.109  0.00  0.00    +0.000 NA
ATOM      2  C   UNL     1       4.125   3.662  19.524  0.00  0.00    +0.000 C 
ATOM      3  C   UNL     1       5.293   4.526  19.047  0.00  0.00    +0.000 C 
ATOM      4  C   UNL     1       4.853   5.618  18.056  0.00  0.00    +0.000 C 
ATOM      5  C   UNL     1       3.763   6.449  18.748  0.00  0.00    +0.000 C 
ATOM      6  C   UNL     1       2.586   5.581  19.173  0.00  0.00    +0.000 C 
ENDROOT
BRANCH   1   7
ATOM      7  S   UNL     1       1.785   3.630  20.851  0.00  0.00    +0.000 S 
ATOM      8  O   UNL     1       0.545   4.338  20.612  0.00  0.00    +0.000 OA
ATOM      9  O   UNL     1       2.213   3.289  22.188  0.00  0.00    +0.000 OA
BRANCH   7  11
ATOM     10  C   UNL     1       0.763   2.259  18.716  0.00  0.00    +0.000 C 
ATOM     11  C   UNL     1       1.779   2.156  19.835  0.00  0.00    +0.000 C 
ENDBRANCH   7  11
ENDBRANCH   1   7
BRANCH   4  12
ATOM     12  N   UNL     1       4.447   5.021  16.773  0.00  0.00    +0.000 NA
ATOM     13  H   UNL     1       4.463   5.707  16.020  0.00  0.00    +0.000 HD
BRANCH  12  14
ATOM     14  C   UNL     1       5.266   3.875  16.384  0.00  0.00    +0.000 C 
BRANCH  14  15
ATOM     15  C   UNL     1       6.109   4.268  15.225  0.00  0.00    +0.000 A 
ATOM     16  C   UNL     1       7.197   5.168  15.209  0.00  0.00    +0.000 A 
ATOM     17  N   UNL     1       7.720   5.324  13.989  0.00  0.00    +0.000 NA
ATOM     18  N   UNL     1       6.982   4.503  13.222  0.00  0.00    +0.000 N 
ATOM     19  C   UNL     1       7.285   4.349  11.821  0.00  0.00    +0.000 C 
ATOM     20  C   UNL     1       5.990   3.866  13.908  0.00  0.00    +0.000 A 
ENDBRANCH  14  15
ENDBRANCH  12  14
ENDBRANCH   4  12
TORSDOF 5
ENDMDL
MODEL 2
REMARK VINA RESULT:      -6.4      3.964      6.938
REMARK  Name = 
REMARK  7 active torsions:
REMARK  status: ('A' for Active; 'I' for Inactive)
REMARK    1  A    between atoms: C_1  and  C_2
REMARK    2  A    between atoms: C_2  and  S_3
REMARK    3  A    between atoms: S_3  and  N_6
REMARK    4  A    between atoms: C_9  and  N_10
REMARK    5  A    between atoms: N_10  and  C_11
REMARK    6  A    between atoms: C_11  and  C_12
REMARK    7  A    between atoms: N_15  and  C_16
REMARK                            x       y       z     vdW  Elec       q    Type
REMARK                         _______ _______ _______ _____ _____    ______ ____
ROOT
ATOM      1  N   UNL     1       5.432   4.697  17.289  0.00  0.00    +0.000 NA
ATOM      2  C   UNL     1       5.778   4.425  18.716  0.00  0.00    +0.000 C 
ATOM      3  C   UNL     1       4.637   3.673  19.402  0.00  0.00    +0.000 C 
ATOM      4  C   UNL     1       3.291   4.410  19.288  0.00  0.00    +0.000 C 
ATOM      5  C   UNL     1       3.020   4.634  17.793  0.00  0.00    +0.000 C 
ATOM      6  C   UNL     1       4.142   5.427  17.136  0.00  0.00    +0.000 C 
ENDROOT
BRANCH   1   7
ATOM      7  S   UNL     1       6.729   5.364  16.382  0.00  0.00    +0.000 S 
ATOM      8  O   UNL     1       7.854   4.458  16.481  0.00  0.00    +0.000 OA
ATOM      9  O   UNL     1       6.848   6.757  16.747  0.00  0.00    +0.000 OA
BRANCH   7  11
ATOM     10  C   UNL     1       6.239   3.842  14.163  0.00  0.00    +0.000 C 
ATOM     11  C   UNL     1       6.070   5.239  14.722  0.00  0.00    +0.000 C 
ENDBRANCH   7  11
ENDBRANCH   1   7
BRANCH   4  12
ATOM     12  N   UNL     1       3.301   5.638  20.100  0.00  0.00    +0.000 NA
ATOM     13  H   UNL     1       3.692   6.424  19.584  0.00  0.00    +0.000 HD
BRANCH  12  14
ATOM     14  C   UNL     1       1.979   6.011  20.599  0.00  0.00    +0.000 C 
BRANCH  14  15
ATOM     15  C   UNL     1       1.699   7.412  20.192  0.00  0.00    +0.000 A 
ATOM     16  C   UNL     1       2.026   8.044  18.971  0.00  0.00    +0.000 A 
ATOM     17  N   UNL     1       1.659   9.328  18.940  0.00  0.00    +0.000 NA
ATOM     18  N   UNL     1       1.071   9.517  20.134  0.00  0.00    +0.000 N 
ATOM     19  C   UNL     1       0.483  10.793  20.460  0.00  0.00    +0.000 C 
ATOM     20  C   UNL     1       1.091   8.410  20.930  0.00  0.00    +0.000 A 
ENDBRANCH  14  15
ENDBRANCH  12  14
ENDBRANCH   4  12
TORSDOF 5
ENDMDL
MODEL 3
REMARK VINA RESULT:      -6.4      4.088      6.945
REMARK  Name = 
REMARK  7 active torsions:
REMARK  status: ('A' for Active; 'I' for Inactive)
REMARK    1  A    between atoms: C_1  and  C_2
REMARK    2  A    between atoms: C_2  and  S_3
REMARK    3  A    between atoms: S_3  and  N_6
REMARK    4  A    between atoms: C_9  and  N_10
REMARK    5  A    between atoms: N_10  and  C_11
REMARK    6  A    between atoms: C_11  and  C_12
REMARK    7  A    between atoms: N_15  and  C_16
REMARK                            x       y       z     vdW  Elec       q    Type
REMARK                         _______ _______ _______ _____ _____    ______ ____
ROOT
ATOM      1  N   UNL     1       5.644   4.633  17.554  0.00  0.00    +0.000 NA
ATOM      2  C   UNL     1       5.390   5.078  18.957  0.00  0.00    +0.000 C 
ATOM      3  C   UNL     1       4.319   4.201  19.604  0.00  0.00    +0.000 C 
ATOM      4  C   UNL     1       3.014   4.165  18.789  0.00  0.00    +0.000 C 
ATOM      5  C   UNL     1       3.373   3.689  17.374  0.00  0.00    +0.000 C 
ATOM      6  C   UNL     1       4.406   4.602  16.725  0.00  0.00    +0.000 C 
ENDROOT
BRANCH   1   7
ATOM      7  S   UNL     1       6.969   5.430  16.807  0.00  0.00    +0.000 S 
ATOM      8  O   UNL     1       6.445   6.267  15.747  0.00  0.00    +0.000 OA
ATOM      9  O   UNL     1       7.988   4.439  16.551  0.00  0.00    +0.000 OA
BRANCH   7  11
ATOM     10  C   UNL     1       7.777   7.906  17.642  0.00  0.00    +0.000 C 
ATOM     11  C   UNL     1       7.503   6.501  18.138  0.00  0.00    +0.000 C 
ENDBRANCH   7  11
ENDBRANCH   1   7
BRANCH   4  12
ATOM     12  N   UNL     1       2.332   5.468  18.843  0.00  0.00    +0.000 NA
ATOM     13  H   UNL     1       1.413   5.428  18.405  0.00  0.00    +0.000 HD
BRANCH  12  14
ATOM     14  C   UNL     1       2.185   5.988  20.201  0.00  0.00    +0.000 C 
BRANCH  14  15
ATOM     15  C   UNL     1       1.775   7.414  20.119  0.00  0.00    +0.000 A 
ATOM     16  C   UNL     1       1.171   8.202  21.124  0.00  0.00    +0.000 A 
ATOM     17  N   UNL     1       0.898   9.443  20.712  0.00  0.00    +0.000 NA
ATOM     18  N   UNL     1       1.350   9.462  19.446  0.00  0.00    +0.000 N 
ATOM     19  C   UNL     1       1.282  10.674  18.668  0.00  0.00    +0.000 C 
ATOM     20  C   UNL     1       1.860   8.266  19.035  0.00  0.00    +0.000 A 
ENDBRANCH  14  15
ENDBRANCH  12  14
ENDBRANCH   4  12
TORSDOF 5
ENDMDL
MODEL 4
REMARK VINA RESULT:      -6.3      4.031      6.984
REMARK  Name = 
REMARK  7 active torsions:
REMARK  status: ('A' for Active; 'I' for Inactive)
REMARK    1  A    between atoms: C_1  and  C_2
REMARK    2  A    between atoms: C_2  and  S_3
REMARK    3  A    between atoms: S_3  and  N_6
REMARK    4  A    between atoms: C_9  and  N_10
REMARK    5  A    between atoms: N_10  and  C_11
REMARK    6  A    between atoms: C_11  and  C_12
REMARK    7  A    between atoms: N_15  and  C_16
REMARK                            x       y       z     vdW  Elec       q    Type
REMARK                         _______ _______ _______ _____ _____    ______ ____
ROOT
ATOM      1  N   UNL     1       5.646   4.482  17.518  0.00  0.00    +0.000 NA
ATOM      2  C   UNL     1       5.371   4.904  18.924  0.00  0.00    +0.000 C 
ATOM      3  C   UNL     1       4.353   3.964  19.569  0.00  0.00    +0.000 C 
ATOM      4  C   UNL     1       3.051   3.857  18.757  0.00  0.00    +0.000 C 
ATOM      5  C   UNL     1       3.433   3.410  17.338  0.00  0.00    +0.000 C 
ATOM      6  C   UNL     1       4.410   4.384  16.692  0.00  0.00    +0.000 C 
ENDROOT
BRANCH   1   7
ATOM      7  S   UNL     1       6.922   5.357  16.773  0.00  0.00    +0.000 S 
ATOM      8  O   UNL     1       6.347   6.180  15.728  0.00  0.00    +0.000 OA
ATOM      9  O   UNL     1       7.990   4.424  16.495  0.00  0.00    +0.000 OA
BRANCH   7  11
ATOM     10  C   UNL     1       7.671   7.846  17.624  0.00  0.00    +0.000 C 
ATOM     11  C   UNL     1       7.410   6.437  18.114  0.00  0.00    +0.000 C 
ENDBRANCH   7  11
ENDBRANCH   1   7
BRANCH   4  12
ATOM     12  N   UNL     1       2.296   5.119  18.819  0.00  0.00    +0.000 NA
ATOM     13  H   UNL     1       1.322   4.986  18.552  0.00  0.00    +0.000 HD
BRANCH  12  14
ATOM     14  C   UNL     1       2.341   5.756  20.133  0.00  0.00    +0.000 C 
BRANCH  14  15
ATOM     15  C   UNL     1       1.899   7.167  19.991  0.00  0.00    +0.000 A 
ATOM     16  C   UNL     1       2.032   8.009  18.864  0.00  0.00    +0.000 A 
ATOM     17  N   UNL     1       1.557   9.238  19.080  0.00  0.00    +0.000 NA
ATOM     18  N   UNL     1       1.093   9.181  20.340  0.00  0.00    +0.000 N 
ATOM     19  C   UNL     1       0.440  10.325  20.927  0.00  0.00    +0.000 C 
ATOM     20  C   UNL     1       1.296   7.973  20.938  0.00  0.00    +0.000 A 
ENDBRANCH  14  15
ENDBRANCH  12  14
ENDBRANCH   4  12
TORSDOF 5
ENDMDL
MODEL 5
REMARK VINA RESULT:      -6.3      3.778      6.707
REMARK  Name = 
REMARK  7 active torsions:
REMARK  status: ('A' for Active; 'I' for Inactive)
REMARK    1  A    between atoms: C_1  and  C_2
REMARK    2  A    between atoms: C_2  and  S_3
REMARK    3  A    between atoms: S_3  and  N_6
REMARK    4  A    between atoms: C_9  and  N_10
REMARK    5  A    between atoms: N_10  and  C_11
REMARK    6  A    between atoms: C_11  and  C_12
REMARK    7  A    between atoms: N_15  and  C_16
REMARK                            x       y       z     vdW  Elec       q    Type
REMARK                         _______ _______ _______ _____ _____    ______ ____
ROOT
ATOM      1  N   UNL     1       5.254   4.343  17.272  0.00  0.00    +0.000 NA
ATOM      2  C   UNL     1       5.657   4.118  18.692  0.00  0.00    +0.000 C 
ATOM      3  C   UNL     1       4.529   3.427  19.459  0.00  0.00    +0.000 C 
ATOM      4  C   UNL     1       3.200   4.199  19.375  0.00  0.00    +0.000 C 
ATOM      5  C   UNL     1       2.866   4.372  17.886  0.00  0.00    +0.000 C 
ATOM      6  C   UNL     1       3.979   5.105  17.147  0.00  0.00    +0.000 C 
ENDROOT
BRANCH   1   7
ATOM      7  S   UNL     1       6.525   4.935  16.281  0.00  0.00    +0.000 S 
ATOM      8  O   UNL     1       7.781   4.534  16.881  0.00  0.00    +0.000 OA
ATOM      9  O   UNL     1       6.240   6.320  15.983  0.00  0.00    +0.000 OA
BRANCH   7  11
ATOM     10  C   UNL     1       6.894   4.610  13.590  0.00  0.00    +0.000 C 
ATOM     11  C   UNL     1       6.283   3.948  14.808  0.00  0.00    +0.000 C 
ENDBRANCH   7  11
ENDBRANCH   1   7
BRANCH   4  12
ATOM     12  N   UNL     1       3.281   5.457  20.135  0.00  0.00    +0.000 NA
ATOM     13  H   UNL     1       3.679   6.208  19.574  0.00  0.00    +0.000 HD
BRANCH  12  14
ATOM     14  C   UNL     1       1.992   5.897  20.664  0.00  0.00    +0.000 C 
BRANCH  14  15
ATOM     15  C   UNL     1       1.751   7.294  20.221  0.00  0.00    +0.000 A 
ATOM     16  C   UNL     1       1.117   8.335  20.937  0.00  0.00    +0.000 A 
ATOM     17  N   UNL     1       1.033   9.468  20.234  0.00  0.00    +0.000 NA
ATOM     18  N   UNL     1       1.635   9.163  19.071  0.00  0.00    +0.000 N 
ATOM     19  C   UNL     1       1.795  10.169  18.050  0.00  0.00    +0.000 C 
ATOM     20  C   UNL     1       2.061   7.869  19.004  0.00  0.00    +0.000 A 
ENDBRANCH  14  15
ENDBRANCH  12  14
ENDBRANCH   4  12
TORSDOF 5
ENDMDL
MODEL 6
REMARK VINA RESULT:      -6.3      4.425      7.553
REMARK  Name = 
REMARK  7 active torsions:
REMARK  status: ('A' for Active; 'I' for Inactive)
REMARK    1  A    between atoms: C_1  and  C_2
REMARK    2  A    between atoms: C_2  and  S_3
REMARK    3  A    between atoms: S_3  and  N_6
REMARK    4  A    between atoms: C_9  and  N_10
REMARK    5  A    between atoms: N_10  and  C_11
REMARK    6  A    between atoms: C_11  and  C_12
REMARK    7  A    between atoms: N_15  and  C_16
REMARK                            x       y       z     vdW  Elec       q    Type
REMARK                         _______ _______ _______ _____ _____    ______ ____
ROOT
ATOM      1  N   UNL     1       5.748   4.985  17.824  0.00  0.00    +0.000 NA
ATOM      2  C   UNL     1       5.604   4.961  19.311  0.00  0.00    +0.000 C 
ATOM      3  C   UNL     1       4.203   4.488  19.699  0.00  0.00    +0.000 C 
ATOM      4  C   UNL     1       3.094   5.333  19.047  0.00  0.00    +0.000 C 
ATOM      5  C   UNL     1       3.319   5.289  17.529  0.00  0.00    +0.000 C 
ATOM      6  C   UNL     1       4.702   5.809  17.156  0.00  0.00    +0.000 C 
ENDROOT
BRANCH   1   7
ATOM      7  S   UNL     1       7.347   5.314  17.292  0.00  0.00    +0.000 S 
ATOM      8  O   UNL     1       7.269   5.840  15.945  0.00  0.00    +0.000 OA
ATOM      9  O   UNL     1       8.159   4.161  17.605  0.00  0.00    +0.000 OA
BRANCH   7  11
ATOM     10  C   UNL     1       7.785   7.991  17.651  0.00  0.00    +0.000 C 
ATOM     11  C   UNL     1       7.787   6.664  18.382  0.00  0.00    +0.000 C 
ENDBRANCH   7  11
ENDBRANCH   1   7
BRANCH   4  12
ATOM     12  N   UNL     1       3.067   6.687  19.624  0.00  0.00    +0.000 NA
ATOM     13  H   UNL     1       3.993   7.109  19.632  0.00  0.00    +0.000 HD
BRANCH  12  14
ATOM     14  C   UNL     1       2.144   7.589  18.938  0.00  0.00    +0.000 C 
BRANCH  14  15
ATOM     15  C   UNL     1       1.511   8.476  19.947  0.00  0.00    +0.000 A 
ATOM     16  C   UNL     1       1.276   8.206  21.314  0.00  0.00    +0.000 A 
ATOM     17  N   UNL     1       0.654   9.210  21.939  0.00  0.00    +0.000 NA
ATOM     18  N   UNL     1       0.509  10.139  20.977  0.00  0.00    +0.000 N 
ATOM     19  C   UNL     1      -0.083  11.417  21.285  0.00  0.00    +0.000 C 
ATOM     20  C   UNL     1       0.983   9.739  19.762  0.00  0.00    +0.000 A 
ENDBRANCH  14  15
ENDBRANCH  12  14
ENDBRANCH   4  12
TORSDOF 5
ENDMDL
MODEL 7
REMARK VINA RESULT:      -6.2      3.820      6.686
REMARK  Name = 
REMARK  7 active torsions:
REMARK  status: ('A' for Active; 'I' for Inactive)
REMARK    1  A    between atoms: C_1  and  C_2
REMARK    2  A    between atoms: C_2  and  S_3
REMARK    3  A    between atoms: S_3  and  N_6
REMARK    4  A    between atoms: C_9  and  N_10
REMARK    5  A    between atoms: N_10  and  C_11
REMARK    6  A    between atoms: C_11  and  C_12
REMARK    7  A    between atoms: N_15  and  C_16
REMARK                            x       y       z     vdW  Elec       q    Type
REMARK                         _______ _______ _______ _____ _____    ______ ____
ROOT
ATOM      1  N   UNL     1       5.681   4.686  17.065  0.00  0.00    +0.000 NA
ATOM      2  C   UNL     1       5.527   5.701  18.150  0.00  0.00    +0.000 C 
ATOM      3  C   UNL     1       5.154   5.017  19.464  0.00  0.00    +0.000 C 
ATOM      4  C   UNL     1       3.893   4.145  19.338  0.00  0.00    +0.000 C 
ATOM      5  C   UNL     1       4.149   3.133  18.212  0.00  0.00    +0.000 C 
ATOM      6  C   UNL     1       4.472   3.832  16.898  0.00  0.00    +0.000 C 
ENDROOT
BRANCH   1   7
ATOM      7  S   UNL     1       6.291   5.335  15.596  0.00  0.00    +0.000 S 
ATOM      8  O   UNL     1       7.634   5.816  15.846  0.00  0.00    +0.000 OA
ATOM      9  O   UNL     1       5.272   6.197  15.041  0.00  0.00    +0.000 OA
BRANCH   7  11
ATOM     10  C   UNL     1       5.623   3.971  13.321  0.00  0.00    +0.000 C 
ATOM     11  C   UNL     1       6.417   3.849  14.606  0.00  0.00    +0.000 C 
ENDBRANCH   7  11
ENDBRANCH   1   7
BRANCH   4  12
ATOM     12  N   UNL     1       2.698   4.984  19.148  0.00  0.00    +0.000 NA
ATOM     13  H   UNL     1       1.915   4.443  18.785  0.00  0.00    +0.000 HD
BRANCH  12  14
ATOM     14  C   UNL     1       2.273   5.669  20.367  0.00  0.00    +0.000 C 
BRANCH  14  15
ATOM     15  C   UNL     1       1.952   7.079  20.029  0.00  0.00    +0.000 A 
ATOM     16  C   UNL     1       1.324   8.046  20.845  0.00  0.00    +0.000 A 
ATOM     17  N   UNL     1       1.153   9.216  20.222  0.00  0.00    +0.000 NA
ATOM     18  N   UNL     1       1.694   9.009  19.009  0.00  0.00    +0.000 N 
ATOM     19  C   UNL     1       1.751  10.081  18.046  0.00  0.00    +0.000 C 
ATOM     20  C   UNL     1       2.163   7.740  18.834  0.00  0.00    +0.000 A 
ENDBRANCH  14  15
ENDBRANCH  12  14
ENDBRANCH   4  12
TORSDOF 5
ENDMDL
MODEL 8
REMARK VINA RESULT:      -6.2      1.421      1.769
REMARK  Name = 
REMARK  7 active torsions:
REMARK  status: ('A' for Active; 'I' for Inactive)
REMARK    1  A    between atoms: C_1  and  C_2
REMARK    2  A    between atoms: C_2  and  S_3
REMARK    3  A    between atoms: S_3  and  N_6
REMARK    4  A    between atoms: C_9  and  N_10
REMARK    5  A    between atoms: N_10  and  C_11
REMARK    6  A    between atoms: C_11  and  C_12
REMARK    7  A    between atoms: N_15  and  C_16
REMARK                            x       y       z     vdW  Elec       q    Type
REMARK                         _______ _______ _______ _____ _____    ______ ____
ROOT
ATOM      1  N   UNL     1       2.907   4.701  18.967  0.00  0.00    +0.000 NA
ATOM      2  C   UNL     1       4.253   4.090  18.754  0.00  0.00    +0.000 C 
ATOM      3  C   UNL     1       5.325   5.177  18.703  0.00  0.00    +0.000 C 
ATOM      4  C   UNL     1       5.028   6.250  17.640  0.00  0.00    +0.000 C 
ATOM      5  C   UNL     1       3.637   6.823  17.947  0.00  0.00    +0.000 C 
ATOM      6  C   UNL     1       2.573   5.733  17.946  0.00  0.00    +0.000 C 
ENDROOT
BRANCH   1   7
ATOM      7  S   UNL     1       1.662   3.549  19.234  0.00  0.00    +0.000 S 
ATOM      8  O   UNL     1       1.366   2.911  17.968  0.00  0.00    +0.000 OA
ATOM      9  O   UNL     1       0.629   4.192  20.013  0.00  0.00    +0.000 OA
BRANCH   7  11
ATOM     10  C   UNL     1       2.407   2.707  21.728  0.00  0.00    +0.000 C 
ATOM     11  C   UNL     1       2.525   2.361  20.258  0.00  0.00    +0.000 C 
ENDBRANCH   7  11
ENDBRANCH   1   7
BRANCH   4  12
ATOM     12  N   UNL     1       5.176   5.693  16.285  0.00  0.00    +0.000 NA
ATOM     13  H   UNL     1       4.758   6.301  15.583  0.00  0.00    +0.000 HD
BRANCH  12  14
ATOM     14  C   UNL     1       6.566   5.433  15.916  0.00  0.00    +0.000 C 
BRANCH  14  15
ATOM     15  C   UNL     1       6.588   4.809  14.568  0.00  0.00    +0.000 A 
ATOM     16  C   UNL     1       7.531   5.007  13.535  0.00  0.00    +0.000 A 
ATOM     17  N   UNL     1       7.240   4.315  12.430  0.00  0.00    +0.000 NA
ATOM     18  N   UNL     1       6.119   3.651  12.760  0.00  0.00    +0.000 N 
ATOM     19  C   UNL     1       5.516   2.734  11.825  0.00  0.00    +0.000 C 
ATOM     20  C   UNL     1       5.674   3.930  14.019  0.00  0.00    +0.000 A 
ENDBRANCH  14  15
ENDBRANCH  12  14
ENDBRANCH   4  12
TORSDOF 5
ENDMDL
MODEL 9
REMARK VINA RESULT:      -6.2      4.277      7.405
REMARK  Name = 
REMARK  7 active torsions:
REMARK  status: ('A' for Active; 'I' for Inactive)
REMARK    1  A    between atoms: C_1  and  C_2
REMARK    2  A    between atoms: C_2  and  S_3
REMARK    3  A    between atoms: S_3  and  N_6
REMARK    4  A    between atoms: C_9  and  N_10
REMARK    5  A    between atoms: N_10  and  C_11
REMARK    6  A    between atoms: C_11  and  C_12
REMARK    7  A    between atoms: N_15  and  C_16
REMARK                            x       y       z     vdW  Elec       q    Type
REMARK                         _______ _______ _______ _____ _____    ______ ____
ROOT
ATOM      1  N   UNL     1       5.690   4.920  18.127  0.00  0.00    +0.000 NA
ATOM      2  C   UNL     1       5.255   4.934  19.555  0.00  0.00    +0.000 C 
ATOM      3  C   UNL     1       3.806   4.463  19.671  0.00  0.00    +0.000 C 
ATOM      4  C   UNL     1       2.847   5.283  18.790  0.00  0.00    +0.000 C 
ATOM      5  C   UNL     1       3.368   5.201  17.348  0.00  0.00    +0.000 C 
ATOM      6  C   UNL     1       4.797   5.720  17.243  0.00  0.00    +0.000 C 
ENDROOT
BRANCH   1   7
ATOM      7  S   UNL     1       7.363   5.245  17.913  0.00  0.00    +0.000 S 
ATOM      8  O   UNL     1       7.863   4.352  16.888  0.00  0.00    +0.000 OA
ATOM      9  O   UNL     1       7.969   5.302  19.224  0.00  0.00    +0.000 OA
BRANCH   7  11
ATOM     10  C   UNL     1       8.056   7.887  18.070  0.00  0.00    +0.000 C 
ATOM     11  C   UNL     1       7.294   6.893  17.218  0.00  0.00    +0.000 C 
ENDBRANCH   7  11
ENDBRANCH   1   7
BRANCH   4  12
ATOM     12  N   UNL     1       2.704   6.652  19.313  0.00  0.00    +0.000 NA
ATOM     13  H   UNL     1       2.353   7.290  18.602  0.00  0.00    +0.000 HD
BRANCH  12  14
ATOM     14  C   UNL     1       1.839   6.734  20.488  0.00  0.00    +0.000 C 
BRANCH  14  15
ATOM     15  C   UNL     1       1.481   8.158  20.713  0.00  0.00    +0.000 A 
ATOM     16  C   UNL     1       1.327   8.830  21.946  0.00  0.00    +0.000 A 
ATOM     17  N   UNL     1       0.967  10.108  21.796  0.00  0.00    +0.000 NA
ATOM     18  N   UNL     1       0.911  10.266  20.462  0.00  0.00    +0.000 N 
ATOM     19  C   UNL     1       0.602  11.555  19.894  0.00  0.00    +0.000 C 
ATOM     20  C   UNL     1       1.186   9.124  19.769  0.00  0.00    +0.000 A 
ENDBRANCH  14  15
ENDBRANCH  12  14
ENDBRANCH   4  12
TORSDOF 5
ENDMDL
