MODEL 1
REMARK VINA RESULT:      -7.9      0.000      0.000
REMARK  Name = 
REMARK  7 active torsions:
REMARK  status: ('A' for Active; 'I' for Inactive)
REMARK    1  A    between atoms: C_2  and  C_3
REMARK    2  A    between atoms: C_11  and  C_13
REMARK    3  A    between atoms: C_13  and  C_14
REMARK    4  A    between atoms: C_14  and  C_15
REMARK    5  A    between atoms: C_16  and  C_17
REMARK    6  A    between atoms: C_17  and  C_18
REMARK    7  A    between atoms: C_17  and  C_21
REMARK                            x       y       z     vdW  Elec       q    Type
REMARK                         _______ _______ _______ _____ _____    ______ ____
ROOT
ATOM      1  C   UNL     1       3.347   4.021  19.353  0.00  0.00    +0.000 C 
ATOM      2  C   UNL     1       3.226   2.532  19.788  0.00  0.00    +0.000 C 
ATOM      3  C   UNL     1       2.934   2.489  21.311  0.00  0.00    +0.000 C 
ATOM      4  C   UNL     1       1.649   3.277  21.630  0.00  0.00    +0.000 C 
ATOM      5  C   UNL     1       1.071   3.851  20.329  0.00  0.00    +0.000 C 
ATOM      6  C   UNL     1       0.765   2.706  19.347  0.00  0.00    +0.000 C 
ATOM      7  C   UNL     1       2.024   1.874  19.087  0.00  0.00    +0.000 C 
ATOM      8  N   UNL     1       2.109   4.734  19.769  0.00  0.00    +0.000 N 
ATOM      9  C   UNL     1       2.192   6.109  19.933  0.00  0.00    +0.000 C 
ATOM     10  O   UNL     1       3.204   6.730  19.597  0.00  0.00    +0.000 OA
ENDROOT
BRANCH   1  12
ATOM     11  O   UNL     1       2.664   4.101  17.019  0.00  0.00    +0.000 OA
ATOM     12  C   UNL     1       3.595   4.181  17.824  0.00  0.00    +0.000 C 
ATOM     13  N   UNL     1       4.896   4.357  17.380  0.00  0.00    +0.000 N 
ATOM     14  C   UNL     1       5.152   4.650  15.978  0.00  0.00    +0.000 C 
ATOM     15  C   UNL     1       6.645   4.430  15.811  0.00  0.00    +0.000 C 
ATOM     16  C   UNL     1       7.195   4.870  17.162  0.00  0.00    +0.000 C 
ATOM     17  C   UNL     1       6.128   4.401  18.153  0.00  0.00    +0.000 C 
ENDBRANCH   1  12
BRANCH   9  18
ATOM     18  C   UNL     1       1.020   6.865  20.549  0.00  0.00    +0.000 C 
BRANCH  18  19
ATOM     19  C   UNL     1       1.496   8.210  21.107  0.00  0.00    +0.000 C 
BRANCH  19  20
ATOM     20  C   UNL     1       0.697   9.360  20.548  0.00  0.00    +0.000 C 
ATOM     21  C   UNL     1       0.950   9.934  19.356  0.00  0.00    +0.000 C 
BRANCH  21  22
ATOM     22  C   UNL     1       0.211  11.093  18.699  0.00  0.00    +0.000 C 
BRANCH  22  23
ATOM     23  C   UNL     1      -1.273  10.784  18.574  0.00  0.00    +0.000 C 
ATOM     24  C   UNL     1      -2.124  11.306  17.436  0.00  0.00    +0.000 C 
ATOM     25  C   UNL     1      -1.759   9.852  17.486  0.00  0.00    +0.000 C 
ENDBRANCH  22  23
BRANCH  22  26
ATOM     26  C   UNL     1       0.420  12.453  19.338  0.00  0.00    +0.000 C 
ATOM     27  C   UNL     1       1.798  12.912  19.760  0.00  0.00    +0.000 C 
ATOM     28  C   UNL     1       1.136  13.546  18.573  0.00  0.00    +0.000 C 
ENDBRANCH  22  26
ENDBRANCH  21  22
ENDBRANCH  19  20
ENDBRANCH  18  19
ENDBRANCH   9  18
TORSDOF 7
ENDMDL
MODEL 2
REMARK VINA RESULT:      -7.8      0.522      1.957
REMARK  Name = 
REMARK  7 active torsions:
REMARK  status: ('A' for Active; 'I' for Inactive)
REMARK    1  A    between atoms: C_2  and  C_3
REMARK    2  A    between atoms: C_11  and  C_13
REMARK    3  A    between atoms: C_13  and  C_14
REMARK    4  A    between atoms: C_14  and  C_15
REMARK    5  A    between atoms: C_16  and  C_17
REMARK    6  A    between atoms: C_17  and  C_18
REMARK    7  A    between atoms: C_17  and  C_21
REMARK                            x       y       z     vdW  Elec       q    Type
REMARK                         _______ _______ _______ _____ _____    ______ ____
ROOT
ATOM      1  C   UNL     1       3.367   4.029  19.372  0.00  0.00    +0.000 C 
ATOM      2  C   UNL     1       3.227   2.536  19.788  0.00  0.00    +0.000 C 
ATOM      3  C   UNL     1       2.961   2.475  21.315  0.00  0.00    +0.000 C 
ATOM      4  C   UNL     1       1.695   3.281  21.668  0.00  0.00    +0.000 C 
ATOM      5  C   UNL     1       1.105   3.884  20.385  0.00  0.00    +0.000 C 
ATOM      6  C   UNL     1       0.762   2.759  19.392  0.00  0.00    +0.000 C 
ATOM      7  C   UNL     1       2.001   1.909  19.098  0.00  0.00    +0.000 C 
ATOM      8  N   UNL     1       2.149   4.757  19.820  0.00  0.00    +0.000 N 
ATOM      9  C   UNL     1       2.259   6.128  20.002  0.00  0.00    +0.000 C 
ATOM     10  O   UNL     1       3.277   6.735  19.657  0.00  0.00    +0.000 OA
ENDROOT
BRANCH   1  12
ATOM     11  O   UNL     1       2.644   4.161  17.052  0.00  0.00    +0.000 OA
ATOM     12  C   UNL     1       3.591   4.206  17.841  0.00  0.00    +0.000 C 
ATOM     13  N   UNL     1       4.888   4.359  17.376  0.00  0.00    +0.000 N 
ATOM     14  C   UNL     1       5.126   4.668  15.974  0.00  0.00    +0.000 C 
ATOM     15  C   UNL     1       6.610   4.415  15.777  0.00  0.00    +0.000 C 
ATOM     16  C   UNL     1       7.194   4.821  17.124  0.00  0.00    +0.000 C 
ATOM     17  C   UNL     1       6.134   4.362  18.127  0.00  0.00    +0.000 C 
ENDBRANCH   1  12
BRANCH   9  18
ATOM     18  C   UNL     1       1.112   6.895  20.649  0.00  0.00    +0.000 C 
BRANCH  18  19
ATOM     19  C   UNL     1       1.488   8.371  20.805  0.00  0.00    +0.000 C 
BRANCH  19  20
ATOM     20  C   UNL     1       0.342   9.281  20.439  0.00  0.00    +0.000 C 
ATOM     21  C   UNL     1       0.276   9.967  19.282  0.00  0.00    +0.000 C 
BRANCH  21  22
ATOM     22  C   UNL     1      -0.826  10.908  18.813  0.00  0.00    +0.000 C 
BRANCH  22  23
ATOM     23  C   UNL     1      -0.287  12.318  18.622  0.00  0.00    +0.000 C 
ATOM     24  C   UNL     1      -0.816  13.507  19.393  0.00  0.00    +0.000 C 
ATOM     25  C   UNL     1       0.543  12.959  19.712  0.00  0.00    +0.000 C 
ENDBRANCH  22  23
BRANCH  22  26
ATOM     26  C   UNL     1      -1.595  10.461  17.584  0.00  0.00    +0.000 C 
ATOM     27  C   UNL     1      -2.899   9.706  17.712  0.00  0.00    +0.000 C 
ATOM     28  C   UNL     1      -2.907  11.126  17.229  0.00  0.00    +0.000 C 
ENDBRANCH  22  26
ENDBRANCH  21  22
ENDBRANCH  19  20
ENDBRANCH  18  19
ENDBRANCH   9  18
TORSDOF 7
ENDMDL
MODEL 3
REMARK VINA RESULT:      -7.7      1.025      1.187
REMARK  Name = 
REMARK  7 active torsions:
REMARK  status: ('A' for Active; 'I' for Inactive)
REMARK    1  A    between atoms: C_2  and  C_3
REMARK    2  A    between atoms: C_11  and  C_13
REMARK    3  A    between atoms: C_13  and  C_14
REMARK    4  A    between atoms: C_14  and  C_15
REMARK    5  A    between atoms: C_16  and  C_17
REMARK    6  A    between atoms: C_17  and  C_18
REMARK    7  A    between atoms: C_17  and  C_21
REMARK                            x       y       z     vdW  Elec       q    Type
REMARK                         _______ _______ _______ _____ _____    ______ ____
ROOT
ATOM      1  C   UNL     1       3.564   3.805  19.145  0.00  0.00    +0.000 C 
ATOM      2  C   UNL     1       3.132   2.440  19.755  0.00  0.00    +0.000 C 
ATOM      3  C   UNL     1       2.864   2.643  21.270  0.00  0.00    +0.000 C 
ATOM      4  C   UNL     1       1.784   3.723  21.480  0.00  0.00    +0.000 C 
ATOM      5  C   UNL     1       1.321   4.248  20.114  0.00  0.00    +0.000 C 
ATOM      6  C   UNL     1       0.759   3.088  19.274  0.00  0.00    +0.000 C 
ATOM      7  C   UNL     1       1.804   1.979  19.128  0.00  0.00    +0.000 C 
ATOM      8  N   UNL     1       2.515   4.813  19.461  0.00  0.00    +0.000 N 
ATOM      9  C   UNL     1       2.896   6.147  19.459  0.00  0.00    +0.000 C 
ATOM     10  O   UNL     1       4.013   6.489  19.060  0.00  0.00    +0.000 OA
ENDROOT
BRANCH   1  12
ATOM     11  O   UNL     1       2.932   3.327  16.844  0.00  0.00    +0.000 OA
ATOM     12  C   UNL     1       3.813   3.723  17.610  0.00  0.00    +0.000 C 
ATOM     13  N   UNL     1       5.070   4.051  17.126  0.00  0.00    +0.000 N 
ATOM     14  C   UNL     1       5.301   4.123  15.692  0.00  0.00    +0.000 C 
ATOM     15  C   UNL     1       6.813   4.154  15.552  0.00  0.00    +0.000 C 
ATOM     16  C   UNL     1       7.241   4.929  16.792  0.00  0.00    +0.000 C 
ATOM     17  C   UNL     1       6.255   4.462  17.864  0.00  0.00    +0.000 C 
ENDBRANCH   1  12
BRANCH   9  18
ATOM     18  C   UNL     1       1.926   7.207  19.969  0.00  0.00    +0.000 C 
BRANCH  18  19
ATOM     19  C   UNL     1       1.993   8.452  19.082  0.00  0.00    +0.000 C 
BRANCH  19  20
ATOM     20  C   UNL     1       0.899   9.436  19.417  0.00  0.00    +0.000 C 
ATOM     21  C   UNL     1       0.125  10.033  18.491  0.00  0.00    +0.000 C 
BRANCH  21  22
ATOM     22  C   UNL     1      -1.000  11.035  18.717  0.00  0.00    +0.000 C 
BRANCH  22  23
ATOM     23  C   UNL     1      -2.307  10.518  18.132  0.00  0.00    +0.000 C 
ATOM     24  C   UNL     1      -2.989  11.173  16.950  0.00  0.00    +0.000 C 
ATOM     25  C   UNL     1      -2.310   9.847  16.776  0.00  0.00    +0.000 C 
ENDBRANCH  22  23
BRANCH  22  26
ATOM     26  C   UNL     1      -1.201  11.487  20.151  0.00  0.00    +0.000 C 
ATOM     27  C   UNL     1      -0.271  12.497  20.787  0.00  0.00    +0.000 C 
ATOM     28  C   UNL     1      -1.675  12.896  20.440  0.00  0.00    +0.000 C 
ENDBRANCH  22  26
ENDBRANCH  21  22
ENDBRANCH  19  20
ENDBRANCH  18  19
ENDBRANCH   9  18
TORSDOF 7
ENDMDL
MODEL 4
REMARK VINA RESULT:      -7.7      1.765      4.614
REMARK  Name = 
REMARK  7 active torsions:
REMARK  status: ('A' for Active; 'I' for Inactive)
REMARK    1  A    between atoms: C_2  and  C_3
REMARK    2  A    between atoms: C_11  and  C_13
REMARK    3  A    between atoms: C_13  and  C_14
REMARK    4  A    between atoms: C_14  and  C_15
REMARK    5  A    between atoms: C_16  and  C_17
REMARK    6  A    between atoms: C_17  and  C_18
REMARK    7  A    between atoms: C_17  and  C_21
REMARK                            x       y       z     vdW  Elec       q    Type
REMARK                         _______ _______ _______ _____ _____    ______ ____
ROOT
ATOM      1  C   UNL     1       4.235   4.719  17.556  0.00  0.00    +0.000 C 
ATOM      2  C   UNL     1       5.394   4.200  16.657  0.00  0.00    +0.000 C 
ATOM      3  C   UNL     1       5.299   4.906  15.279  0.00  0.00    +0.000 C 
ATOM      4  C   UNL     1       5.366   6.436  15.458  0.00  0.00    +0.000 C 
ATOM      5  C   UNL     1       5.505   6.765  16.951  0.00  0.00    +0.000 C 
ATOM      6  C   UNL     1       6.779   6.106  17.511  0.00  0.00    +0.000 C 
ATOM      7  C   UNL     1       6.751   4.595  17.266  0.00  0.00    +0.000 C 
ATOM      8  N   UNL     1       4.314   6.204  17.612  0.00  0.00    +0.000 N 
ATOM      9  C   UNL     1       3.149   6.892  17.924  0.00  0.00    +0.000 C 
ATOM     10  O   UNL     1       2.136   6.290  18.291  0.00  0.00    +0.000 OA
ENDROOT
BRANCH   1  12
ATOM     11  O   UNL     1       5.315   4.048  19.631  0.00  0.00    +0.000 OA
ATOM     12  C   UNL     1       4.265   4.105  18.987  0.00  0.00    +0.000 C 
ATOM     13  N   UNL     1       3.094   3.570  19.501  0.00  0.00    +0.000 N 
ATOM     14  C   UNL     1       3.048   3.117  20.883  0.00  0.00    +0.000 C 
ATOM     15  C   UNL     1       1.770   2.301  20.972  0.00  0.00    +0.000 C 
ATOM     16  C   UNL     1       0.847   3.031  20.005  0.00  0.00    +0.000 C 
ATOM     17  C   UNL     1       1.783   3.471  18.878  0.00  0.00    +0.000 C 
ENDBRANCH   1  12
BRANCH   9  18
ATOM     18  C   UNL     1       3.115   8.410  17.799  0.00  0.00    +0.000 C 
BRANCH  18  19
ATOM     19  C   UNL     1       1.675   8.890  17.601  0.00  0.00    +0.000 C 
BRANCH  19  20
ATOM     20  C   UNL     1       1.232   9.802  18.718  0.00  0.00    +0.000 C 
ATOM     21  C   UNL     1       0.026   9.722  19.311  0.00  0.00    +0.000 C 
BRANCH  21  22
ATOM     22  C   UNL     1      -0.522  10.585  20.440  0.00  0.00    +0.000 C 
BRANCH  22  23
ATOM     23  C   UNL     1       0.306  10.409  21.704  0.00  0.00    +0.000 C 
ATOM     24  C   UNL     1      -0.277   9.880  22.997  0.00  0.00    +0.000 C 
ATOM     25  C   UNL     1       0.647   9.017  22.191  0.00  0.00    +0.000 C 
ENDBRANCH  22  23
BRANCH  22  26
ATOM     26  C   UNL     1      -0.693  12.058  20.118  0.00  0.00    +0.000 C 
ATOM     27  C   UNL     1      -1.254  12.504  18.786  0.00  0.00    +0.000 C 
ATOM     28  C   UNL     1      -2.082  12.655  20.028  0.00  0.00    +0.000 C 
ENDBRANCH  22  26
ENDBRANCH  21  22
ENDBRANCH  19  20
ENDBRANCH  18  19
ENDBRANCH   9  18
TORSDOF 7
ENDMDL
MODEL 5
REMARK VINA RESULT:      -7.7      1.395      2.161
REMARK  Name = 
REMARK  7 active torsions:
REMARK  status: ('A' for Active; 'I' for Inactive)
REMARK    1  A    between atoms: C_2  and  C_3
REMARK    2  A    between atoms: C_11  and  C_13
REMARK    3  A    between atoms: C_13  and  C_14
REMARK    4  A    between atoms: C_14  and  C_15
REMARK    5  A    between atoms: C_16  and  C_17
REMARK    6  A    between atoms: C_17  and  C_18
REMARK    7  A    between atoms: C_17  and  C_21
REMARK                            x       y       z     vdW  Elec       q    Type
REMARK                         _______ _______ _______ _____ _____    ______ ____
ROOT
ATOM      1  C   UNL     1       3.565   3.940  18.885  0.00  0.00    +0.000 C 
ATOM      2  C   UNL     1       3.168   2.608  19.585  0.00  0.00    +0.000 C 
ATOM      3  C   UNL     1       3.023   2.878  21.105  0.00  0.00    +0.000 C 
ATOM      4  C   UNL     1       1.974   3.981  21.353  0.00  0.00    +0.000 C 
ATOM      5  C   UNL     1       1.411   4.455  20.006  0.00  0.00    +0.000 C 
ATOM      6  C   UNL     1       0.771   3.269  19.264  0.00  0.00    +0.000 C 
ATOM      7  C   UNL     1       1.790   2.140  19.084  0.00  0.00    +0.000 C 
ATOM      8  N   UNL     1       2.555   4.975  19.238  0.00  0.00    +0.000 N 
ATOM      9  C   UNL     1       2.949   6.303  19.149  0.00  0.00    +0.000 C 
ATOM     10  O   UNL     1       4.034   6.612  18.649  0.00  0.00    +0.000 OA
ENDROOT
BRANCH   1  12
ATOM     11  O   UNL     1       2.727   3.442  16.654  0.00  0.00    +0.000 OA
ATOM     12  C   UNL     1       3.692   3.790  17.339  0.00  0.00    +0.000 C 
ATOM     13  N   UNL     1       4.930   4.001  16.754  0.00  0.00    +0.000 N 
ATOM     14  C   UNL     1       5.057   4.009  15.305  0.00  0.00    +0.000 C 
ATOM     15  C   UNL     1       6.552   3.915  15.055  0.00  0.00    +0.000 C 
ATOM     16  C   UNL     1       7.131   4.691  16.231  0.00  0.00    +0.000 C 
ATOM     17  C   UNL     1       6.195   4.338  17.389  0.00  0.00    +0.000 C 
ENDBRANCH   1  12
BRANCH   9  18
ATOM     18  C   UNL     1       2.034   7.396  19.687  0.00  0.00    +0.000 C 
BRANCH  18  19
ATOM     19  C   UNL     1       1.820   8.475  18.623  0.00  0.00    +0.000 C 
BRANCH  19  20
ATOM     20  C   UNL     1       1.148   9.698  19.195  0.00  0.00    +0.000 C 
ATOM     21  C   UNL     1       0.090   9.647  20.027  0.00  0.00    +0.000 C 
BRANCH  21  22
ATOM     22  C   UNL     1      -0.660  10.812  20.659  0.00  0.00    +0.000 C 
BRANCH  22  23
ATOM     23  C   UNL     1      -0.284  10.964  22.125  0.00  0.00    +0.000 C 
ATOM     24  C   UNL     1      -1.242  10.645  23.253  0.00  0.00    +0.000 C 
ATOM     25  C   UNL     1      -0.084   9.732  22.981  0.00  0.00    +0.000 C 
ENDBRANCH  22  23
BRANCH  22  26
ATOM     26  C   UNL     1      -0.539  12.142  19.939  0.00  0.00    +0.000 C 
ATOM     27  C   UNL     1      -1.220  12.371  18.607  0.00  0.00    +0.000 C 
ATOM     28  C   UNL     1      -1.741  13.058  19.835  0.00  0.00    +0.000 C 
ENDBRANCH  22  26
ENDBRANCH  21  22
ENDBRANCH  19  20
ENDBRANCH  18  19
ENDBRANCH   9  18
TORSDOF 7
ENDMDL
MODEL 6
REMARK VINA RESULT:      -7.5      1.382      1.801
REMARK  Name = 
REMARK  7 active torsions:
REMARK  status: ('A' for Active; 'I' for Inactive)
REMARK    1  A    between atoms: C_2  and  C_3
REMARK    2  A    between atoms: C_11  and  C_13
REMARK    3  A    between atoms: C_13  and  C_14
REMARK    4  A    between atoms: C_14  and  C_15
REMARK    5  A    between atoms: C_16  and  C_17
REMARK    6  A    between atoms: C_17  and  C_18
REMARK    7  A    between atoms: C_17  and  C_21
REMARK                            x       y       z     vdW  Elec       q    Type
REMARK                         _______ _______ _______ _____ _____    ______ ____
ROOT
ATOM      1  C   UNL     1       3.385   3.999  19.372  0.00  0.00    +0.000 C 
ATOM      2  C   UNL     1       3.251   2.508  19.794  0.00  0.00    +0.000 C 
ATOM      3  C   UNL     1       2.954   2.454  21.316  0.00  0.00    +0.000 C 
ATOM      4  C   UNL     1       1.674   3.250  21.638  0.00  0.00    +0.000 C 
ATOM      5  C   UNL     1       1.105   3.839  20.340  0.00  0.00    +0.000 C 
ATOM      6  C   UNL     1       0.792   2.705  19.348  0.00  0.00    +0.000 C 
ATOM      7  C   UNL     1       2.045   1.865  19.085  0.00  0.00    +0.000 C 
ATOM      8  N   UNL     1       2.151   4.718  19.789  0.00  0.00    +0.000 N 
ATOM      9  C   UNL     1       2.245   6.092  19.964  0.00  0.00    +0.000 C 
ATOM     10  O   UNL     1       3.264   6.706  19.636  0.00  0.00    +0.000 OA
ENDROOT
BRANCH   1  12
ATOM     11  O   UNL     1       2.713   4.076  17.033  0.00  0.00    +0.000 OA
ATOM     12  C   UNL     1       3.639   4.168  17.844  0.00  0.00    +0.000 C 
ATOM     13  N   UNL     1       4.939   4.368  17.408  0.00  0.00    +0.000 N 
ATOM     14  C   UNL     1       5.198   4.670  16.008  0.00  0.00    +0.000 C 
ATOM     15  C   UNL     1       6.695   4.475  15.849  0.00  0.00    +0.000 C 
ATOM     16  C   UNL     1       7.230   4.919  17.205  0.00  0.00    +0.000 C 
ATOM     17  C   UNL     1       6.166   4.429  18.188  0.00  0.00    +0.000 C 
ENDBRANCH   1  12
BRANCH   9  18
ATOM     18  C   UNL     1       1.078   6.852  20.583  0.00  0.00    +0.000 C 
BRANCH  18  19
ATOM     19  C   UNL     1       1.564   8.186  21.156  0.00  0.00    +0.000 C 
BRANCH  19  20
ATOM     20  C   UNL     1       0.762   9.348  20.625  0.00  0.00    +0.000 C 
ATOM     21  C   UNL     1       0.403  10.409  21.372  0.00  0.00    +0.000 C 
BRANCH  21  22
ATOM     22  C   UNL     1      -0.402  11.628  20.941  0.00  0.00    +0.000 C 
BRANCH  22  23
ATOM     23  C   UNL     1      -1.047  12.301  22.143  0.00  0.00    +0.000 C 
ATOM     24  C   UNL     1      -2.547  12.369  22.335  0.00  0.00    +0.000 C 
ATOM     25  C   UNL     1      -1.727  11.459  23.201  0.00  0.00    +0.000 C 
ENDBRANCH  22  23
BRANCH  22  26
ATOM     26  C   UNL     1       0.345  12.646  20.099  0.00  0.00    +0.000 C 
ATOM     27  C   UNL     1       0.964  12.257  18.774  0.00  0.00    +0.000 C 
ATOM     28  C   UNL     1      -0.253  13.135  18.797  0.00  0.00    +0.000 C 
ENDBRANCH  22  26
ENDBRANCH  21  22
ENDBRANCH  19  20
ENDBRANCH  18  19
ENDBRANCH   9  18
TORSDOF 7
ENDMDL
MODEL 7
REMARK VINA RESULT:      -7.5      1.715      4.572
REMARK  Name = 
REMARK  7 active torsions:
REMARK  status: ('A' for Active; 'I' for Inactive)
REMARK    1  A    between atoms: C_2  and  C_3
REMARK    2  A    between atoms: C_11  and  C_13
REMARK    3  A    between atoms: C_13  and  C_14
REMARK    4  A    between atoms: C_14  and  C_15
REMARK    5  A    between atoms: C_16  and  C_17
REMARK    6  A    between atoms: C_17  and  C_18
REMARK    7  A    between atoms: C_17  and  C_21
REMARK                            x       y       z     vdW  Elec       q    Type
REMARK                         _______ _______ _______ _____ _____    ______ ____
ROOT
ATOM      1  C   UNL     1       4.207   4.688  17.557  0.00  0.00    +0.000 C 
ATOM      2  C   UNL     1       5.365   4.143  16.672  0.00  0.00    +0.000 C 
ATOM      3  C   UNL     1       5.268   4.809  15.274  0.00  0.00    +0.000 C 
ATOM      4  C   UNL     1       5.334   6.343  15.409  0.00  0.00    +0.000 C 
ATOM      5  C   UNL     1       5.476   6.715  16.892  0.00  0.00    +0.000 C 
ATOM      6  C   UNL     1       6.751   6.073  17.469  0.00  0.00    +0.000 C 
ATOM      7  C   UNL     1       6.723   4.556  17.267  0.00  0.00    +0.000 C 
ATOM      8  N   UNL     1       4.286   6.174  17.571  0.00  0.00    +0.000 N 
ATOM      9  C   UNL     1       3.122   6.869  17.864  0.00  0.00    +0.000 C 
ATOM     10  O   UNL     1       2.109   6.279  18.250  0.00  0.00    +0.000 OA
ENDROOT
BRANCH   1  12
ATOM     11  O   UNL     1       5.291   4.076  19.649  0.00  0.00    +0.000 OA
ATOM     12  C   UNL     1       4.239   4.115  19.005  0.00  0.00    +0.000 C 
ATOM     13  N   UNL     1       3.070   3.594  19.536  0.00  0.00    +0.000 N 
ATOM     14  C   UNL     1       3.026   3.181  20.931  0.00  0.00    +0.000 C 
ATOM     15  C   UNL     1       1.749   2.368  21.045  0.00  0.00    +0.000 C 
ATOM     16  C   UNL     1       0.823   3.069  20.059  0.00  0.00    +0.000 C 
ATOM     17  C   UNL     1       1.758   3.477  18.918  0.00  0.00    +0.000 C 
ENDBRANCH   1  12
BRANCH   9  18
ATOM     18  C   UNL     1       3.087   8.384  17.696  0.00  0.00    +0.000 C 
BRANCH  18  19
ATOM     19  C   UNL     1       1.638   8.877  17.658  0.00  0.00    +0.000 C 
BRANCH  19  20
ATOM     20  C   UNL     1       1.353   9.858  18.767  0.00  0.00    +0.000 C 
ATOM     21  C   UNL     1       0.216   9.858  19.488  0.00  0.00    +0.000 C 
BRANCH  21  22
ATOM     22  C   UNL     1      -0.173  10.797  20.622  0.00  0.00    +0.000 C 
BRANCH  22  23
ATOM     23  C   UNL     1      -1.311  11.713  20.197  0.00  0.00    +0.000 C 
ATOM     24  C   UNL     1      -1.093  12.949  19.351  0.00  0.00    +0.000 C 
ATOM     25  C   UNL     1      -1.751  11.743  18.749  0.00  0.00    +0.000 C 
ENDBRANCH  22  23
BRANCH  22  26
ATOM     26  C   UNL     1      -0.493  10.131  21.948  0.00  0.00    +0.000 C 
ATOM     27  C   UNL     1      -0.479   8.625  22.087  0.00  0.00    +0.000 C 
ATOM     28  C   UNL     1       0.603   9.441  22.731  0.00  0.00    +0.000 C 
ENDBRANCH  22  26
ENDBRANCH  21  22
ENDBRANCH  19  20
ENDBRANCH  18  19
ENDBRANCH   9  18
TORSDOF 7
ENDMDL
MODEL 8
REMARK VINA RESULT:      -7.5      1.329      1.926
REMARK  Name = 
REMARK  7 active torsions:
REMARK  status: ('A' for Active; 'I' for Inactive)
REMARK    1  A    between atoms: C_2  and  C_3
REMARK    2  A    between atoms: C_11  and  C_13
REMARK    3  A    between atoms: C_13  and  C_14
REMARK    4  A    between atoms: C_14  and  C_15
REMARK    5  A    between atoms: C_16  and  C_17
REMARK    6  A    between atoms: C_17  and  C_18
REMARK    7  A    between atoms: C_17  and  C_21
REMARK                            x       y       z     vdW  Elec       q    Type
REMARK                         _______ _______ _______ _____ _____    ______ ____
ROOT
ATOM      1  C   UNL     1       3.493   3.840  19.246  0.00  0.00    +0.000 C 
ATOM      2  C   UNL     1       3.201   2.403  19.769  0.00  0.00    +0.000 C 
ATOM      3  C   UNL     1       3.010   2.470  21.307  0.00  0.00    +0.000 C 
ATOM      4  C   UNL     1       1.867   3.442  21.660  0.00  0.00    +0.000 C 
ATOM      5  C   UNL     1       1.286   4.031  20.367  0.00  0.00    +0.000 C 
ATOM      6  C   UNL     1       0.762   2.896  19.469  0.00  0.00    +0.000 C 
ATOM      7  C   UNL     1       1.876   1.887  19.179  0.00  0.00    +0.000 C 
ATOM      8  N   UNL     1       2.393   4.735  19.697  0.00  0.00    +0.000 N 
ATOM      9  C   UNL     1       2.672   6.092  19.781  0.00  0.00    +0.000 C 
ATOM     10  O   UNL     1       3.734   6.550  19.350  0.00  0.00    +0.000 OA
ENDROOT
BRANCH   1  12
ATOM     11  O   UNL     1       2.701   3.663  16.952  0.00  0.00    +0.000 OA
ATOM     12  C   UNL     1       3.655   3.893  17.698  0.00  0.00    +0.000 C 
ATOM     13  N   UNL     1       4.913   4.149  17.174  0.00  0.00    +0.000 N 
ATOM     14  C   UNL     1       5.077   4.346  15.742  0.00  0.00    +0.000 C 
ATOM     15  C   UNL     1       6.575   4.248  15.515  0.00  0.00    +0.000 C 
ATOM     16  C   UNL     1       7.141   4.846  16.797  0.00  0.00    +0.000 C 
ATOM     17  C   UNL     1       6.169   4.367  17.876  0.00  0.00    +0.000 C 
ENDBRANCH   1  12
BRANCH   9  18
ATOM     18  C   UNL     1       1.658   7.030  20.425  0.00  0.00    +0.000 C 
BRANCH  18  19
ATOM     19  C   UNL     1       1.610   8.357  19.662  0.00  0.00    +0.000 C 
BRANCH  19  20
ATOM     20  C   UNL     1       0.776   9.386  20.384  0.00  0.00    +0.000 C 
ATOM     21  C   UNL     1       0.657  10.665  19.981  0.00  0.00    +0.000 C 
BRANCH  21  22
ATOM     22  C   UNL     1      -0.152  11.780  20.630  0.00  0.00    +0.000 C 
BRANCH  22  23
ATOM     23  C   UNL     1      -0.772  12.682  19.573  0.00  0.00    +0.000 C 
ATOM     24  C   UNL     1      -0.493  14.168  19.501  0.00  0.00    +0.000 C 
ATOM     25  C   UNL     1       0.092  13.250  18.469  0.00  0.00    +0.000 C 
ENDBRANCH  22  23
BRANCH  22  26
ATOM     26  C   UNL     1      -1.202  11.335  21.632  0.00  0.00    +0.000 C 
ATOM     27  C   UNL     1      -0.804  10.766  22.976  0.00  0.00    +0.000 C 
ATOM     28  C   UNL     1      -1.422  12.131  22.900  0.00  0.00    +0.000 C 
ENDBRANCH  22  26
ENDBRANCH  21  22
ENDBRANCH  19  20
ENDBRANCH  18  19
ENDBRANCH   9  18
TORSDOF 7
ENDMDL
MODEL 9
REMARK VINA RESULT:      -7.4      1.642      4.280
REMARK  Name = 
REMARK  7 active torsions:
REMARK  status: ('A' for Active; 'I' for Inactive)
REMARK    1  A    between atoms: C_2  and  C_3
REMARK    2  A    between atoms: C_11  and  C_13
REMARK    3  A    between atoms: C_13  and  C_14
REMARK    4  A    between atoms: C_14  and  C_15
REMARK    5  A    between atoms: C_16  and  C_17
REMARK    6  A    between atoms: C_17  and  C_18
REMARK    7  A    between atoms: C_17  and  C_21
REMARK                            x       y       z     vdW  Elec       q    Type
REMARK                         _______ _______ _______ _____ _____    ______ ____
ROOT
ATOM      1  C   UNL     1       4.270   4.579  17.515  0.00  0.00    +0.000 C 
ATOM      2  C   UNL     1       5.475   4.109  16.650  0.00  0.00    +0.000 C 
ATOM      3  C   UNL     1       5.370   4.782  15.256  0.00  0.00    +0.000 C 
ATOM      4  C   UNL     1       5.347   6.316  15.405  0.00  0.00    +0.000 C 
ATOM      5  C   UNL     1       5.436   6.680  16.894  0.00  0.00    +0.000 C 
ATOM      6  C   UNL     1       6.732   6.106  17.493  0.00  0.00    +0.000 C 
ATOM      7  C   UNL     1       6.795   4.591  17.278  0.00  0.00    +0.000 C 
ATOM      8  N   UNL     1       4.265   6.067  17.542  0.00  0.00    +0.000 N 
ATOM      9  C   UNL     1       3.057   6.693  17.816  0.00  0.00    +0.000 C 
ATOM     10  O   UNL     1       2.071   6.043  18.175  0.00  0.00    +0.000 OA
ENDROOT
BRANCH   1  12
ATOM     11  O   UNL     1       5.353   3.967  19.607  0.00  0.00    +0.000 OA
ATOM     12  C   UNL     1       4.304   3.995  18.958  0.00  0.00    +0.000 C 
ATOM     13  N   UNL     1       3.140   3.453  19.480  0.00  0.00    +0.000 N 
ATOM     14  C   UNL     1       3.096   3.028  20.870  0.00  0.00    +0.000 C 
ATOM     15  C   UNL     1       1.830   2.195  20.972  0.00  0.00    +0.000 C 
ATOM     16  C   UNL     1       0.899   2.891  19.987  0.00  0.00    +0.000 C 
ATOM     17  C   UNL     1       1.833   3.321  18.854  0.00  0.00    +0.000 C 
ENDBRANCH   1  12
BRANCH   9  18
ATOM     18  C   UNL     1       2.941   8.204  17.660  0.00  0.00    +0.000 C 
BRANCH  18  19
ATOM     19  C   UNL     1       1.935   8.762  18.671  0.00  0.00    +0.000 C 
BRANCH  19  20
ATOM     20  C   UNL     1       1.029   9.793  18.045  0.00  0.00    +0.000 C 
ATOM     21  C   UNL     1      -0.280   9.911  18.340  0.00  0.00    +0.000 C 
BRANCH  21  22
ATOM     22  C   UNL     1      -1.281  10.909  17.771  0.00  0.00    +0.000 C 
BRANCH  22  23
ATOM     23  C   UNL     1      -2.581  10.214  17.395  0.00  0.00    +0.000 C 
ATOM     24  C   UNL     1      -3.648  10.876  16.552  0.00  0.00    +0.000 C 
ATOM     25  C   UNL     1      -2.814   9.777  15.965  0.00  0.00    +0.000 C 
ENDBRANCH  22  23
BRANCH  22  26
ATOM     26  C   UNL     1      -1.559  12.126  18.633  0.00  0.00    +0.000 C 
ATOM     27  C   UNL     1      -0.653  12.484  19.791  0.00  0.00    +0.000 C 
ATOM     28  C   UNL     1      -0.647  13.333  18.554  0.00  0.00    +0.000 C 
ENDBRANCH  22  26
ENDBRANCH  21  22
ENDBRANCH  19  20
ENDBRANCH  18  19
ENDBRANCH   9  18
TORSDOF 7
ENDMDL
