MODEL 1
REMARK VINA RESULT:      -7.3      0.000      0.000
REMARK  Name = 
REMARK  10 active torsions:
REMARK  status: ('A' for Active; 'I' for Inactive)
REMARK    1  A    between atoms: C_1  and  C_2
REMARK    2  A    between atoms: C_2  and  O_3
REMARK    3  A    between atoms: O_3  and  C_4
REMARK    4  A    between atoms: C_4  and  C_6
REMARK    5  A    between atoms: C_6  and  C_7
REMARK    6  A    between atoms: C_6  and  O_8
REMARK    7  A    between atoms: O_8  and  C_9
REMARK    8  A    between atoms: C_12  and  C_13
REMARK    9  A    between atoms: C_13  and  C_15
REMARK   10  A    between atoms: C_16  and  C_17
REMARK                            x       y       z     vdW  Elec       q    Type
REMARK                         _______ _______ _______ _____ _____    ______ ____
ROOT
ATOM      1  C   UNL     1       2.155   5.024  19.273  0.00  0.00    +0.000 A 
ATOM      2  C   UNL     1       2.428   6.182  18.546  0.00  0.00    +0.000 A 
ATOM      3  C   UNL     1       2.219   7.490  19.086  0.00  0.00    +0.000 A 
ATOM      4  C   UNL     1       1.679   7.651  20.396  0.00  0.00    +0.000 A 
ATOM      5  C   UNL     1       1.382   6.488  21.102  0.00  0.00    +0.000 A 
ATOM      6  C   UNL     1       1.601   5.198  20.551  0.00  0.00    +0.000 A 
ENDROOT
BRANCH   4   7
ATOM      7  C   UNL     1       1.444   9.083  20.913  0.00  0.00    +0.000 C 
ATOM      8  O   UNL     1       1.857   9.342  22.054  0.00  0.00    +0.000 OA
BRANCH   7   9
ATOM      9  C   UNL     1       0.697  10.132  20.099  0.00  0.00    +0.000 C 
ATOM     10  C   UNL     1      -0.630   9.976  19.883  0.00  0.00    +0.000 C 
BRANCH  10  11
ATOM     11  C   UNL     1      -1.576  10.624  19.014  0.00  0.00    +0.000 A 
ATOM     12  C   UNL     1      -1.950  11.942  19.307  0.00  0.00    +0.000 A 
ATOM     13  N   UNL     1      -3.228  12.065  18.874  0.00  0.00    +0.000 N 
ATOM     14  C   UNL     1      -3.272  11.427  17.670  0.00  0.00    +0.000 A 
ATOM     15  C   UNL     1      -4.133  11.645  16.592  0.00  0.00    +0.000 A 
ATOM     16  C   UNL     1      -3.920  10.874  15.459  0.00  0.00    +0.000 A 
ATOM     17  C   UNL     1      -2.946   9.878  15.466  0.00  0.00    +0.000 A 
ATOM     18  C   UNL     1      -2.139   9.617  16.601  0.00  0.00    +0.000 A 
ATOM     19  C   UNL     1      -2.261  10.442  17.743  0.00  0.00    +0.000 A 
ATOM     20  H   UNL     1      -4.039  12.226  19.452  0.00  0.00    +0.000 HD
ENDBRANCH  10  11
ENDBRANCH   7   9
ENDBRANCH   4   7
BRANCH   1  21
ATOM     21  O   UNL     1       2.424   3.847  18.639  0.00  0.00    +0.000 OA
BRANCH  21  22
ATOM     22  C   UNL     1       3.765   3.534  18.237  0.00  0.00    +0.000 C 
ATOM     23  C   UNL     1       3.736   2.171  17.519  0.00  0.00    +0.000 C 
BRANCH  22  24
ATOM     24  C   UNL     1       4.809   3.401  19.371  0.00  0.00    +0.000 C 
ATOM     25  O   UNL     1       4.881   2.475  20.165  0.00  0.00    +0.000 OA
BRANCH  24  26
ATOM     26  O   UNL     1       5.661   4.479  19.360  0.00  0.00    +0.000 OA
BRANCH  26  28
ATOM     27  C   UNL     1       6.237   6.223  17.769  0.00  0.00    +0.000 C 
ATOM     28  C   UNL     1       6.347   4.753  18.125  0.00  0.00    +0.000 C 
ENDBRANCH  26  28
ENDBRANCH  24  26
ENDBRANCH  22  24
ENDBRANCH  21  22
ENDBRANCH   1  21
TORSDOF 8
ENDMDL
MODEL 2
REMARK VINA RESULT:      -7.3      4.076      9.416
REMARK  Name = 
REMARK  10 active torsions:
REMARK  status: ('A' for Active; 'I' for Inactive)
REMARK    1  A    between atoms: C_1  and  C_2
REMARK    2  A    between atoms: C_2  and  O_3
REMARK    3  A    between atoms: O_3  and  C_4
REMARK    4  A    between atoms: C_4  and  C_6
REMARK    5  A    between atoms: C_6  and  C_7
REMARK    6  A    between atoms: C_6  and  O_8
REMARK    7  A    between atoms: O_8  and  C_9
REMARK    8  A    between atoms: C_12  and  C_13
REMARK    9  A    between atoms: C_13  and  C_15
REMARK   10  A    between atoms: C_16  and  C_17
REMARK                            x       y       z     vdW  Elec       q    Type
REMARK                         _______ _______ _______ _____ _____    ______ ____
ROOT
ATOM      1  C   UNL     1       0.567   9.718  19.759  0.00  0.00    +0.000 A 
ATOM      2  C   UNL     1       0.969   8.716  20.642  0.00  0.00    +0.000 A 
ATOM      3  C   UNL     1       1.859   7.667  20.252  0.00  0.00    +0.000 A 
ATOM      4  C   UNL     1       2.342   7.592  18.912  0.00  0.00    +0.000 A 
ATOM      5  C   UNL     1       1.911   8.581  18.031  0.00  0.00    +0.000 A 
ATOM      6  C   UNL     1       1.030   9.618  18.438  0.00  0.00    +0.000 A 
ENDROOT
BRANCH   4   7
ATOM      7  C   UNL     1       3.272   6.422  18.540  0.00  0.00    +0.000 C 
ATOM      8  O   UNL     1       3.541   5.611  19.439  0.00  0.00    +0.000 OA
BRANCH   7   9
ATOM      9  C   UNL     1       3.884   6.276  17.153  0.00  0.00    +0.000 C 
ATOM     10  C   UNL     1       4.846   5.346  16.951  0.00  0.00    +0.000 C 
BRANCH  10  11
ATOM     11  C   UNL     1       5.763   5.085  15.874  0.00  0.00    +0.000 A 
ATOM     12  C   UNL     1       7.135   5.218  16.124  0.00  0.00    +0.000 A 
ATOM     13  N   UNL     1       7.685   5.614  14.951  0.00  0.00    +0.000 N 
ATOM     14  C   UNL     1       7.075   4.868  13.987  0.00  0.00    +0.000 A 
ATOM     15  C   UNL     1       7.554   4.498  12.728  0.00  0.00    +0.000 A 
ATOM     16  C   UNL     1       6.732   3.685  11.963  0.00  0.00    +0.000 A 
ATOM     17  C   UNL     1       5.460   3.349  12.421  0.00  0.00    +0.000 A 
ATOM     18  C   UNL     1       4.960   3.805  13.667  0.00  0.00    +0.000 A 
ATOM     19  C   UNL     1       5.802   4.558  14.518  0.00  0.00    +0.000 A 
ATOM     20  H   UNL     1       8.130   6.502  14.773  0.00  0.00    +0.000 HD
ENDBRANCH  10  11
ENDBRANCH   7   9
ENDBRANCH   4   7
BRANCH   1  21
ATOM     21  O   UNL     1      -0.267  10.665  20.276  0.00  0.00    +0.000 OA
BRANCH  21  22
ATOM     22  C   UNL     1      -0.655  11.796  19.482  0.00  0.00    +0.000 C 
ATOM     23  C   UNL     1       0.111  13.025  20.007  0.00  0.00    +0.000 C 
BRANCH  22  24
ATOM     24  C   UNL     1      -2.154  12.177  19.514  0.00  0.00    +0.000 C 
ATOM     25  O   UNL     1      -2.671  12.963  20.294  0.00  0.00    +0.000 OA
BRANCH  24  26
ATOM     26  O   UNL     1      -2.835  11.505  18.528  0.00  0.00    +0.000 OA
BRANCH  26  28
ATOM     27  C   UNL     1      -2.311   9.953  16.733  0.00  0.00    +0.000 C 
ATOM     28  C   UNL     1      -2.173  11.370  17.258  0.00  0.00    +0.000 C 
ENDBRANCH  26  28
ENDBRANCH  24  26
ENDBRANCH  22  24
ENDBRANCH  21  22
ENDBRANCH   1  21
TORSDOF 8
ENDMDL
MODEL 3
REMARK VINA RESULT:      -7.3      5.416      8.929
REMARK  Name = 
REMARK  10 active torsions:
REMARK  status: ('A' for Active; 'I' for Inactive)
REMARK    1  A    between atoms: C_1  and  C_2
REMARK    2  A    between atoms: C_2  and  O_3
REMARK    3  A    between atoms: O_3  and  C_4
REMARK    4  A    between atoms: C_4  and  C_6
REMARK    5  A    between atoms: C_6  and  C_7
REMARK    6  A    between atoms: C_6  and  O_8
REMARK    7  A    between atoms: O_8  and  C_9
REMARK    8  A    between atoms: C_12  and  C_13
REMARK    9  A    between atoms: C_13  and  C_15
REMARK   10  A    between atoms: C_16  and  C_17
REMARK                            x       y       z     vdW  Elec       q    Type
REMARK                         _______ _______ _______ _____ _____    ______ ____
ROOT
ATOM      1  C   UNL     1       3.413   5.304  18.135  0.00  0.00    +0.000 A 
ATOM      2  C   UNL     1       3.578   6.480  17.405  0.00  0.00    +0.000 A 
ATOM      3  C   UNL     1       4.867   7.041  17.143  0.00  0.00    +0.000 A 
ATOM      4  C   UNL     1       6.042   6.422  17.661  0.00  0.00    +0.000 A 
ATOM      5  C   UNL     1       5.864   5.263  18.414  0.00  0.00    +0.000 A 
ATOM      6  C   UNL     1       4.575   4.719  18.661  0.00  0.00    +0.000 A 
ENDROOT
BRANCH   4   7
ATOM      7  C   UNL     1       7.401   7.088  17.375  0.00  0.00    +0.000 C 
ATOM      8  O   UNL     1       7.904   6.880  16.260  0.00  0.00    +0.000 OA
BRANCH   7   9
ATOM      9  C   UNL     1       8.133   7.925  18.415  0.00  0.00    +0.000 C 
ATOM     10  C   UNL     1       8.320   9.247  18.186  0.00  0.00    +0.000 C 
BRANCH  10  11
ATOM     11  C   UNL     1       9.123  10.259  18.817  0.00  0.00    +0.000 A 
ATOM     12  C   UNL     1       9.208  10.262  20.216  0.00  0.00    +0.000 A 
ATOM     13  N   UNL     1       9.365  11.559  20.571  0.00  0.00    +0.000 N 
ATOM     14  C   UNL     1      10.248  12.083  19.675  0.00  0.00    +0.000 A 
ATOM     15  C   UNL     1      11.120  13.163  19.830  0.00  0.00    +0.000 A 
ATOM     16  C   UNL     1      11.951  13.451  18.758  0.00  0.00    +0.000 A 
ATOM     17  C   UNL     1      11.830  12.736  17.569  0.00  0.00    +0.000 A 
ATOM     18  C   UNL     1      10.880  11.698  17.404  0.00  0.00    +0.000 A 
ATOM     19  C   UNL     1      10.079  11.311  18.503  0.00  0.00    +0.000 A 
ATOM     20  H   UNL     1       8.709  12.114  21.100  0.00  0.00    +0.000 HD
ENDBRANCH  10  11
ENDBRANCH   7   9
ENDBRANCH   4   7
BRANCH   1  21
ATOM     21  O   UNL     1       2.127   4.875  18.288  0.00  0.00    +0.000 OA
BRANCH  21  22
ATOM     22  C   UNL     1       1.627   4.544  19.592  0.00  0.00    +0.000 C 
ATOM     23  C   UNL     1       2.181   5.582  20.586  0.00  0.00    +0.000 C 
BRANCH  22  24
ATOM     24  C   UNL     1       2.025   3.157  20.149  0.00  0.00    +0.000 C 
ATOM     25  O   UNL     1       2.711   2.961  21.142  0.00  0.00    +0.000 OA
BRANCH  24  26
ATOM     26  O   UNL     1       1.490   2.161  19.369  0.00  0.00    +0.000 OA
BRANCH  26  28
ATOM     27  C   UNL     1       3.599   1.359  18.468  0.00  0.00    +0.000 C 
ATOM     28  C   UNL     1       2.193   1.835  18.157  0.00  0.00    +0.000 C 
ENDBRANCH  26  28
ENDBRANCH  24  26
ENDBRANCH  22  24
ENDBRANCH  21  22
ENDBRANCH   1  21
TORSDOF 8
ENDMDL
MODEL 4
REMARK VINA RESULT:      -7.3      3.311      4.822
REMARK  Name = 
REMARK  10 active torsions:
REMARK  status: ('A' for Active; 'I' for Inactive)
REMARK    1  A    between atoms: C_1  and  C_2
REMARK    2  A    between atoms: C_2  and  O_3
REMARK    3  A    between atoms: O_3  and  C_4
REMARK    4  A    between atoms: C_4  and  C_6
REMARK    5  A    between atoms: C_6  and  C_7
REMARK    6  A    between atoms: C_6  and  O_8
REMARK    7  A    between atoms: O_8  and  C_9
REMARK    8  A    between atoms: C_12  and  C_13
REMARK    9  A    between atoms: C_13  and  C_15
REMARK   10  A    between atoms: C_16  and  C_17
REMARK                            x       y       z     vdW  Elec       q    Type
REMARK                         _______ _______ _______ _____ _____    ______ ____
ROOT
ATOM      1  C   UNL     1       4.840   4.005  17.316  0.00  0.00    +0.000 A 
ATOM      2  C   UNL     1       3.487   3.666  17.323  0.00  0.00    +0.000 A 
ATOM      3  C   UNL     1       2.651   3.888  18.462  0.00  0.00    +0.000 A 
ATOM      4  C   UNL     1       3.195   4.438  19.660  0.00  0.00    +0.000 A 
ATOM      5  C   UNL     1       4.555   4.746  19.651  0.00  0.00    +0.000 A 
ATOM      6  C   UNL     1       5.367   4.522  18.509  0.00  0.00    +0.000 A 
ENDROOT
BRANCH   4   7
ATOM      7  C   UNL     1       2.256   4.624  20.866  0.00  0.00    +0.000 C 
ATOM      8  O   UNL     1       2.171   3.677  21.662  0.00  0.00    +0.000 OA
BRANCH   7   9
ATOM      9  C   UNL     1       1.422   5.884  21.063  0.00  0.00    +0.000 C 
ATOM     10  C   UNL     1       1.636   6.949  20.254  0.00  0.00    +0.000 C 
BRANCH  10  11
ATOM     11  C   UNL     1       1.206   8.321  20.288  0.00  0.00    +0.000 A 
ATOM     12  C   UNL     1       1.213   9.048  19.090  0.00  0.00    +0.000 A 
ATOM     13  N   UNL     1       1.467  10.332  19.442  0.00  0.00    +0.000 N 
ATOM     14  C   UNL     1       0.722  10.562  20.560  0.00  0.00    +0.000 A 
ATOM     15  C   UNL     1       0.216  11.770  21.045  0.00  0.00    +0.000 A 
ATOM     16  C   UNL     1      -0.559  11.705  22.193  0.00  0.00    +0.000 A 
ATOM     17  C   UNL     1      -0.727  10.490  22.854  0.00  0.00    +0.000 A 
ATOM     18  C   UNL     1      -0.136   9.288  22.390  0.00  0.00    +0.000 A 
ATOM     19  C   UNL     1       0.583   9.295  21.172  0.00  0.00    +0.000 A 
ATOM     20  H   UNL     1       2.288  10.863  19.198  0.00  0.00    +0.000 HD
ENDBRANCH  10  11
ENDBRANCH   7   9
ENDBRANCH   4   7
BRANCH   1  21
ATOM     21  O   UNL     1       5.508   3.756  16.152  0.00  0.00    +0.000 OA
BRANCH  21  22
ATOM     22  C   UNL     1       5.691   4.802  15.188  0.00  0.00    +0.000 C 
ATOM     23  C   UNL     1       5.295   4.244  13.808  0.00  0.00    +0.000 C 
BRANCH  22  24
ATOM     24  C   UNL     1       7.129   5.351  15.034  0.00  0.00    +0.000 C 
ATOM     25  O   UNL     1       7.797   5.317  14.010  0.00  0.00    +0.000 OA
BRANCH  24  26
ATOM     26  O   UNL     1       7.558   5.896  16.220  0.00  0.00    +0.000 OA
BRANCH  26  28
ATOM     27  C   UNL     1       7.685   7.824  17.693  0.00  0.00    +0.000 C 
ATOM     28  C   UNL     1       6.838   7.042  16.707  0.00  0.00    +0.000 C 
ENDBRANCH  26  28
ENDBRANCH  24  26
ENDBRANCH  22  24
ENDBRANCH  21  22
ENDBRANCH   1  21
TORSDOF 8
ENDMDL
MODEL 5
REMARK VINA RESULT:      -7.3      5.390      9.249
REMARK  Name = 
REMARK  10 active torsions:
REMARK  status: ('A' for Active; 'I' for Inactive)
REMARK    1  A    between atoms: C_1  and  C_2
REMARK    2  A    between atoms: C_2  and  O_3
REMARK    3  A    between atoms: O_3  and  C_4
REMARK    4  A    between atoms: C_4  and  C_6
REMARK    5  A    between atoms: C_6  and  C_7
REMARK    6  A    between atoms: C_6  and  O_8
REMARK    7  A    between atoms: O_8  and  C_9
REMARK    8  A    between atoms: C_12  and  C_13
REMARK    9  A    between atoms: C_13  and  C_15
REMARK   10  A    between atoms: C_16  and  C_17
REMARK                            x       y       z     vdW  Elec       q    Type
REMARK                         _______ _______ _______ _____ _____    ______ ____
ROOT
ATOM      1  C   UNL     1       4.135   4.811  18.091  0.00  0.00    +0.000 A 
ATOM      2  C   UNL     1       5.308   4.743  18.841  0.00  0.00    +0.000 A 
ATOM      3  C   UNL     1       6.393   5.653  18.644  0.00  0.00    +0.000 A 
ATOM      4  C   UNL     1       6.321   6.654  17.631  0.00  0.00    +0.000 A 
ATOM      5  C   UNL     1       5.156   6.694  16.867  0.00  0.00    +0.000 A 
ATOM      6  C   UNL     1       4.087   5.783  17.080  0.00  0.00    +0.000 A 
ENDROOT
BRANCH   4   7
ATOM      7  C   UNL     1       7.532   7.586  17.442  0.00  0.00    +0.000 C 
ATOM      8  O   UNL     1       8.306   7.318  16.510  0.00  0.00    +0.000 OA
BRANCH   7   9
ATOM      9  C   UNL     1       7.813   8.756  18.375  0.00  0.00    +0.000 C 
ATOM     10  C   UNL     1       8.820   9.611  18.075  0.00  0.00    +0.000 C 
BRANCH  10  11
ATOM     11  C   UNL     1       9.483  10.656  18.807  0.00  0.00    +0.000 A 
ATOM     12  C   UNL     1       9.335  10.689  20.200  0.00  0.00    +0.000 A 
ATOM     13  N   UNL     1       9.401  11.997  20.545  0.00  0.00    +0.000 N 
ATOM     14  C   UNL     1      10.409  12.526  19.795  0.00  0.00    +0.000 A 
ATOM     15  C   UNL     1      11.218  13.632  20.066  0.00  0.00    +0.000 A 
ATOM     16  C   UNL     1      12.209  13.921  19.141  0.00  0.00    +0.000 A 
ATOM     17  C   UNL     1      12.304  13.179  17.965  0.00  0.00    +0.000 A 
ATOM     18  C   UNL     1      11.418  12.113  17.670  0.00  0.00    +0.000 A 
ATOM     19  C   UNL     1      10.454  11.727  18.630  0.00  0.00    +0.000 A 
ATOM     20  H   UNL     1       8.653  12.545  20.944  0.00  0.00    +0.000 HD
ENDBRANCH  10  11
ENDBRANCH   7   9
ENDBRANCH   4   7
BRANCH   1  21
ATOM     21  O   UNL     1       3.176   3.891  18.403  0.00  0.00    +0.000 OA
BRANCH  21  22
ATOM     22  C   UNL     1       1.843   4.317  18.720  0.00  0.00    +0.000 C 
ATOM     23  C   UNL     1       1.949   5.514  19.683  0.00  0.00    +0.000 C 
BRANCH  22  24
ATOM     24  C   UNL     1       0.938   3.278  19.422  0.00  0.00    +0.000 C 
ATOM     25  O   UNL     1       0.373   2.342  18.874  0.00  0.00    +0.000 OA
BRANCH  24  26
ATOM     26  O   UNL     1       0.860   3.548  20.767  0.00  0.00    +0.000 OA
BRANCH  26  28
ATOM     27  C   UNL     1       2.880   2.451  21.557  0.00  0.00    +0.000 C 
ATOM     28  C   UNL     1       1.369   2.545  21.663  0.00  0.00    +0.000 C 
ENDBRANCH  26  28
ENDBRANCH  24  26
ENDBRANCH  22  24
ENDBRANCH  21  22
ENDBRANCH   1  21
TORSDOF 8
ENDMDL
MODEL 6
REMARK VINA RESULT:      -7.2      3.170      4.568
REMARK  Name = 
REMARK  10 active torsions:
REMARK  status: ('A' for Active; 'I' for Inactive)
REMARK    1  A    between atoms: C_1  and  C_2
REMARK    2  A    between atoms: C_2  and  O_3
REMARK    3  A    between atoms: O_3  and  C_4
REMARK    4  A    between atoms: C_4  and  C_6
REMARK    5  A    between atoms: C_6  and  C_7
REMARK    6  A    between atoms: C_6  and  O_8
REMARK    7  A    between atoms: O_8  and  C_9
REMARK    8  A    between atoms: C_12  and  C_13
REMARK    9  A    between atoms: C_13  and  C_15
REMARK   10  A    between atoms: C_16  and  C_17
REMARK                            x       y       z     vdW  Elec       q    Type
REMARK                         _______ _______ _______ _____ _____    ______ ____
ROOT
ATOM      1  C   UNL     1       4.582   3.672  16.974  0.00  0.00    +0.000 A 
ATOM      2  C   UNL     1       5.196   3.942  18.197  0.00  0.00    +0.000 A 
ATOM      3  C   UNL     1       4.449   4.134  19.401  0.00  0.00    +0.000 A 
ATOM      4  C   UNL     1       3.024   4.091  19.379  0.00  0.00    +0.000 A 
ATOM      5  C   UNL     1       2.419   3.851  18.147  0.00  0.00    +0.000 A 
ATOM      6  C   UNL     1       3.179   3.658  16.963  0.00  0.00    +0.000 A 
ENDROOT
BRANCH   4   7
ATOM      7  C   UNL     1       2.270   4.338  20.699  0.00  0.00    +0.000 C 
ATOM      8  O   UNL     1       2.320   3.438  21.551  0.00  0.00    +0.000 OA
BRANCH   7   9
ATOM      9  C   UNL     1       1.453   5.600  20.947  0.00  0.00    +0.000 C 
ATOM     10  C   UNL     1       1.787   6.740  20.298  0.00  0.00    +0.000 C 
BRANCH  10  11
ATOM     11  C   UNL     1       1.393   8.115  20.443  0.00  0.00    +0.000 A 
ATOM     12  C   UNL     1       1.100   8.589  21.729  0.00  0.00    +0.000 A 
ATOM     13  N   UNL     1       0.157   9.547  21.561  0.00  0.00    +0.000 N 
ATOM     14  C   UNL     1       0.549  10.264  20.470  0.00  0.00    +0.000 A 
ATOM     15  C   UNL     1       0.267  11.593  20.145  0.00  0.00    +0.000 A 
ATOM     16  C   UNL     1       0.842  12.086  18.984  0.00  0.00    +0.000 A 
ATOM     17  C   UNL     1       1.585  11.242  18.160  0.00  0.00    +0.000 A 
ATOM     18  C   UNL     1       1.790   9.874  18.467  0.00  0.00    +0.000 A 
ATOM     19  C   UNL     1       1.299   9.356  19.688  0.00  0.00    +0.000 A 
ATOM     20  H   UNL     1      -0.796   9.507  21.892  0.00  0.00    +0.000 HD
ENDBRANCH  10  11
ENDBRANCH   7   9
ENDBRANCH   4   7
BRANCH   1  21
ATOM     21  O   UNL     1       5.423   3.490  15.915  0.00  0.00    +0.000 OA
BRANCH  21  22
ATOM     22  C   UNL     1       5.540   4.503  14.905  0.00  0.00    +0.000 C 
ATOM     23  C   UNL     1       6.729   4.128  14.000  0.00  0.00    +0.000 C 
BRANCH  22  24
ATOM     24  C   UNL     1       5.815   5.941  15.403  0.00  0.00    +0.000 C 
ATOM     25  O   UNL     1       5.017   6.867  15.374  0.00  0.00    +0.000 OA
BRANCH  24  26
ATOM     26  O   UNL     1       7.094   6.037  15.896  0.00  0.00    +0.000 OA
BRANCH  26  28
ATOM     27  C   UNL     1       7.813   7.630  17.584  0.00  0.00    +0.000 C 
ATOM     28  C   UNL     1       7.230   6.256  17.312  0.00  0.00    +0.000 C 
ENDBRANCH  26  28
ENDBRANCH  24  26
ENDBRANCH  22  24
ENDBRANCH  21  22
ENDBRANCH   1  21
TORSDOF 8
ENDMDL
MODEL 7
REMARK VINA RESULT:      -7.2      3.368      4.612
REMARK  Name = 
REMARK  10 active torsions:
REMARK  status: ('A' for Active; 'I' for Inactive)
REMARK    1  A    between atoms: C_1  and  C_2
REMARK    2  A    between atoms: C_2  and  O_3
REMARK    3  A    between atoms: O_3  and  C_4
REMARK    4  A    between atoms: C_4  and  C_6
REMARK    5  A    between atoms: C_6  and  C_7
REMARK    6  A    between atoms: C_6  and  O_8
REMARK    7  A    between atoms: O_8  and  C_9
REMARK    8  A    between atoms: C_12  and  C_13
REMARK    9  A    between atoms: C_13  and  C_15
REMARK   10  A    between atoms: C_16  and  C_17
REMARK                            x       y       z     vdW  Elec       q    Type
REMARK                         _______ _______ _______ _____ _____    ______ ____
ROOT
ATOM      1  C   UNL     1       4.634   3.880  17.220  0.00  0.00    +0.000 A 
ATOM      2  C   UNL     1       3.284   3.566  17.074  0.00  0.00    +0.000 A 
ATOM      3  C   UNL     1       2.336   3.762  18.127  0.00  0.00    +0.000 A 
ATOM      4  C   UNL     1       2.759   4.260  19.394  0.00  0.00    +0.000 A 
ATOM      5  C   UNL     1       4.116   4.544  19.539  0.00  0.00    +0.000 A 
ATOM      6  C   UNL     1       5.041   4.346  18.480  0.00  0.00    +0.000 A 
ENDROOT
BRANCH   4   7
ATOM      7  C   UNL     1       1.701   4.420  20.502  0.00  0.00    +0.000 C 
ATOM      8  O   UNL     1       1.203   3.379  20.957  0.00  0.00    +0.000 OA
BRANCH   7   9
ATOM      9  C   UNL     1       1.236   5.785  20.994  0.00  0.00    +0.000 C 
ATOM     10  C   UNL     1       1.457   6.874  20.221  0.00  0.00    +0.000 C 
BRANCH  10  11
ATOM     11  C   UNL     1       1.355   8.290  20.451  0.00  0.00    +0.000 A 
ATOM     12  C   UNL     1       1.380   8.751  21.774  0.00  0.00    +0.000 A 
ATOM     13  N   UNL     1       0.615   9.869  21.788  0.00  0.00    +0.000 N 
ATOM     14  C   UNL     1       0.940  10.552  20.654  0.00  0.00    +0.000 A 
ATOM     15  C   UNL     1       0.856  11.923  20.400  0.00  0.00    +0.000 A 
ATOM     16  C   UNL     1       1.305  12.357  19.162  0.00  0.00    +0.000 A 
ATOM     17  C   UNL     1       1.726  11.431  18.209  0.00  0.00    +0.000 A 
ATOM     18  C   UNL     1       1.725  10.036  18.458  0.00  0.00    +0.000 A 
ATOM     19  C   UNL     1       1.364   9.561  19.740  0.00  0.00    +0.000 A 
ATOM     20  H   UNL     1      -0.257   9.986  22.281  0.00  0.00    +0.000 HD
ENDBRANCH  10  11
ENDBRANCH   7   9
ENDBRANCH   4   7
BRANCH   1  21
ATOM     21  O   UNL     1       5.417   3.660  16.125  0.00  0.00    +0.000 OA
BRANCH  21  22
ATOM     22  C   UNL     1       5.578   4.687  15.135  0.00  0.00    +0.000 C 
ATOM     23  C   UNL     1       5.703   4.002  13.761  0.00  0.00    +0.000 C 
BRANCH  22  24
ATOM     24  C   UNL     1       6.825   5.592  15.280  0.00  0.00    +0.000 C 
ATOM     25  O   UNL     1       7.880   5.448  14.680  0.00  0.00    +0.000 OA
BRANCH  24  26
ATOM     26  O   UNL     1       6.578   6.598  16.183  0.00  0.00    +0.000 OA
BRANCH  26  28
ATOM     27  C   UNL     1       7.808   8.052  17.692  0.00  0.00    +0.000 C 
ATOM     28  C   UNL     1       7.400   6.628  17.363  0.00  0.00    +0.000 C 
ENDBRANCH  26  28
ENDBRANCH  24  26
ENDBRANCH  22  24
ENDBRANCH  21  22
ENDBRANCH   1  21
TORSDOF 8
ENDMDL
MODEL 8
REMARK VINA RESULT:      -7.1      4.024      9.228
REMARK  Name = 
REMARK  10 active torsions:
REMARK  status: ('A' for Active; 'I' for Inactive)
REMARK    1  A    between atoms: C_1  and  C_2
REMARK    2  A    between atoms: C_2  and  O_3
REMARK    3  A    between atoms: O_3  and  C_4
REMARK    4  A    between atoms: C_4  and  C_6
REMARK    5  A    between atoms: C_6  and  C_7
REMARK    6  A    between atoms: C_6  and  O_8
REMARK    7  A    between atoms: O_8  and  C_9
REMARK    8  A    between atoms: C_12  and  C_13
REMARK    9  A    between atoms: C_13  and  C_15
REMARK   10  A    between atoms: C_16  and  C_17
REMARK                            x       y       z     vdW  Elec       q    Type
REMARK                         _______ _______ _______ _____ _____    ______ ____
ROOT
ATOM      1  C   UNL     1       1.391   9.070  19.325  0.00  0.00    +0.000 A 
ATOM      2  C   UNL     1       1.944   8.711  18.096  0.00  0.00    +0.000 A 
ATOM      3  C   UNL     1       2.511   7.419  17.863  0.00  0.00    +0.000 A 
ATOM      4  C   UNL     1       2.562   6.454  18.911  0.00  0.00    +0.000 A 
ATOM      5  C   UNL     1       2.034   6.834  20.143  0.00  0.00    +0.000 A 
ATOM      6  C   UNL     1       1.471   8.120  20.354  0.00  0.00    +0.000 A 
ENDROOT
BRANCH   4   7
ATOM      7  C   UNL     1       3.214   5.091  18.613  0.00  0.00    +0.000 C 
ATOM      8  O   UNL     1       3.297   4.290  19.556  0.00  0.00    +0.000 OA
BRANCH   7   9
ATOM      9  C   UNL     1       3.782   4.741  17.243  0.00  0.00    +0.000 C 
ATOM     10  C   UNL     1       5.122   4.783  17.055  0.00  0.00    +0.000 C 
BRANCH  10  11
ATOM     11  C   UNL     1       5.961   4.729  15.889  0.00  0.00    +0.000 A 
ATOM     12  C   UNL     1       7.324   5.021  16.037  0.00  0.00    +0.000 A 
ATOM     13  N   UNL     1       7.710   5.576  14.863  0.00  0.00    +0.000 N 
ATOM     14  C   UNL     1       7.111   4.833  13.889  0.00  0.00    +0.000 A 
ATOM     15  C   UNL     1       7.515   4.628  12.568  0.00  0.00    +0.000 A 
ATOM     16  C   UNL     1       6.733   3.777  11.803  0.00  0.00    +0.000 A 
ATOM     17  C   UNL     1       5.560   3.243  12.331  0.00  0.00    +0.000 A 
ATOM     18  C   UNL     1       5.124   3.530  13.648  0.00  0.00    +0.000 A 
ATOM     19  C   UNL     1       5.941   4.319  14.492  0.00  0.00    +0.000 A 
ATOM     20  H   UNL     1       8.024   6.525  14.729  0.00  0.00    +0.000 HD
ENDBRANCH  10  11
ENDBRANCH   7   9
ENDBRANCH   4   7
BRANCH   1  21
ATOM     21  O   UNL     1       0.868  10.328  19.395  0.00  0.00    +0.000 OA
BRANCH  21  22
ATOM     22  C   UNL     1      -0.531  10.514  19.658  0.00  0.00    +0.000 C 
ATOM     23  C   UNL     1      -1.295  10.254  18.346  0.00  0.00    +0.000 C 
BRANCH  22  24
ATOM     24  C   UNL     1      -0.960  11.922  20.135  0.00  0.00    +0.000 C 
ATOM     25  O   UNL     1      -1.175  12.244  21.294  0.00  0.00    +0.000 OA
BRANCH  24  26
ATOM     26  O   UNL     1      -1.060  12.775  19.063  0.00  0.00    +0.000 OA
BRANCH  26  28
ATOM     27  C   UNL     1       1.112  13.848  19.253  0.00  0.00    +0.000 C 
ATOM     28  C   UNL     1      -0.391  14.043  19.176  0.00  0.00    +0.000 C 
ENDBRANCH  26  28
ENDBRANCH  24  26
ENDBRANCH  22  24
ENDBRANCH  21  22
ENDBRANCH   1  21
TORSDOF 8
ENDMDL
MODEL 9
REMARK VINA RESULT:      -7.1      3.825      9.085
REMARK  Name = 
REMARK  10 active torsions:
REMARK  status: ('A' for Active; 'I' for Inactive)
REMARK    1  A    between atoms: C_1  and  C_2
REMARK    2  A    between atoms: C_2  and  O_3
REMARK    3  A    between atoms: O_3  and  C_4
REMARK    4  A    between atoms: C_4  and  C_6
REMARK    5  A    between atoms: C_6  and  C_7
REMARK    6  A    between atoms: C_6  and  O_8
REMARK    7  A    between atoms: O_8  and  C_9
REMARK    8  A    between atoms: C_12  and  C_13
REMARK    9  A    between atoms: C_13  and  C_15
REMARK   10  A    between atoms: C_16  and  C_17
REMARK                            x       y       z     vdW  Elec       q    Type
REMARK                         _______ _______ _______ _____ _____    ______ ____
ROOT
ATOM      1  C   UNL     1       1.870   7.625  20.074  0.00  0.00    +0.000 A 
ATOM      2  C   UNL     1       2.280   7.527  18.745  0.00  0.00    +0.000 A 
ATOM      3  C   UNL     1       2.471   6.267  18.096  0.00  0.00    +0.000 A 
ATOM      4  C   UNL     1       2.280   5.050  18.813  0.00  0.00    +0.000 A 
ATOM      5  C   UNL     1       1.899   5.159  20.149  0.00  0.00    +0.000 A 
ATOM      6  C   UNL     1       1.710   6.419  20.775  0.00  0.00    +0.000 A 
ENDROOT
BRANCH   4   7
ATOM      7  C   UNL     1       2.533   3.723  18.072  0.00  0.00    +0.000 C 
ATOM      8  O   UNL     1       1.648   2.858  18.154  0.00  0.00    +0.000 OA
BRANCH   7   9
ATOM      9  C   UNL     1       3.823   3.447  17.311  0.00  0.00    +0.000 C 
ATOM     10  C   UNL     1       4.459   4.474  16.699  0.00  0.00    +0.000 C 
BRANCH  10  11
ATOM     11  C   UNL     1       5.537   4.547  15.749  0.00  0.00    +0.000 A 
ATOM     12  C   UNL     1       6.824   4.827  16.226  0.00  0.00    +0.000 A 
ATOM     13  N   UNL     1       7.445   5.504  15.230  0.00  0.00    +0.000 N 
ATOM     14  C   UNL     1       7.096   4.865  14.077  0.00  0.00    +0.000 A 
ATOM     15  C   UNL     1       7.787   4.802  12.865  0.00  0.00    +0.000 A 
ATOM     16  C   UNL     1       7.218   4.032  11.862  0.00  0.00    +0.000 A 
ATOM     17  C   UNL     1       5.972   3.440  12.059  0.00  0.00    +0.000 A 
ATOM     18  C   UNL     1       5.248   3.586  13.269  0.00  0.00    +0.000 A 
ATOM     19  C   UNL     1       5.836   4.285  14.349  0.00  0.00    +0.000 A 
ATOM     20  H   UNL     1       7.754   6.463  15.266  0.00  0.00    +0.000 HD
ENDBRANCH  10  11
ENDBRANCH   7   9
ENDBRANCH   4   7
BRANCH   1  21
ATOM     21  O   UNL     1       1.707   8.891  20.554  0.00  0.00    +0.000 OA
BRANCH  21  22
ATOM     22  C   UNL     1       0.677   9.737  20.024  0.00  0.00    +0.000 C 
ATOM     23  C   UNL     1       1.142  10.238  18.644  0.00  0.00    +0.000 C 
BRANCH  22  24
ATOM     24  C   UNL     1       0.334  11.001  20.847  0.00  0.00    +0.000 C 
ATOM     25  O   UNL     1       1.143  11.720  21.415  0.00  0.00    +0.000 OA
BRANCH  24  26
ATOM     26  O   UNL     1      -1.023  11.213  20.848  0.00  0.00    +0.000 OA
BRANCH  26  28
ATOM     27  C   UNL     1      -1.627  11.263  23.201  0.00  0.00    +0.000 C 
ATOM     28  C   UNL     1      -1.553  12.039  21.900  0.00  0.00    +0.000 C 
ENDBRANCH  26  28
ENDBRANCH  24  26
ENDBRANCH  22  24
ENDBRANCH  21  22
ENDBRANCH   1  21
TORSDOF 8
ENDMDL
