MODEL 1
REMARK VINA RESULT:      -7.0      0.000      0.000
REMARK  Name = 
REMARK  5 active torsions:
REMARK  status: ('A' for Active; 'I' for Inactive)
REMARK    1  A    between atoms: C_1  and  C_2
REMARK    2  A    between atoms: N_6  and  C_7
REMARK    3  A    between atoms: C_7  and  C_8
REMARK    4  A    between atoms: C_11  and  S_12
REMARK    5  A    between atoms: S_12  and  C_13
REMARK                            x       y       z     vdW  Elec       q    Type
REMARK                         _______ _______ _______ _____ _____    ______ ____
ROOT
ATOM      1  C   UNL     1       4.406   4.752  16.980  0.00  0.00    +0.000 A 
ATOM      2  C   UNL     1       4.362   3.365  17.176  0.00  0.00    +0.000 A 
ATOM      3  C   UNL     1       3.369   2.789  17.976  0.00  0.00    +0.000 A 
ATOM      4  C   UNL     1       2.404   3.587  18.599  0.00  0.00    +0.000 A 
ATOM      5  C   UNL     1       2.435   4.969  18.395  0.00  0.00    +0.000 A 
ATOM      6  C   UNL     1       3.426   5.547  17.590  0.00  0.00    +0.000 A 
ENDROOT
BRANCH   1   7
ATOM      7  C   UNL     1       5.469   5.373  16.101  0.00  0.00    +0.000 C 
BRANCH   7  13
ATOM      8  C   UNL     1       8.844   9.677  18.206  0.00  0.00    +0.000 C 
ATOM      9  C   UNL     1       8.091   8.421  18.048  0.00  0.00    +0.000 A 
ATOM     10  N   UNL     1       8.255   7.263  18.649  0.00  0.00    +0.000 NA
ATOM     11  N   UNL     1       7.302   6.419  18.117  0.00  0.00    +0.000 NA
ATOM     12  C   UNL     1       6.624   7.122  17.234  0.00  0.00    +0.000 A 
ATOM     13  N   UNL     1       5.617   6.779  16.415  0.00  0.00    +0.000 N 
ATOM     14  O   UNL     1       7.073   8.411  17.133  0.00  0.00    +0.000 OA
ATOM     15  H   UNL     1       5.428   7.416  15.650  0.00  0.00    +0.000 HD
ENDBRANCH   7  13
ENDBRANCH   1   7
BRANCH   4  16
ATOM     16  S   UNL     1       1.107   2.803  19.537  0.00  0.00    +0.000 S 
BRANCH  16  17
ATOM     17  C   UNL     1       1.681   3.115  21.220  0.00  0.00    +0.000 C 
ATOM     18  F   UNL     1       0.888   2.493  22.129  0.00  0.00    +0.000 F 
ATOM     19  F   UNL     1       2.925   2.590  21.381  0.00  0.00    +0.000 F 
ENDBRANCH  16  17
ENDBRANCH   4  16
TORSDOF 4
ENDMDL
MODEL 2
REMARK VINA RESULT:      -7.0      0.444      1.360
REMARK  Name = 
REMARK  5 active torsions:
REMARK  status: ('A' for Active; 'I' for Inactive)
REMARK    1  A    between atoms: C_1  and  C_2
REMARK    2  A    between atoms: N_6  and  C_7
REMARK    3  A    between atoms: C_7  and  C_8
REMARK    4  A    between atoms: C_11  and  S_12
REMARK    5  A    between atoms: S_12  and  C_13
REMARK                            x       y       z     vdW  Elec       q    Type
REMARK                         _______ _______ _______ _____ _____    ______ ____
ROOT
ATOM      1  C   UNL     1       4.235   4.586  17.086  0.00  0.00    +0.000 A 
ATOM      2  C   UNL     1       3.253   5.422  17.635  0.00  0.00    +0.000 A 
ATOM      3  C   UNL     1       2.235   4.895  18.437  0.00  0.00    +0.000 A 
ATOM      4  C   UNL     1       2.175   3.523  18.703  0.00  0.00    +0.000 A 
ATOM      5  C   UNL     1       3.159   2.687  18.169  0.00  0.00    +0.000 A 
ATOM      6  C   UNL     1       4.183   3.214  17.370  0.00  0.00    +0.000 A 
ENDROOT
BRANCH   1   7
ATOM      7  C   UNL     1       5.346   5.158  16.234  0.00  0.00    +0.000 C 
BRANCH   7  13
ATOM      8  C   UNL     1       8.746   9.556  18.092  0.00  0.00    +0.000 C 
ATOM      9  C   UNL     1       7.997   8.291  18.000  0.00  0.00    +0.000 A 
ATOM     10  N   UNL     1       8.183   7.157  18.639  0.00  0.00    +0.000 NA
ATOM     11  N   UNL     1       7.222   6.289  18.163  0.00  0.00    +0.000 NA
ATOM     12  C   UNL     1       6.519   6.954  17.271  0.00  0.00    +0.000 A 
ATOM     13  N   UNL     1       5.493   6.575  16.492  0.00  0.00    +0.000 N 
ATOM     14  O   UNL     1       6.956   8.241  17.112  0.00  0.00    +0.000 OA
ATOM     15  H   UNL     1       5.281   7.182  15.709  0.00  0.00    +0.000 HD
ENDBRANCH   7  13
ENDBRANCH   1   7
BRANCH   4  16
ATOM     16  S   UNL     1       0.911   2.909  19.800  0.00  0.00    +0.000 S 
BRANCH  16  17
ATOM     17  C   UNL     1       1.844   2.784  21.341  0.00  0.00    +0.000 C 
ATOM     18  F   UNL     1       2.326   3.996  21.719  0.00  0.00    +0.000 F 
ATOM     19  F   UNL     1       1.018   2.377  22.341  0.00  0.00    +0.000 F 
ENDBRANCH  16  17
ENDBRANCH   4  16
TORSDOF 4
ENDMDL
MODEL 3
REMARK VINA RESULT:      -7.0      1.047      1.297
REMARK  Name = 
REMARK  5 active torsions:
REMARK  status: ('A' for Active; 'I' for Inactive)
REMARK    1  A    between atoms: C_1  and  C_2
REMARK    2  A    between atoms: N_6  and  C_7
REMARK    3  A    between atoms: C_7  and  C_8
REMARK    4  A    between atoms: C_11  and  S_12
REMARK    5  A    between atoms: S_12  and  C_13
REMARK                            x       y       z     vdW  Elec       q    Type
REMARK                         _______ _______ _______ _____ _____    ______ ____
ROOT
ATOM      1  C   UNL     1       5.242   4.288  17.264  0.00  0.00    +0.000 A 
ATOM      2  C   UNL     1       4.081   3.933  16.563  0.00  0.00    +0.000 A 
ATOM      3  C   UNL     1       3.002   3.340  17.227  0.00  0.00    +0.000 A 
ATOM      4  C   UNL     1       3.062   3.085  18.601  0.00  0.00    +0.000 A 
ATOM      5  C   UNL     1       4.212   3.450  19.306  0.00  0.00    +0.000 A 
ATOM      6  C   UNL     1       5.292   4.050  18.644  0.00  0.00    +0.000 A 
ENDROOT
BRANCH   1   7
ATOM      7  C   UNL     1       6.402   4.946  16.550  0.00  0.00    +0.000 C 
BRANCH   7  13
ATOM      8  C   UNL     1       8.760  10.094  18.067  0.00  0.00    +0.000 C 
ATOM      9  C   UNL     1       8.254   8.711  18.088  0.00  0.00    +0.000 A 
ATOM     10  N   UNL     1       8.554   7.719  18.898  0.00  0.00    +0.000 NA
ATOM     11  N   UNL     1       7.818   6.636  18.464  0.00  0.00    +0.000 NA
ATOM     12  C   UNL     1       7.121   7.043  17.424  0.00  0.00    +0.000 A 
ATOM     13  N   UNL     1       6.274   6.388  16.614  0.00  0.00    +0.000 N 
ATOM     14  O   UNL     1       7.349   8.359  17.123  0.00  0.00    +0.000 OA
ATOM     15  H   UNL     1       6.056   6.843  15.736  0.00  0.00    +0.000 HD
ENDBRANCH   7  13
ENDBRANCH   1   7
BRANCH   4  16
ATOM     16  S   UNL     1       1.631   2.408  19.420  0.00  0.00    +0.000 S 
BRANCH  16  17
ATOM     17  C   UNL     1       1.604   3.410  20.921  0.00  0.00    +0.000 C 
ATOM     18  F   UNL     1       0.812   4.501  20.765  0.00  0.00    +0.000 F 
ATOM     19  F   UNL     1       1.060   2.691  21.939  0.00  0.00    +0.000 F 
ENDBRANCH  16  17
ENDBRANCH   4  16
TORSDOF 4
ENDMDL
MODEL 4
REMARK VINA RESULT:      -6.9      1.161      1.278
REMARK  Name = 
REMARK  5 active torsions:
REMARK  status: ('A' for Active; 'I' for Inactive)
REMARK    1  A    between atoms: C_1  and  C_2
REMARK    2  A    between atoms: N_6  and  C_7
REMARK    3  A    between atoms: C_7  and  C_8
REMARK    4  A    between atoms: C_11  and  S_12
REMARK    5  A    between atoms: S_12  and  C_13
REMARK                            x       y       z     vdW  Elec       q    Type
REMARK                         _______ _______ _______ _____ _____    ______ ____
ROOT
ATOM      1  C   UNL     1       5.080   4.393  17.250  0.00  0.00    +0.000 A 
ATOM      2  C   UNL     1       5.283   4.029  18.588  0.00  0.00    +0.000 A 
ATOM      3  C   UNL     1       4.263   3.413  19.322  0.00  0.00    +0.000 A 
ATOM      4  C   UNL     1       3.020   3.155  18.736  0.00  0.00    +0.000 A 
ATOM      5  C   UNL     1       2.816   3.504  17.398  0.00  0.00    +0.000 A 
ATOM      6  C   UNL     1       3.839   4.116  16.660  0.00  0.00    +0.000 A 
ENDROOT
BRANCH   1   7
ATOM      7  C   UNL     1       6.188   5.042  16.451  0.00  0.00    +0.000 C 
BRANCH   7  13
ATOM      8  C   UNL     1       8.795  10.021  18.115  0.00  0.00    +0.000 C 
ATOM      9  C   UNL     1       8.235   8.659  18.091  0.00  0.00    +0.000 A 
ATOM     10  N   UNL     1       8.520   7.621  18.847  0.00  0.00    +0.000 NA
ATOM     11  N   UNL     1       7.728   6.588  18.390  0.00  0.00    +0.000 NA
ATOM     12  C   UNL     1       7.017   7.068  17.392  0.00  0.00    +0.000 A 
ATOM     13  N   UNL     1       6.120   6.483  16.582  0.00  0.00    +0.000 N 
ATOM     14  O   UNL     1       7.287   8.386  17.141  0.00  0.00    +0.000 OA
ATOM     15  H   UNL     1       5.894   6.985  15.732  0.00  0.00    +0.000 HD
ENDBRANCH   7  13
ENDBRANCH   1   7
BRANCH   4  16
ATOM     16  S   UNL     1       1.780   2.291  19.682  0.00  0.00    +0.000 S 
BRANCH  16  17
ATOM     17  C   UNL     1       1.237   3.606  20.793  0.00  0.00    +0.000 C 
ATOM     18  F   UNL     1       2.068   3.717  21.860  0.00  0.00    +0.000 F 
ATOM     19  F   UNL     1       1.290   4.801  20.145  0.00  0.00    +0.000 F 
ENDBRANCH  16  17
ENDBRANCH   4  16
TORSDOF 4
ENDMDL
MODEL 5
REMARK VINA RESULT:      -6.8      1.506      1.756
REMARK  Name = 
REMARK  5 active torsions:
REMARK  status: ('A' for Active; 'I' for Inactive)
REMARK    1  A    between atoms: C_1  and  C_2
REMARK    2  A    between atoms: N_6  and  C_7
REMARK    3  A    between atoms: C_7  and  C_8
REMARK    4  A    between atoms: C_11  and  S_12
REMARK    5  A    between atoms: S_12  and  C_13
REMARK                            x       y       z     vdW  Elec       q    Type
REMARK                         _______ _______ _______ _____ _____    ______ ____
ROOT
ATOM      1  C   UNL     1       4.660   3.911  17.362  0.00  0.00    +0.000 A 
ATOM      2  C   UNL     1       4.937   3.727  18.724  0.00  0.00    +0.000 A 
ATOM      3  C   UNL     1       3.941   3.924  19.687  0.00  0.00    +0.000 A 
ATOM      4  C   UNL     1       2.652   4.312  19.310  0.00  0.00    +0.000 A 
ATOM      5  C   UNL     1       2.367   4.484  17.952  0.00  0.00    +0.000 A 
ATOM      6  C   UNL     1       3.362   4.282  16.986  0.00  0.00    +0.000 A 
ENDROOT
BRANCH   1   7
ATOM      7  C   UNL     1       5.732   3.681  16.319  0.00  0.00    +0.000 C 
BRANCH   7  13
ATOM      8  C   UNL     1       8.432   8.465  18.366  0.00  0.00    +0.000 C 
ATOM      9  C   UNL     1       7.613   7.538  17.567  0.00  0.00    +0.000 A 
ATOM     10  N   UNL     1       6.600   7.790  16.765  0.00  0.00    +0.000 NA
ATOM     11  N   UNL     1       6.179   6.566  16.288  0.00  0.00    +0.000 NA
ATOM     12  C   UNL     1       6.963   5.657  16.828  0.00  0.00    +0.000 A 
ATOM     13  N   UNL     1       6.967   4.318  16.726  0.00  0.00    +0.000 N 
ATOM     14  O   UNL     1       7.904   6.203  17.658  0.00  0.00    +0.000 OA
ATOM     15  H   UNL     1       7.501   3.820  17.428  0.00  0.00    +0.000 HD
ENDBRANCH   7  13
ENDBRANCH   1   7
BRANCH   4  16
ATOM     16  S   UNL     1       1.393   4.466  20.562  0.00  0.00    +0.000 S 
BRANCH  16  17
ATOM     17  C   UNL     1       1.223   2.743  21.073  0.00  0.00    +0.000 C 
ATOM     18  F   UNL     1       1.481   1.900  20.041  0.00  0.00    +0.000 F 
ATOM     19  F   UNL     1       2.145   2.460  22.032  0.00  0.00    +0.000 F 
ENDBRANCH  16  17
ENDBRANCH   4  16
TORSDOF 4
ENDMDL
MODEL 6
REMARK VINA RESULT:      -6.8      5.229      6.894
REMARK  Name = 
REMARK  5 active torsions:
REMARK  status: ('A' for Active; 'I' for Inactive)
REMARK    1  A    between atoms: C_1  and  C_2
REMARK    2  A    between atoms: N_6  and  C_7
REMARK    3  A    between atoms: C_7  and  C_8
REMARK    4  A    between atoms: C_11  and  S_12
REMARK    5  A    between atoms: S_12  and  C_13
REMARK                            x       y       z     vdW  Elec       q    Type
REMARK                         _______ _______ _______ _____ _____    ______ ____
ROOT
ATOM      1  C   UNL     1       6.257   4.628  16.769  0.00  0.00    +0.000 A 
ATOM      2  C   UNL     1       7.309   5.151  16.004  0.00  0.00    +0.000 A 
ATOM      3  C   UNL     1       7.385   4.898  14.630  0.00  0.00    +0.000 A 
ATOM      4  C   UNL     1       6.416   4.115  13.995  0.00  0.00    +0.000 A 
ATOM      5  C   UNL     1       5.358   3.602  14.750  0.00  0.00    +0.000 A 
ATOM      6  C   UNL     1       5.277   3.859  16.126  0.00  0.00    +0.000 A 
ENDROOT
BRANCH   1   7
ATOM      7  C   UNL     1       6.165   4.916  18.251  0.00  0.00    +0.000 C 
BRANCH   7  13
ATOM      8  C   UNL     1       1.092   2.955  20.438  0.00  0.00    +0.000 C 
ATOM      9  C   UNL     1       2.279   3.774  20.140  0.00  0.00    +0.000 A 
ATOM     10  N   UNL     1       2.461   5.069  20.275  0.00  0.00    +0.000 NA
ATOM     11  N   UNL     1       3.742   5.323  19.828  0.00  0.00    +0.000 NA
ATOM     12  C   UNL     1       4.250   4.167  19.456  0.00  0.00    +0.000 A 
ATOM     13  N   UNL     1       5.441   3.855  18.921  0.00  0.00    +0.000 N 
ATOM     14  O   UNL     1       3.373   3.130  19.625  0.00  0.00    +0.000 OA
ATOM     15  H   UNL     1       5.509   2.942  18.486  0.00  0.00    +0.000 HD
ENDBRANCH   7  13
ENDBRANCH   1   7
BRANCH   4  16
ATOM     16  S   UNL     1       6.505   3.892  12.229  0.00  0.00    +0.000 S 
BRANCH  16  17
ATOM     17  C   UNL     1       4.952   3.023  11.926  0.00  0.00    +0.000 C 
ATOM     18  F   UNL     1       4.145   3.740  11.102  0.00  0.00    +0.000 F 
ATOM     19  F   UNL     1       5.204   1.851  11.284  0.00  0.00    +0.000 F 
ENDBRANCH  16  17
ENDBRANCH   4  16
TORSDOF 4
ENDMDL
MODEL 7
REMARK VINA RESULT:      -6.8      5.258      6.908
REMARK  Name = 
REMARK  5 active torsions:
REMARK  status: ('A' for Active; 'I' for Inactive)
REMARK    1  A    between atoms: C_1  and  C_2
REMARK    2  A    between atoms: N_6  and  C_7
REMARK    3  A    between atoms: C_7  and  C_8
REMARK    4  A    between atoms: C_11  and  S_12
REMARK    5  A    between atoms: S_12  and  C_13
REMARK                            x       y       z     vdW  Elec       q    Type
REMARK                         _______ _______ _______ _____ _____    ______ ____
ROOT
ATOM      1  C   UNL     1       6.215   4.605  16.716  0.00  0.00    +0.000 A 
ATOM      2  C   UNL     1       5.161   4.015  16.004  0.00  0.00    +0.000 A 
ATOM      3  C   UNL     1       5.257   3.820  14.622  0.00  0.00    +0.000 A 
ATOM      4  C   UNL     1       6.404   4.214  13.924  0.00  0.00    +0.000 A 
ATOM      5  C   UNL     1       7.462   4.789  14.632  0.00  0.00    +0.000 A 
ATOM      6  C   UNL     1       7.370   4.981  16.017  0.00  0.00    +0.000 A 
ENDROOT
BRANCH   1   7
ATOM      7  C   UNL     1       6.119   4.800  18.213  0.00  0.00    +0.000 C 
BRANCH   7  13
ATOM      8  C   UNL     1       0.940   3.029  20.310  0.00  0.00    +0.000 C 
ATOM      9  C   UNL     1       2.180   3.783  20.062  0.00  0.00    +0.000 A 
ATOM     10  N   UNL     1       2.457   5.047  20.301  0.00  0.00    +0.000 NA
ATOM     11  N   UNL     1       3.748   5.245  19.856  0.00  0.00    +0.000 NA
ATOM     12  C   UNL     1       4.167   4.091  19.382  0.00  0.00    +0.000 A 
ATOM     13  N   UNL     1       5.328   3.741  18.804  0.00  0.00    +0.000 N 
ATOM     14  O   UNL     1       3.219   3.109  19.478  0.00  0.00    +0.000 OA
ATOM     15  H   UNL     1       5.325   2.865  18.294  0.00  0.00    +0.000 HD
ENDBRANCH   7  13
ENDBRANCH   1   7
BRANCH   4  16
ATOM     16  S   UNL     1       6.517   3.866  12.179  0.00  0.00    +0.000 S 
BRANCH  16  17
ATOM     17  C   UNL     1       4.998   2.921  11.931  0.00  0.00    +0.000 C 
ATOM     18  F   UNL     1       4.148   3.575  11.099  0.00  0.00    +0.000 F 
ATOM     19  F   UNL     1       5.291   1.741  11.322  0.00  0.00    +0.000 F 
ENDBRANCH  16  17
ENDBRANCH   4  16
TORSDOF 4
ENDMDL
MODEL 8
REMARK VINA RESULT:      -6.7      1.358      1.889
REMARK  Name = 
REMARK  5 active torsions:
REMARK  status: ('A' for Active; 'I' for Inactive)
REMARK    1  A    between atoms: C_1  and  C_2
REMARK    2  A    between atoms: N_6  and  C_7
REMARK    3  A    between atoms: C_7  and  C_8
REMARK    4  A    between atoms: C_11  and  S_12
REMARK    5  A    between atoms: S_12  and  C_13
REMARK                            x       y       z     vdW  Elec       q    Type
REMARK                         _______ _______ _______ _____ _____    ______ ____
ROOT
ATOM      1  C   UNL     1       5.006   4.285  17.927  0.00  0.00    +0.000 A 
ATOM      2  C   UNL     1       4.773   5.111  19.036  0.00  0.00    +0.000 A 
ATOM      3  C   UNL     1       3.575   5.019  19.754  0.00  0.00    +0.000 A 
ATOM      4  C   UNL     1       2.585   4.107  19.375  0.00  0.00    +0.000 A 
ATOM      5  C   UNL     1       2.818   3.273  18.278  0.00  0.00    +0.000 A 
ATOM      6  C   UNL     1       4.020   3.359  17.562  0.00  0.00    +0.000 A 
ENDROOT
BRANCH   1   7
ATOM      7  C   UNL     1       6.308   4.371  17.162  0.00  0.00    +0.000 C 
BRANCH   7  13
ATOM      8  C   UNL     1       8.844   9.321  19.014  0.00  0.00    +0.000 C 
ATOM      9  C   UNL     1       8.292   8.246  18.173  0.00  0.00    +0.000 A 
ATOM     10  N   UNL     1       7.874   8.286  16.926  0.00  0.00    +0.000 NA
ATOM     11  N   UNL     1       7.431   7.013  16.631  0.00  0.00    +0.000 NA
ATOM     12  C   UNL     1       7.612   6.288  17.715  0.00  0.00    +0.000 A 
ATOM     13  N   UNL     1       7.325   5.003  17.978  0.00  0.00    +0.000 N 
ATOM     14  O   UNL     1       8.157   7.008  18.743  0.00  0.00    +0.000 OA
ATOM     15  H   UNL     1       7.322   4.738  18.956  0.00  0.00    +0.000 HD
ENDBRANCH   7  13
ENDBRANCH   1   7
BRANCH   4  16
ATOM     16  S   UNL     1       1.113   3.965  20.370  0.00  0.00    +0.000 S 
BRANCH  16  17
ATOM     17  C   UNL     1       1.533   2.527  21.378  0.00  0.00    +0.000 C 
ATOM     18  F   UNL     1       2.796   2.626  21.865  0.00  0.00    +0.000 F 
ATOM     19  F   UNL     1       0.712   2.476  22.462  0.00  0.00    +0.000 F 
ENDBRANCH  16  17
ENDBRANCH   4  16
TORSDOF 4
ENDMDL
MODEL 9
REMARK VINA RESULT:      -6.7      2.281      3.188
REMARK  Name = 
REMARK  5 active torsions:
REMARK  status: ('A' for Active; 'I' for Inactive)
REMARK    1  A    between atoms: C_1  and  C_2
REMARK    2  A    between atoms: N_6  and  C_7
REMARK    3  A    between atoms: C_7  and  C_8
REMARK    4  A    between atoms: C_11  and  S_12
REMARK    5  A    between atoms: S_12  and  C_13
REMARK                            x       y       z     vdW  Elec       q    Type
REMARK                         _______ _______ _______ _____ _____    ______ ____
ROOT
ATOM      1  C   UNL     1       4.201   5.837  18.009  0.00  0.00    +0.000 A 
ATOM      2  C   UNL     1       4.846   4.742  18.601  0.00  0.00    +0.000 A 
ATOM      3  C   UNL     1       4.105   3.722  19.209  0.00  0.00    +0.000 A 
ATOM      4  C   UNL     1       2.708   3.777  19.240  0.00  0.00    +0.000 A 
ATOM      5  C   UNL     1       2.060   4.860  18.639  0.00  0.00    +0.000 A 
ATOM      6  C   UNL     1       2.801   5.880  18.025  0.00  0.00    +0.000 A 
ENDROOT
BRANCH   1   7
ATOM      7  C   UNL     1       5.001   6.930  17.336  0.00  0.00    +0.000 C 
BRANCH   7  13
ATOM      8  C   UNL     1       6.704   3.787  12.691  0.00  0.00    +0.000 C 
ATOM      9  C   UNL     1       6.690   4.579  13.932  0.00  0.00    +0.000 A 
ATOM     10  N   UNL     1       7.580   4.639  14.900  0.00  0.00    +0.000 NA
ATOM     11  N   UNL     1       7.065   5.513  15.836  0.00  0.00    +0.000 NA
ATOM     12  C   UNL     1       5.904   5.924  15.374  0.00  0.00    +0.000 A 
ATOM     13  N   UNL     1       4.984   6.749  15.899  0.00  0.00    +0.000 N 
ATOM     14  O   UNL     1       5.595   5.369  14.162  0.00  0.00    +0.000 OA
ATOM     15  H   UNL     1       4.063   6.716  15.477  0.00  0.00    +0.000 HD
ENDBRANCH   7  13
ENDBRANCH   1   7
BRANCH   4  16
ATOM     16  S   UNL     1       1.804   2.414  19.948  0.00  0.00    +0.000 S 
BRANCH  16  17
ATOM     17  C   UNL     1       2.032   2.744  21.708  0.00  0.00    +0.000 C 
ATOM     18  F   UNL     1       2.237   4.066  21.934  0.00  0.00    +0.000 F 
ATOM     19  F   UNL     1       0.897   2.416  22.383  0.00  0.00    +0.000 F 
ENDBRANCH  16  17
ENDBRANCH   4  16
TORSDOF 4
ENDMDL
