MODEL 1
REMARK VINA RESULT:      -7.4      0.000      0.000
REMARK  Name = 
REMARK  5 active torsions:
REMARK  status: ('A' for Active; 'I' for Inactive)
REMARK    1  A    between atoms: N_7  and  C_8
REMARK    2  A    between atoms: C_8  and  C_9
REMARK    3  A    between atoms: C_9  and  C_10
REMARK    4  A    between atoms: C_10  and  C_11
REMARK    5  A    between atoms: C_11  and  N_12
REMARK                            x       y       z     vdW  Elec       q    Type
REMARK                         _______ _______ _______ _____ _____    ______ ____
ROOT
ATOM      1  N   UNL     1       3.879   5.826  18.241  0.00  0.00    +0.000 NA
ATOM      2  C   UNL     1       3.684   7.069  17.477  0.00  0.00    +0.000 C 
ATOM      3  C   UNL     1       2.227   7.457  17.600  0.00  0.00    +0.000 C 
ATOM      4  N   UNL     1       1.941   7.700  19.007  0.00  0.00    +0.000 N 
ATOM      5  C   UNL     1       1.535   9.021  19.404  0.00  0.00    +0.000 A 
ATOM      6  N   UNL     1       1.886  10.082  18.622  0.00  0.00    +0.000 NA
ATOM      7  S   UNL     1       1.307  11.460  19.340  0.00  0.00    +0.000 S 
ATOM      8  C   UNL     1       0.569  10.758  20.643  0.00  0.00    +0.000 A 
ATOM      9  C   UNL     1      -0.144  11.372  21.661  0.00  0.00    +0.000 A 
ATOM     10  C   UNL     1      -0.708  10.560  22.649  0.00  0.00    +0.000 A 
ATOM     11  C   UNL     1      -0.560   9.162  22.585  0.00  0.00    +0.000 A 
ATOM     12  C   UNL     1       0.169   8.562  21.541  0.00  0.00    +0.000 A 
ATOM     13  C   UNL     1       0.763   9.378  20.557  0.00  0.00    +0.000 A 
ATOM     14  C   UNL     1       2.233   6.598  19.920  0.00  0.00    +0.000 C 
ATOM     15  C   UNL     1       3.681   6.099  19.685  0.00  0.00    +0.000 C 
ENDROOT
BRANCH   1  16
ATOM     16  C   UNL     1       5.162   5.198  17.872  0.00  0.00    +0.000 C 
BRANCH  16  17
ATOM     17  C   UNL     1       4.994   4.052  16.860  0.00  0.00    +0.000 C 
BRANCH  17  18
ATOM     18  C   UNL     1       3.585   3.418  16.843  0.00  0.00    +0.000 C 
BRANCH  18  19
ATOM     19  C   UNL     1       3.448   2.171  17.736  0.00  0.00    +0.000 C 
BRANCH  19  26
ATOM     20  O   UNL     1       0.712   2.685  18.223  0.00  0.00    +0.000 OA
ATOM     21  C   UNL     1       1.491   2.719  19.165  0.00  0.00    +0.000 C 
ATOM     22  C   UNL     1       1.015   3.003  20.554  0.00  0.00    +0.000 C 
ATOM     23  S   UNL     1       2.496   2.967  21.628  0.00  0.00    +0.000 S 
ATOM     24  C   UNL     1       3.484   2.567  20.193  0.00  0.00    +0.000 C 
ATOM     25  O   UNL     1       4.684   2.362  20.281  0.00  0.00    +0.000 OA
ATOM     26  N   UNL     1       2.817   2.492  19.019  0.00  0.00    +0.000 N 
ENDBRANCH  19  26
ENDBRANCH  18  19
ENDBRANCH  17  18
ENDBRANCH  16  17
ENDBRANCH   1  16
TORSDOF 5
ENDMDL
MODEL 2
REMARK VINA RESULT:      -7.3      0.470      1.496
REMARK  Name = 
REMARK  5 active torsions:
REMARK  status: ('A' for Active; 'I' for Inactive)
REMARK    1  A    between atoms: N_7  and  C_8
REMARK    2  A    between atoms: C_8  and  C_9
REMARK    3  A    between atoms: C_9  and  C_10
REMARK    4  A    between atoms: C_10  and  C_11
REMARK    5  A    between atoms: C_11  and  N_12
REMARK                            x       y       z     vdW  Elec       q    Type
REMARK                         _______ _______ _______ _____ _____    ______ ____
ROOT
ATOM      1  N   UNL     1       3.803   6.093  18.210  0.00  0.00    +0.000 NA
ATOM      2  C   UNL     1       3.588   7.364  17.501  0.00  0.00    +0.000 C 
ATOM      3  C   UNL     1       2.126   7.724  17.643  0.00  0.00    +0.000 C 
ATOM      4  N   UNL     1       1.840   7.903  19.059  0.00  0.00    +0.000 N 
ATOM      5  C   UNL     1       1.416   9.199  19.514  0.00  0.00    +0.000 A 
ATOM      6  N   UNL     1       1.749  10.298  18.777  0.00  0.00    +0.000 NA
ATOM      7  S   UNL     1       1.151  11.636  19.554  0.00  0.00    +0.000 S 
ATOM      8  C   UNL     1       0.428  10.867  20.827  0.00  0.00    +0.000 A 
ATOM      9  C   UNL     1      -0.292  11.427  21.872  0.00  0.00    +0.000 A 
ATOM     10  C   UNL     1      -0.842  10.565  22.826  0.00  0.00    +0.000 A 
ATOM     11  C   UNL     1      -0.673   9.173  22.702  0.00  0.00    +0.000 A 
ATOM     12  C   UNL     1       0.062   8.629  21.631  0.00  0.00    +0.000 A 
ATOM     13  C   UNL     1       0.641   9.496  20.683  0.00  0.00    +0.000 A 
ATOM     14  C   UNL     1       2.151   6.768  19.924  0.00  0.00    +0.000 C 
ATOM     15  C   UNL     1       3.605   6.301  19.665  0.00  0.00    +0.000 C 
ENDROOT
BRANCH   1  16
ATOM     16  C   UNL     1       5.094   5.500  17.813  0.00  0.00    +0.000 C 
BRANCH  16  17
ATOM     17  C   UNL     1       4.933   4.323  16.836  0.00  0.00    +0.000 C 
BRANCH  17  18
ATOM     18  C   UNL     1       3.536   3.665  16.857  0.00  0.00    +0.000 C 
BRANCH  18  19
ATOM     19  C   UNL     1       3.476   2.344  17.647  0.00  0.00    +0.000 C 
BRANCH  19  26
ATOM     20  O   UNL     1       4.881   2.396  20.098  0.00  0.00    +0.000 OA
ATOM     21  C   UNL     1       3.670   2.559  20.115  0.00  0.00    +0.000 C 
ATOM     22  C   UNL     1       2.937   2.805  21.395  0.00  0.00    +0.000 C 
ATOM     23  S   UNL     1       1.170   2.980  20.958  0.00  0.00    +0.000 S 
ATOM     24  C   UNL     1       1.608   2.757  19.239  0.00  0.00    +0.000 C 
ATOM     25  O   UNL     1       0.770   2.812  18.354  0.00  0.00    +0.000 OA
ATOM     26  N   UNL     1       2.920   2.542  18.988  0.00  0.00    +0.000 N 
ENDBRANCH  19  26
ENDBRANCH  18  19
ENDBRANCH  17  18
ENDBRANCH  16  17
ENDBRANCH   1  16
TORSDOF 5
ENDMDL
MODEL 3
REMARK VINA RESULT:      -6.7      1.062      1.331
REMARK  Name = 
REMARK  5 active torsions:
REMARK  status: ('A' for Active; 'I' for Inactive)
REMARK    1  A    between atoms: N_7  and  C_8
REMARK    2  A    between atoms: C_8  and  C_9
REMARK    3  A    between atoms: C_9  and  C_10
REMARK    4  A    between atoms: C_10  and  C_11
REMARK    5  A    between atoms: C_11  and  N_12
REMARK                            x       y       z     vdW  Elec       q    Type
REMARK                         _______ _______ _______ _____ _____    ______ ____
ROOT
ATOM      1  N   UNL     1       2.836   6.828  18.730  0.00  0.00    +0.000 NA
ATOM      2  C   UNL     1       2.914   8.073  17.950  0.00  0.00    +0.000 C 
ATOM      3  C   UNL     1       1.547   8.721  17.987  0.00  0.00    +0.000 C 
ATOM      4  N   UNL     1       1.233   9.035  19.373  0.00  0.00    +0.000 N 
ATOM      5  C   UNL     1       1.054  10.413  19.740  0.00  0.00    +0.000 A 
ATOM      6  N   UNL     1       1.635  11.380  18.974  0.00  0.00    +0.000 NA
ATOM      7  S   UNL     1       1.278  12.852  19.650  0.00  0.00    +0.000 S 
ATOM      8  C   UNL     1       0.353  12.316  20.912  0.00  0.00    +0.000 A 
ATOM      9  C   UNL     1      -0.291  13.066  21.884  0.00  0.00    +0.000 A 
ATOM     10  C   UNL     1      -1.049  12.385  22.842  0.00  0.00    +0.000 A 
ATOM     11  C   UNL     1      -1.155  10.983  22.794  0.00  0.00    +0.000 A 
ATOM     12  C   UNL     1      -0.490  10.244  21.796  0.00  0.00    +0.000 A 
ATOM     13  C   UNL     1       0.296  10.923  20.845  0.00  0.00    +0.000 A 
ATOM     14  C   UNL     1       1.268   7.912  20.308  0.00  0.00    +0.000 C 
ATOM     15  C   UNL     1       2.611   7.155  20.159  0.00  0.00    +0.000 C 
ENDROOT
BRANCH   1  16
ATOM     16  C   UNL     1       4.001   5.971  18.440  0.00  0.00    +0.000 C 
BRANCH  16  17
ATOM     17  C   UNL     1       3.794   5.086  17.199  0.00  0.00    +0.000 C 
BRANCH  17  18
ATOM     18  C   UNL     1       4.529   3.728  17.256  0.00  0.00    +0.000 C 
BRANCH  18  19
ATOM     19  C   UNL     1       3.619   2.535  17.605  0.00  0.00    +0.000 C 
BRANCH  19  26
ATOM     20  O   UNL     1       0.922   3.271  18.014  0.00  0.00    +0.000 OA
ATOM     21  C   UNL     1       1.632   3.083  18.992  0.00  0.00    +0.000 C 
ATOM     22  C   UNL     1       1.091   3.214  20.380  0.00  0.00    +0.000 C 
ATOM     23  S   UNL     1       2.481   2.861  21.515  0.00  0.00    +0.000 S 
ATOM     24  C   UNL     1       3.523   2.566  20.092  0.00  0.00    +0.000 C 
ATOM     25  O   UNL     1       4.687   2.220  20.213  0.00  0.00    +0.000 OA
ATOM     26  N   UNL     1       2.935   2.735  18.885  0.00  0.00    +0.000 N 
ENDBRANCH  19  26
ENDBRANCH  18  19
ENDBRANCH  17  18
ENDBRANCH  16  17
ENDBRANCH   1  16
TORSDOF 5
ENDMDL
MODEL 4
REMARK VINA RESULT:      -6.6      2.509      3.844
REMARK  Name = 
REMARK  5 active torsions:
REMARK  status: ('A' for Active; 'I' for Inactive)
REMARK    1  A    between atoms: N_7  and  C_8
REMARK    2  A    between atoms: C_8  and  C_9
REMARK    3  A    between atoms: C_9  and  C_10
REMARK    4  A    between atoms: C_10  and  C_11
REMARK    5  A    between atoms: C_11  and  N_12
REMARK                            x       y       z     vdW  Elec       q    Type
REMARK                         _______ _______ _______ _____ _____    ______ ____
ROOT
ATOM      1  N   UNL     1       1.874   7.788  19.143  0.00  0.00    +0.000 NA
ATOM      2  C   UNL     1       2.208   9.030  18.428  0.00  0.00    +0.000 C 
ATOM      3  C   UNL     1       0.975   9.907  18.436  0.00  0.00    +0.000 C 
ATOM      4  N   UNL     1       0.650  10.217  19.820  0.00  0.00    +0.000 N 
ATOM      5  C   UNL     1       0.695  11.590  20.244  0.00  0.00    +0.000 A 
ATOM      6  N   UNL     1       1.474  12.468  19.550  0.00  0.00    +0.000 NA
ATOM      7  S   UNL     1       1.346  13.952  20.279  0.00  0.00    +0.000 S 
ATOM      8  C   UNL     1       0.279  13.539  21.472  0.00  0.00    +0.000 A 
ATOM      9  C   UNL     1      -0.274  14.352  22.450  0.00  0.00    +0.000 A 
ATOM     10  C   UNL     1      -1.186  13.779  23.341  0.00  0.00    +0.000 A 
ATOM     11  C   UNL     1      -1.533  12.420  23.222  0.00  0.00    +0.000 A 
ATOM     12  C   UNL     1      -0.957  11.615  22.221  0.00  0.00    +0.000 A 
ATOM     13  C   UNL     1      -0.017  12.181  21.337  0.00  0.00    +0.000 A 
ATOM     14  C   UNL     1       0.441   9.070  20.701  0.00  0.00    +0.000 C 
ATOM     15  C   UNL     1       1.637   8.094  20.575  0.00  0.00    +0.000 C 
ENDROOT
BRANCH   1  16
ATOM     16  C   UNL     1       2.885   6.751  18.863  0.00  0.00    +0.000 C 
BRANCH  16  17
ATOM     17  C   UNL     1       2.378   5.672  17.893  0.00  0.00    +0.000 C 
BRANCH  17  18
ATOM     18  C   UNL     1       3.167   4.344  17.947  0.00  0.00    +0.000 C 
BRANCH  18  19
ATOM     19  C   UNL     1       4.318   4.257  16.927  0.00  0.00    +0.000 C 
BRANCH  19  26
ATOM     20  O   UNL     1       5.406   6.523  15.637  0.00  0.00    +0.000 OA
ATOM     21  C   UNL     1       5.927   6.133  16.672  0.00  0.00    +0.000 C 
ATOM     22  C   UNL     1       7.101   6.844  17.266  0.00  0.00    +0.000 C 
ATOM     23  S   UNL     1       7.553   5.925  18.782  0.00  0.00    +0.000 S 
ATOM     24  C   UNL     1       6.190   4.810  18.471  0.00  0.00    +0.000 C 
ATOM     25  O   UNL     1       5.922   3.900  19.239  0.00  0.00    +0.000 OA
ATOM     26  N   UNL     1       5.474   5.052  17.349  0.00  0.00    +0.000 N 
ENDBRANCH  19  26
ENDBRANCH  18  19
ENDBRANCH  17  18
ENDBRANCH  16  17
ENDBRANCH   1  16
TORSDOF 5
ENDMDL
MODEL 5
REMARK VINA RESULT:      -6.6      1.308      2.460
REMARK  Name = 
REMARK  5 active torsions:
REMARK  status: ('A' for Active; 'I' for Inactive)
REMARK    1  A    between atoms: N_7  and  C_8
REMARK    2  A    between atoms: C_8  and  C_9
REMARK    3  A    between atoms: C_9  and  C_10
REMARK    4  A    between atoms: C_10  and  C_11
REMARK    5  A    between atoms: C_11  and  N_12
REMARK                            x       y       z     vdW  Elec       q    Type
REMARK                         _______ _______ _______ _____ _____    ______ ____
ROOT
ATOM      1  N   UNL     1       2.280   7.248  19.167  0.00  0.00    +0.000 NA
ATOM      2  C   UNL     1       2.526   8.477  18.396  0.00  0.00    +0.000 C 
ATOM      3  C   UNL     1       1.233   9.262  18.362  0.00  0.00    +0.000 C 
ATOM      4  N   UNL     1       0.880   9.610  19.730  0.00  0.00    +0.000 N 
ATOM      5  C   UNL     1       0.824  11.001  20.090  0.00  0.00    +0.000 A 
ATOM      6  N   UNL     1       1.540  11.901  19.358  0.00  0.00    +0.000 NA
ATOM      7  S   UNL     1       1.302  13.404  20.017  0.00  0.00    +0.000 S 
ATOM      8  C   UNL     1       0.261  12.969  21.227  0.00  0.00    +0.000 A 
ATOM      9  C   UNL     1      -0.354  13.784  22.165  0.00  0.00    +0.000 A 
ATOM     10  C   UNL     1      -1.226  13.187  23.081  0.00  0.00    +0.000 A 
ATOM     11  C   UNL     1      -1.473  11.803  23.024  0.00  0.00    +0.000 A 
ATOM     12  C   UNL     1      -0.836  10.997  22.061  0.00  0.00    +0.000 A 
ATOM     13  C   UNL     1       0.065  11.589  21.154  0.00  0.00    +0.000 A 
ATOM     14  C   UNL     1       0.750   8.493  20.662  0.00  0.00    +0.000 C 
ATOM     15  C   UNL     1       2.015   7.601  20.583  0.00  0.00    +0.000 C 
ENDROOT
BRANCH   1  16
ATOM     16  C   UNL     1       3.365   6.275  18.937  0.00  0.00    +0.000 C 
BRANCH  16  17
ATOM     17  C   UNL     1       3.346   5.690  17.515  0.00  0.00    +0.000 C 
BRANCH  17  18
ATOM     18  C   UNL     1       4.307   4.497  17.306  0.00  0.00    +0.000 C 
BRANCH  18  19
ATOM     19  C   UNL     1       3.638   3.118  17.457  0.00  0.00    +0.000 C 
BRANCH  19  26
ATOM     20  O   UNL     1       4.972   2.653  19.904  0.00  0.00    +0.000 OA
ATOM     21  C   UNL     1       3.752   2.739  19.910  0.00  0.00    +0.000 C 
ATOM     22  C   UNL     1       2.972   2.626  21.181  0.00  0.00    +0.000 C 
ATOM     23  S   UNL     1       1.209   2.803  20.726  0.00  0.00    +0.000 S 
ATOM     24  C   UNL     1       1.706   3.028  19.024  0.00  0.00    +0.000 C 
ATOM     25  O   UNL     1       0.890   3.249  18.144  0.00  0.00    +0.000 OA
ATOM     26  N   UNL     1       3.035   2.954  18.782  0.00  0.00    +0.000 N 
ENDBRANCH  19  26
ENDBRANCH  18  19
ENDBRANCH  17  18
ENDBRANCH  16  17
ENDBRANCH   1  16
TORSDOF 5
ENDMDL
MODEL 6
REMARK VINA RESULT:      -6.6      2.693      3.720
REMARK  Name = 
REMARK  5 active torsions:
REMARK  status: ('A' for Active; 'I' for Inactive)
REMARK    1  A    between atoms: N_7  and  C_8
REMARK    2  A    between atoms: C_8  and  C_9
REMARK    3  A    between atoms: C_9  and  C_10
REMARK    4  A    between atoms: C_10  and  C_11
REMARK    5  A    between atoms: C_11  and  N_12
REMARK                            x       y       z     vdW  Elec       q    Type
REMARK                         _______ _______ _______ _____ _____    ______ ____
ROOT
ATOM      1  N   UNL     1       2.065   7.707  18.640  0.00  0.00    +0.000 NA
ATOM      2  C   UNL     1       2.238   8.992  17.943  0.00  0.00    +0.000 C 
ATOM      3  C   UNL     1       0.940   9.758  18.070  0.00  0.00    +0.000 C 
ATOM      4  N   UNL     1       0.695  10.001  19.484  0.00  0.00    +0.000 N 
ATOM      5  C   UNL     1       0.656  11.361  19.949  0.00  0.00    +0.000 A 
ATOM      6  N   UNL     1       1.303  12.322  19.230  0.00  0.00    +0.000 NA
ATOM      7  S   UNL     1       1.105  13.770  20.014  0.00  0.00    +0.000 S 
ATOM      8  C   UNL     1       0.170  13.233  21.268  0.00  0.00    +0.000 A 
ATOM      9  C   UNL     1      -0.375  13.969  22.310  0.00  0.00    +0.000 A 
ATOM     10  C   UNL     1      -1.166  13.295  23.246  0.00  0.00    +0.000 A 
ATOM     11  C   UNL     1      -1.404  11.915  23.107  0.00  0.00    +0.000 A 
ATOM     12  C   UNL     1      -0.840  11.190  22.040  0.00  0.00    +0.000 A 
ATOM     13  C   UNL     1      -0.020  11.859  21.110  0.00  0.00    +0.000 A 
ATOM     14  C   UNL     1       0.650   8.817  20.339  0.00  0.00    +0.000 C 
ATOM     15  C   UNL     1       1.912   7.953  20.094  0.00  0.00    +0.000 C 
ENDROOT
BRANCH   1  16
ATOM     16  C   UNL     1       3.137   6.769  18.253  0.00  0.00    +0.000 C 
BRANCH  16  17
ATOM     17  C   UNL     1       3.515   5.799  19.384  0.00  0.00    +0.000 C 
BRANCH  17  18
ATOM     18  C   UNL     1       5.017   5.442  19.442  0.00  0.00    +0.000 C 
BRANCH  18  19
ATOM     19  C   UNL     1       5.368   4.095  18.783  0.00  0.00    +0.000 C 
BRANCH  19  26
ATOM     20  O   UNL     1       3.635   3.769  16.576  0.00  0.00    +0.000 OA
ATOM     21  C   UNL     1       4.796   4.087  16.365  0.00  0.00    +0.000 C 
ATOM     22  C   UNL     1       5.296   4.325  14.976  0.00  0.00    +0.000 C 
ATOM     23  S   UNL     1       7.065   4.763  15.128  0.00  0.00    +0.000 S 
ATOM     24  C   UNL     1       6.913   4.621  16.903  0.00  0.00    +0.000 C 
ATOM     25  O   UNL     1       7.852   4.855  17.646  0.00  0.00    +0.000 OA
ATOM     26  N   UNL     1       5.694   4.257  17.364  0.00  0.00    +0.000 N 
ENDBRANCH  19  26
ENDBRANCH  18  19
ENDBRANCH  17  18
ENDBRANCH  16  17
ENDBRANCH   1  16
TORSDOF 5
ENDMDL
MODEL 7
REMARK VINA RESULT:      -6.5      1.906      3.035
REMARK  Name = 
REMARK  5 active torsions:
REMARK  status: ('A' for Active; 'I' for Inactive)
REMARK    1  A    between atoms: N_7  and  C_8
REMARK    2  A    between atoms: C_8  and  C_9
REMARK    3  A    between atoms: C_9  and  C_10
REMARK    4  A    between atoms: C_10  and  C_11
REMARK    5  A    between atoms: C_11  and  N_12
REMARK                            x       y       z     vdW  Elec       q    Type
REMARK                         _______ _______ _______ _____ _____    ______ ____
ROOT
ATOM      1  N   UNL     1       1.618   7.912  19.402  0.00  0.00    +0.000 NA
ATOM      2  C   UNL     1       1.937   9.118  18.621  0.00  0.00    +0.000 C 
ATOM      3  C   UNL     1       0.716  10.012  18.643  0.00  0.00    +0.000 C 
ATOM      4  N   UNL     1       0.453  10.383  20.025  0.00  0.00    +0.000 N 
ATOM      5  C   UNL     1       0.532  11.772  20.388  0.00  0.00    +0.000 A 
ATOM      6  N   UNL     1       1.293  12.610  19.627  0.00  0.00    +0.000 NA
ATOM      7  S   UNL     1       1.213  14.125  20.297  0.00  0.00    +0.000 S 
ATOM      8  C   UNL     1       0.191  13.776  21.550  0.00  0.00    +0.000 A 
ATOM      9  C   UNL     1      -0.311  14.637  22.514  0.00  0.00    +0.000 A 
ATOM     10  C   UNL     1      -1.193  14.114  23.465  0.00  0.00    +0.000 A 
ATOM     11  C   UNL     1      -1.560  12.757  23.418  0.00  0.00    +0.000 A 
ATOM     12  C   UNL     1      -1.037  11.903  22.428  0.00  0.00    +0.000 A 
ATOM     13  C   UNL     1      -0.127  12.419  21.484  0.00  0.00    +0.000 A 
ATOM     14  C   UNL     1       0.266   9.277  20.961  0.00  0.00    +0.000 C 
ATOM     15  C   UNL     1       1.444   8.280  20.827  0.00  0.00    +0.000 C 
ENDROOT
BRANCH   1  16
ATOM     16  C   UNL     1       2.604   6.850  19.125  0.00  0.00    +0.000 C 
BRANCH  16  17
ATOM     17  C   UNL     1       3.142   6.899  17.685  0.00  0.00    +0.000 C 
BRANCH  17  18
ATOM     18  C   UNL     1       4.560   6.311  17.515  0.00  0.00    +0.000 C 
BRANCH  18  19
ATOM     19  C   UNL     1       4.583   4.883  16.936  0.00  0.00    +0.000 C 
BRANCH  19  26
ATOM     20  O   UNL     1       2.238   3.310  16.865  0.00  0.00    +0.000 OA
ATOM     21  C   UNL     1       3.004   3.176  17.809  0.00  0.00    +0.000 C 
ATOM     22  C   UNL     1       2.729   2.187  18.897  0.00  0.00    +0.000 C 
ATOM     23  S   UNL     1       4.110   2.329  20.089  0.00  0.00    +0.000 S 
ATOM     24  C   UNL     1       4.845   3.574  19.037  0.00  0.00    +0.000 C 
ATOM     25  O   UNL     1       5.919   4.086  19.307  0.00  0.00    +0.000 OA
ATOM     26  N   UNL     1       4.145   3.894  17.924  0.00  0.00    +0.000 N 
ENDBRANCH  19  26
ENDBRANCH  18  19
ENDBRANCH  17  18
ENDBRANCH  16  17
ENDBRANCH   1  16
TORSDOF 5
ENDMDL
MODEL 8
REMARK VINA RESULT:      -6.5      1.874      3.298
REMARK  Name = 
REMARK  5 active torsions:
REMARK  status: ('A' for Active; 'I' for Inactive)
REMARK    1  A    between atoms: N_7  and  C_8
REMARK    2  A    between atoms: C_8  and  C_9
REMARK    3  A    between atoms: C_9  and  C_10
REMARK    4  A    between atoms: C_10  and  C_11
REMARK    5  A    between atoms: C_11  and  N_12
REMARK                            x       y       z     vdW  Elec       q    Type
REMARK                         _______ _______ _______ _____ _____    ______ ____
ROOT
ATOM      1  N   UNL     1       1.730   7.914  19.160  0.00  0.00    +0.000 NA
ATOM      2  C   UNL     1       2.065   9.115  18.377  0.00  0.00    +0.000 C 
ATOM      3  C   UNL     1       0.859  10.027  18.402  0.00  0.00    +0.000 C 
ATOM      4  N   UNL     1       0.605  10.404  19.785  0.00  0.00    +0.000 N 
ATOM      5  C   UNL     1       0.707  11.792  20.147  0.00  0.00    +0.000 A 
ATOM      6  N   UNL     1       1.478  12.617  19.382  0.00  0.00    +0.000 NA
ATOM      7  S   UNL     1       1.424  14.134  20.051  0.00  0.00    +0.000 S 
ATOM      8  C   UNL     1       0.401  13.802  21.307  0.00  0.00    +0.000 A 
ATOM      9  C   UNL     1      -0.085  14.671  22.272  0.00  0.00    +0.000 A 
ATOM     10  C   UNL     1      -0.971  14.163  23.227  0.00  0.00    +0.000 A 
ATOM     11  C   UNL     1      -1.360  12.811  23.182  0.00  0.00    +0.000 A 
ATOM     12  C   UNL     1      -0.852  11.948  22.192  0.00  0.00    +0.000 A 
ATOM     13  C   UNL     1       0.062  12.449  21.244  0.00  0.00    +0.000 A 
ATOM     14  C   UNL     1       0.405   9.302  20.723  0.00  0.00    +0.000 C 
ATOM     15  C   UNL     1       1.567   8.287  20.586  0.00  0.00    +0.000 C 
ENDROOT
BRANCH   1  16
ATOM     16  C   UNL     1       2.699   6.837  18.881  0.00  0.00    +0.000 C 
BRANCH  16  17
ATOM     17  C   UNL     1       3.595   7.142  17.669  0.00  0.00    +0.000 C 
BRANCH  17  18
ATOM     18  C   UNL     1       4.840   6.235  17.554  0.00  0.00    +0.000 C 
BRANCH  18  19
ATOM     19  C   UNL     1       4.560   4.862  16.915  0.00  0.00    +0.000 C 
BRANCH  19  26
ATOM     20  O   UNL     1       5.870   3.982  19.258  0.00  0.00    +0.000 OA
ATOM     21  C   UNL     1       4.760   3.536  19.006  0.00  0.00    +0.000 C 
ATOM     22  C   UNL     1       4.089   2.563  19.921  0.00  0.00    +0.000 C 
ATOM     23  S   UNL     1       2.475   2.161  19.159  0.00  0.00    +0.000 S 
ATOM     24  C   UNL     1       2.859   3.294  17.831  0.00  0.00    +0.000 C 
ATOM     25  O   UNL     1       2.067   3.511  16.928  0.00  0.00    +0.000 OA
ATOM     26  N   UNL     1       4.067   3.899  17.902  0.00  0.00    +0.000 N 
ENDBRANCH  19  26
ENDBRANCH  18  19
ENDBRANCH  17  18
ENDBRANCH  16  17
ENDBRANCH   1  16
TORSDOF 5
ENDMDL
MODEL 9
REMARK VINA RESULT:      -6.4      6.091      9.053
REMARK  Name = 
REMARK  5 active torsions:
REMARK  status: ('A' for Active; 'I' for Inactive)
REMARK    1  A    between atoms: N_7  and  C_8
REMARK    2  A    between atoms: C_8  and  C_9
REMARK    3  A    between atoms: C_9  and  C_10
REMARK    4  A    between atoms: C_10  and  C_11
REMARK    5  A    between atoms: C_11  and  N_12
REMARK                            x       y       z     vdW  Elec       q    Type
REMARK                         _______ _______ _______ _____ _____    ______ ____
ROOT
ATOM      1  N   UNL     1       7.673   6.900  17.958  0.00  0.00    +0.000 NA
ATOM      2  C   UNL     1       6.434   7.580  17.548  0.00  0.00    +0.000 C 
ATOM      3  C   UNL     1       5.640   6.610  16.701  0.00  0.00    +0.000 C 
ATOM      4  N   UNL     1       5.311   5.456  17.524  0.00  0.00    +0.000 N 
ATOM      5  C   UNL     1       3.926   5.174  17.786  0.00  0.00    +0.000 A 
ATOM      6  N   UNL     1       3.020   6.189  17.704  0.00  0.00    +0.000 NA
ATOM      7  S   UNL     1       1.526   5.574  18.078  0.00  0.00    +0.000 S 
ATOM      8  C   UNL     1       1.973   4.000  18.324  0.00  0.00    +0.000 A 
ATOM      9  C   UNL     1       1.169   2.921  18.658  0.00  0.00    +0.000 A 
ATOM     10  C   UNL     1       1.774   1.667  18.784  0.00  0.00    +0.000 A 
ATOM     11  C   UNL     1       3.155   1.522  18.558  0.00  0.00    +0.000 A 
ATOM     12  C   UNL     1       3.950   2.634  18.221  0.00  0.00    +0.000 A 
ATOM     13  C   UNL     1       3.350   3.905  18.119  0.00  0.00    +0.000 A 
ATOM     14  C   UNL     1       6.442   4.761  18.133  0.00  0.00    +0.000 C 
ATOM     15  C   UNL     1       7.341   5.783  18.874  0.00  0.00    +0.000 C 
ENDROOT
BRANCH   1  16
ATOM     16  C   UNL     1       8.650   7.883  18.466  0.00  0.00    +0.000 C 
BRANCH  16  17
ATOM     17  C   UNL     1       8.293   9.329  18.082  0.00  0.00    +0.000 C 
BRANCH  17  18
ATOM     18  C   UNL     1       9.054  10.407  18.886  0.00  0.00    +0.000 C 
BRANCH  18  19
ATOM     19  C   UNL     1       9.990  11.283  18.032  0.00  0.00    +0.000 C 
BRANCH  19  26
ATOM     20  O   UNL     1       8.354  13.563  17.709  0.00  0.00    +0.000 OA
ATOM     21  C   UNL     1       9.342  13.649  18.424  0.00  0.00    +0.000 C 
ATOM     22  C   UNL     1       9.676  14.920  19.137  0.00  0.00    +0.000 C 
ATOM     23  S   UNL     1      11.217  14.603  20.070  0.00  0.00    +0.000 S 
ATOM     24  C   UNL     1      11.198  12.921  19.463  0.00  0.00    +0.000 C 
ATOM     25  O   UNL     1      12.046  12.111  19.800  0.00  0.00    +0.000 OA
ATOM     26  N   UNL     1      10.182  12.607  18.627  0.00  0.00    +0.000 N 
ENDBRANCH  19  26
ENDBRANCH  18  19
ENDBRANCH  17  18
ENDBRANCH  16  17
ENDBRANCH   1  16
TORSDOF 5
ENDMDL
