MODEL 1
REMARK VINA RESULT:      -5.8      0.000      0.000
REMARK  Name = 
REMARK  1 active torsions:
REMARK  status: ('A' for Active; 'I' for Inactive)
REMARK    1  A    between atoms: N_1  and  C_2
REMARK                            x       y       z     vdW  Elec       q    Type
REMARK                         _______ _______ _______ _____ _____    ______ ____
ROOT
ATOM      1  C   UNL     1       2.041   6.787  20.293  0.00  0.00    +0.000 A 
ATOM      2  C   UNL     1       2.522   6.881  18.972  0.00  0.00    +0.000 A 
ATOM      3  C   UNL     1       2.545   5.766  18.127  0.00  0.00    +0.000 A 
ATOM      4  C   UNL     1       2.044   4.580  18.627  0.00  0.00    +0.000 A 
ATOM      5  C   UNL     1       1.532   4.466  19.911  0.00  0.00    +0.000 A 
ATOM      6  C   UNL     1       1.510   5.572  20.747  0.00  0.00    +0.000 A 
ATOM      7  C   UNL     1       1.035   3.090  20.214  0.00  0.00    +0.000 C 
ATOM      8  C   UNL     1       1.249   2.311  18.908  0.00  0.00    +0.000 C 
ATOM      9  C   UNL     1       1.907   3.289  17.964  0.00  0.00    +0.000 C 
ATOM     10  O   UNL     1       2.263   3.061  16.823  0.00  0.00    +0.000 OA
ENDROOT
BRANCH   1  11
ATOM     11  N   UNL     1       1.869   7.945  21.061  0.00  0.00    +0.000 N 
ATOM     12  H   UNL     1       1.231   8.624  20.660  0.00  0.00    +0.000 HD
ATOM     13  H   UNL     1       2.736   8.366  21.379  0.00  0.00    +0.000 HD
ENDBRANCH   1  11
TORSDOF 1
ENDMDL
MODEL 2
REMARK VINA RESULT:      -5.5      3.325      4.273
REMARK  Name = 
REMARK  1 active torsions:
REMARK  status: ('A' for Active; 'I' for Inactive)
REMARK    1  A    between atoms: N_1  and  C_2
REMARK                            x       y       z     vdW  Elec       q    Type
REMARK                         _______ _______ _______ _____ _____    ______ ____
ROOT
ATOM      1  C   UNL     1       6.352   5.788  16.712  0.00  0.00    +0.000 A 
ATOM      2  C   UNL     1       6.227   4.463  16.251  0.00  0.00    +0.000 A 
ATOM      3  C   UNL     1       5.052   3.731  16.458  0.00  0.00    +0.000 A 
ATOM      4  C   UNL     1       4.009   4.372  17.098  0.00  0.00    +0.000 A 
ATOM      5  C   UNL     1       4.091   5.687  17.531  0.00  0.00    +0.000 A 
ATOM      6  C   UNL     1       5.257   6.410  17.326  0.00  0.00    +0.000 A 
ATOM      7  C   UNL     1       2.831   6.162  18.177  0.00  0.00    +0.000 C 
ATOM      8  C   UNL     1       1.870   4.969  18.063  0.00  0.00    +0.000 C 
ATOM      9  C   UNL     1       2.673   3.873  17.403  0.00  0.00    +0.000 C 
ATOM     10  O   UNL     1       2.285   2.749  17.147  0.00  0.00    +0.000 OA
ENDROOT
BRANCH   1  11
ATOM     11  N   UNL     1       7.466   6.555  16.348  0.00  0.00    +0.000 N 
ATOM     12  H   UNL     1       7.293   7.554  16.309  0.00  0.00    +0.000 HD
ATOM     13  H   UNL     1       7.957   6.213  15.528  0.00  0.00    +0.000 HD
ENDBRANCH   1  11
TORSDOF 1
ENDMDL
MODEL 3
REMARK VINA RESULT:      -5.5      2.324      2.877
REMARK  Name = 
REMARK  1 active torsions:
REMARK  status: ('A' for Active; 'I' for Inactive)
REMARK    1  A    between atoms: N_1  and  C_2
REMARK                            x       y       z     vdW  Elec       q    Type
REMARK                         _______ _______ _______ _____ _____    ______ ____
ROOT
ATOM      1  C   UNL     1       4.584   4.970  18.073  0.00  0.00    +0.000 A 
ATOM      2  C   UNL     1       3.953   4.213  17.066  0.00  0.00    +0.000 A 
ATOM      3  C   UNL     1       2.791   3.479  17.330  0.00  0.00    +0.000 A 
ATOM      4  C   UNL     1       2.267   3.557  18.607  0.00  0.00    +0.000 A 
ATOM      5  C   UNL     1       2.847   4.322  19.608  0.00  0.00    +0.000 A 
ATOM      6  C   UNL     1       3.999   5.048  19.344  0.00  0.00    +0.000 A 
ATOM      7  C   UNL     1       2.088   4.260  20.893  0.00  0.00    +0.000 C 
ATOM      8  C   UNL     1       0.877   3.370  20.579  0.00  0.00    +0.000 C 
ATOM      9  C   UNL     1       1.060   2.941  19.142  0.00  0.00    +0.000 C 
ATOM     10  O   UNL     1       0.323   2.208  18.509  0.00  0.00    +0.000 OA
ENDROOT
BRANCH   1  11
ATOM     11  N   UNL     1       5.643   5.828  17.748  0.00  0.00    +0.000 N 
ATOM     12  H   UNL     1       6.563   5.455  17.955  0.00  0.00    +0.000 HD
ATOM     13  H   UNL     1       5.524   6.780  18.079  0.00  0.00    +0.000 HD
ENDBRANCH   1  11
TORSDOF 1
ENDMDL
MODEL 4
REMARK VINA RESULT:      -5.5      2.353      3.765
REMARK  Name = 
REMARK  1 active torsions:
REMARK  status: ('A' for Active; 'I' for Inactive)
REMARK    1  A    between atoms: N_1  and  C_2
REMARK                            x       y       z     vdW  Elec       q    Type
REMARK                         _______ _______ _______ _____ _____    ______ ____
ROOT
ATOM      1  C   UNL     1       1.434   3.379  19.239  0.00  0.00    +0.000 A 
ATOM      2  C   UNL     1       2.100   2.312  18.604  0.00  0.00    +0.000 A 
ATOM      3  C   UNL     1       3.158   2.541  17.718  0.00  0.00    +0.000 A 
ATOM      4  C   UNL     1       3.548   3.852  17.520  0.00  0.00    +0.000 A 
ATOM      5  C   UNL     1       2.935   4.920  18.158  0.00  0.00    +0.000 A 
ATOM      6  C   UNL     1       1.885   4.690  19.035  0.00  0.00    +0.000 A 
ATOM      7  C   UNL     1       3.544   6.235  17.797  0.00  0.00    +0.000 C 
ATOM      8  C   UNL     1       4.699   5.874  16.852  0.00  0.00    +0.000 C 
ATOM      9  C   UNL     1       4.633   4.373  16.697  0.00  0.00    +0.000 C 
ATOM     10  O   UNL     1       5.366   3.686  16.011  0.00  0.00    +0.000 OA
ENDROOT
BRANCH   1  11
ATOM     11  N   UNL     1       0.495   3.121  20.246  0.00  0.00    +0.000 N 
ATOM     12  H   UNL     1       0.718   3.536  21.144  0.00  0.00    +0.000 HD
ATOM     13  H   UNL     1       0.226   2.145  20.323  0.00  0.00    +0.000 HD
ENDBRANCH   1  11
TORSDOF 1
ENDMDL
MODEL 5
REMARK VINA RESULT:      -5.4      1.817      2.541
REMARK  Name = 
REMARK  1 active torsions:
REMARK  status: ('A' for Active; 'I' for Inactive)
REMARK    1  A    between atoms: N_1  and  C_2
REMARK                            x       y       z     vdW  Elec       q    Type
REMARK                         _______ _______ _______ _____ _____    ______ ____
ROOT
ATOM      1  C   UNL     1       2.501   6.665  18.553  0.00  0.00    +0.000 A 
ATOM      2  C   UNL     1       2.246   6.702  19.938  0.00  0.00    +0.000 A 
ATOM      3  C   UNL     1       1.845   5.555  20.633  0.00  0.00    +0.000 A 
ATOM      4  C   UNL     1       1.745   4.379  19.914  0.00  0.00    +0.000 A 
ATOM      5  C   UNL     1       2.023   4.306  18.558  0.00  0.00    +0.000 A 
ATOM      6  C   UNL     1       2.420   5.443  17.870  0.00  0.00    +0.000 A 
ATOM      7  C   UNL     1       1.862   2.926  18.010  0.00  0.00    +0.000 C 
ATOM      8  C   UNL     1       1.479   2.073  19.228  0.00  0.00    +0.000 C 
ATOM      9  C   UNL     1       1.396   3.044  20.383  0.00  0.00    +0.000 C 
ATOM     10  O   UNL     1       1.099   2.774  21.532  0.00  0.00    +0.000 OA
ENDROOT
BRANCH   1  11
ATOM     11  N   UNL     1       3.062   7.777  17.912  0.00  0.00    +0.000 N 
ATOM     12  H   UNL     1       3.573   8.401  18.527  0.00  0.00    +0.000 HD
ATOM     13  H   UNL     1       2.421   8.271  17.300  0.00  0.00    +0.000 HD
ENDBRANCH   1  11
TORSDOF 1
ENDMDL
MODEL 6
REMARK VINA RESULT:      -5.4      3.735      5.024
REMARK  Name = 
REMARK  1 active torsions:
REMARK  status: ('A' for Active; 'I' for Inactive)
REMARK    1  A    between atoms: N_1  and  C_2
REMARK                            x       y       z     vdW  Elec       q    Type
REMARK                         _______ _______ _______ _____ _____    ______ ____
ROOT
ATOM      1  C   UNL     1       6.384   5.251  15.824  0.00  0.00    +0.000 A 
ATOM      2  C   UNL     1       5.798   3.981  15.992  0.00  0.00    +0.000 A 
ATOM      3  C   UNL     1       4.605   3.821  16.705  0.00  0.00    +0.000 A 
ATOM      4  C   UNL     1       4.006   4.962  17.205  0.00  0.00    +0.000 A 
ATOM      5  C   UNL     1       4.542   6.228  17.025  0.00  0.00    +0.000 A 
ATOM      6  C   UNL     1       5.725   6.385  16.319  0.00  0.00    +0.000 A 
ATOM      7  C   UNL     1       3.705   7.301  17.641  0.00  0.00    +0.000 C 
ATOM      8  C   UNL     1       2.494   6.556  18.220  0.00  0.00    +0.000 C 
ATOM      9  C   UNL     1       2.754   5.095  17.939  0.00  0.00    +0.000 C 
ATOM     10  O   UNL     1       2.039   4.162  18.255  0.00  0.00    +0.000 OA
ENDROOT
BRANCH   1  11
ATOM     11  N   UNL     1       7.481   5.410  14.968  0.00  0.00    +0.000 N 
ATOM     12  H   UNL     1       8.241   4.758  15.133  0.00  0.00    +0.000 HD
ATOM     13  H   UNL     1       7.803   6.368  14.878  0.00  0.00    +0.000 HD
ENDBRANCH   1  11
TORSDOF 1
ENDMDL
MODEL 7
REMARK VINA RESULT:      -5.4      3.061      3.446
REMARK  Name = 
REMARK  1 active torsions:
REMARK  status: ('A' for Active; 'I' for Inactive)
REMARK    1  A    between atoms: N_1  and  C_2
REMARK                            x       y       z     vdW  Elec       q    Type
REMARK                         _______ _______ _______ _____ _____    ______ ____
ROOT
ATOM      1  C   UNL     1       4.961   3.783  18.085  0.00  0.00    +0.000 A 
ATOM      2  C   UNL     1       3.999   3.551  17.082  0.00  0.00    +0.000 A 
ATOM      3  C   UNL     1       2.698   3.148  17.403  0.00  0.00    +0.000 A 
ATOM      4  C   UNL     1       2.385   3.024  18.744  0.00  0.00    +0.000 A 
ATOM      5  C   UNL     1       3.300   3.280  19.753  0.00  0.00    +0.000 A 
ATOM      6  C   UNL     1       4.590   3.678  19.433  0.00  0.00    +0.000 A 
ATOM      7  C   UNL     1       2.722   3.095  21.117  0.00  0.00    +0.000 C 
ATOM      8  C   UNL     1       1.254   2.722  20.862  0.00  0.00    +0.000 C 
ATOM      9  C   UNL     1       1.112   2.668  19.359  0.00  0.00    +0.000 C 
ATOM     10  O   UNL     1       0.103   2.387  18.740  0.00  0.00    +0.000 OA
ENDROOT
BRANCH   1  11
ATOM     11  N   UNL     1       6.200   4.345  17.753  0.00  0.00    +0.000 N 
ATOM     12  H   UNL     1       6.416   5.205  18.246  0.00  0.00    +0.000 HD
ATOM     13  H   UNL     1       6.371   4.414  16.755  0.00  0.00    +0.000 HD
ENDBRANCH   1  11
TORSDOF 1
ENDMDL
MODEL 8
REMARK VINA RESULT:      -5.4      2.819      4.243
REMARK  Name = 
REMARK  1 active torsions:
REMARK  status: ('A' for Active; 'I' for Inactive)
REMARK    1  A    between atoms: N_1  and  C_2
REMARK                            x       y       z     vdW  Elec       q    Type
REMARK                         _______ _______ _______ _____ _____    ______ ____
ROOT
ATOM      1  C   UNL     1       2.108   2.869  18.133  0.00  0.00    +0.000 A 
ATOM      2  C   UNL     1       3.362   2.627  17.537  0.00  0.00    +0.000 A 
ATOM      3  C   UNL     1       4.198   3.680  17.151  0.00  0.00    +0.000 A 
ATOM      4  C   UNL     1       3.761   4.965  17.411  0.00  0.00    +0.000 A 
ATOM      5  C   UNL     1       2.548   5.233  18.027  0.00  0.00    +0.000 A 
ATOM      6  C   UNL     1       1.721   4.187  18.409  0.00  0.00    +0.000 A 
ATOM      7  C   UNL     1       2.307   6.695  18.216  0.00  0.00    +0.000 C 
ATOM      8  C   UNL     1       3.577   7.365  17.672  0.00  0.00    +0.000 C 
ATOM      9  C   UNL     1       4.436   6.233  17.160  0.00  0.00    +0.000 C 
ATOM     10  O   UNL     1       5.526   6.338  16.629  0.00  0.00    +0.000 OA
ENDROOT
BRANCH   1  11
ATOM     11  N   UNL     1       1.366   1.806  18.663  0.00  0.00    +0.000 N 
ATOM     12  H   UNL     1       1.774   0.891  18.508  0.00  0.00    +0.000 HD
ATOM     13  H   UNL     1       0.377   1.835  18.436  0.00  0.00    +0.000 HD
ENDBRANCH   1  11
TORSDOF 1
ENDMDL
MODEL 9
REMARK VINA RESULT:      -5.4      3.092      4.424
REMARK  Name = 
REMARK  1 active torsions:
REMARK  status: ('A' for Active; 'I' for Inactive)
REMARK    1  A    between atoms: N_1  and  C_2
REMARK                            x       y       z     vdW  Elec       q    Type
REMARK                         _______ _______ _______ _____ _____    ______ ____
ROOT
ATOM      1  C   UNL     1       2.097   2.769  18.406  0.00  0.00    +0.000 A 
ATOM      2  C   UNL     1       1.618   4.012  18.865  0.00  0.00    +0.000 A 
ATOM      3  C   UNL     1       2.264   5.207  18.532  0.00  0.00    +0.000 A 
ATOM      4  C   UNL     1       3.368   5.122  17.703  0.00  0.00    +0.000 A 
ATOM      5  C   UNL     1       3.841   3.917  17.208  0.00  0.00    +0.000 A 
ATOM      6  C   UNL     1       3.199   2.733  17.540  0.00  0.00    +0.000 A 
ATOM      7  C   UNL     1       5.031   4.085  16.322  0.00  0.00    +0.000 C 
ATOM      8  C   UNL     1       5.252   5.604  16.262  0.00  0.00    +0.000 C 
ATOM      9  C   UNL     1       4.196   6.195  17.167  0.00  0.00    +0.000 C 
ATOM     10  O   UNL     1       4.038   7.376  17.413  0.00  0.00    +0.000 OA
ENDROOT
BRANCH   1  11
ATOM     11  N   UNL     1       1.343   1.607  18.610  0.00  0.00    +0.000 N 
ATOM     12  H   UNL     1       1.624   1.060  19.417  0.00  0.00    +0.000 HD
ATOM     13  H   UNL     1       1.221   1.038  17.778  0.00  0.00    +0.000 HD
ENDBRANCH   1  11
TORSDOF 1
ENDMDL
