MODEL 1
REMARK VINA RESULT:      -6.4      0.000      0.000
REMARK  Name = 
REMARK  8 active torsions:
REMARK  status: ('A' for Active; 'I' for Inactive)
REMARK    1  A    between atoms: C_1  and  C_2
REMARK    2  A    between atoms: C_8  and  N_9
REMARK    3  A    between atoms: N_9  and  C_10
REMARK    4  A    between atoms: N_9  and  C_11
REMARK    5  A    between atoms: C_11  and  C_12
REMARK    6  A    between atoms: C_12  and  C_13
REMARK    7  A    between atoms: C_12  and  C_14
REMARK    8  A    between atoms: C_12  and  C_15
REMARK                            x       y       z     vdW  Elec       q    Type
REMARK                         _______ _______ _______ _____ _____    ______ ____
ROOT
ATOM      1  C   UNL     1       4.953   4.350  15.785  0.00  0.00    +0.000 C 
ATOM      2  C   UNL     1       5.752   4.775  16.980  0.00  0.00    +0.000 A 
ATOM      3  C   UNL     1       7.100   4.439  16.986  0.00  0.00    +0.000 A 
ATOM      4  N   UNL     1       7.940   4.674  18.003  0.00  0.00    +0.000 NA
ATOM      5  C   UNL     1       7.392   5.248  19.064  0.00  0.00    +0.000 A 
ATOM      6  N   UNL     1       8.236   5.488  20.136  0.00  0.00    +0.000 N 
ATOM      7  N   UNL     1       6.123   5.652  19.152  0.00  0.00    +0.000 NA
ATOM      8  C   UNL     1       5.276   5.431  18.118  0.00  0.00    +0.000 A 
ATOM      9  H   UNL     1       9.184   5.506  19.808  0.00  0.00    +0.000 HD
ATOM     10  H   UNL     1       7.896   6.288  20.650  0.00  0.00    +0.000 HD
ENDROOT
BRANCH   8  11
ATOM     11  N   UNL     1       3.940   5.818  18.289  0.00  0.00    +0.000 N 
ATOM     12  C   UNL     1       3.503   7.139  17.844  0.00  0.00    +0.000 C 
BRANCH  11  13
ATOM     13  C   UNL     1       3.208   5.306  19.478  0.00  0.00    +0.000 C 
BRANCH  13  14
ATOM     14  C   UNL     1       2.298   4.087  19.149  0.00  0.00    +0.000 C 
ATOM     15  C   UNL     1       3.085   2.772  19.244  0.00  0.00    +0.000 C 
ATOM     16  C   UNL     1       1.135   4.032  20.166  0.00  0.00    +0.000 C 
ATOM     17  C   UNL     1       1.677   4.209  17.747  0.00  0.00    +0.000 C 
ENDBRANCH  13  14
ENDBRANCH  11  13
ENDBRANCH   8  11
TORSDOF 3
ENDMDL
MODEL 2
REMARK VINA RESULT:      -6.3      0.502      1.204
REMARK  Name = 
REMARK  8 active torsions:
REMARK  status: ('A' for Active; 'I' for Inactive)
REMARK    1  A    between atoms: C_1  and  C_2
REMARK    2  A    between atoms: C_8  and  N_9
REMARK    3  A    between atoms: N_9  and  C_10
REMARK    4  A    between atoms: N_9  and  C_11
REMARK    5  A    between atoms: C_11  and  C_12
REMARK    6  A    between atoms: C_12  and  C_13
REMARK    7  A    between atoms: C_12  and  C_14
REMARK    8  A    between atoms: C_12  and  C_15
REMARK                            x       y       z     vdW  Elec       q    Type
REMARK                         _______ _______ _______ _____ _____    ______ ____
ROOT
ATOM      1  C   UNL     1       4.771   3.989  16.129  0.00  0.00    +0.000 C 
ATOM      2  C   UNL     1       5.598   4.524  17.259  0.00  0.00    +0.000 A 
ATOM      3  C   UNL     1       6.971   4.337  17.176  0.00  0.00    +0.000 A 
ATOM      4  N   UNL     1       7.847   4.684  18.129  0.00  0.00    +0.000 NA
ATOM      5  C   UNL     1       7.312   5.217  19.217  0.00  0.00    +0.000 A 
ATOM      6  N   UNL     1       8.195   5.571  20.224  0.00  0.00    +0.000 N 
ATOM      7  N   UNL     1       6.015   5.482  19.389  0.00  0.00    +0.000 NA
ATOM      8  C   UNL     1       5.130   5.148  18.419  0.00  0.00    +0.000 A 
ATOM      9  H   UNL     1       9.111   5.685  19.831  0.00  0.00    +0.000 HD
ATOM     10  H   UNL     1       7.805   6.340  20.751  0.00  0.00    +0.000 HD
ENDROOT
BRANCH   8  11
ATOM     11  N   UNL     1       3.774   5.390  18.677  0.00  0.00    +0.000 N 
ATOM     12  C   UNL     1       3.196   6.695  18.362  0.00  0.00    +0.000 C 
BRANCH  11  13
ATOM     13  C   UNL     1       3.152   4.718  19.848  0.00  0.00    +0.000 C 
BRANCH  13  14
ATOM     14  C   UNL     1       2.199   3.556  19.443  0.00  0.00    +0.000 C 
ATOM     15  C   UNL     1       1.736   3.707  17.986  0.00  0.00    +0.000 C 
ATOM     16  C   UNL     1       2.951   2.212  19.577  0.00  0.00    +0.000 C 
ATOM     17  C   UNL     1       0.969   3.489  20.363  0.00  0.00    +0.000 C 
ENDBRANCH  13  14
ENDBRANCH  11  13
ENDBRANCH   8  11
TORSDOF 3
ENDMDL
MODEL 3
REMARK VINA RESULT:      -6.2      0.787      1.368
REMARK  Name = 
REMARK  8 active torsions:
REMARK  status: ('A' for Active; 'I' for Inactive)
REMARK    1  A    between atoms: C_1  and  C_2
REMARK    2  A    between atoms: C_8  and  N_9
REMARK    3  A    between atoms: N_9  and  C_10
REMARK    4  A    between atoms: N_9  and  C_11
REMARK    5  A    between atoms: C_11  and  C_12
REMARK    6  A    between atoms: C_12  and  C_13
REMARK    7  A    between atoms: C_12  and  C_14
REMARK    8  A    between atoms: C_12  and  C_15
REMARK                            x       y       z     vdW  Elec       q    Type
REMARK                         _______ _______ _______ _____ _____    ______ ____
ROOT
ATOM      1  C   UNL     1       4.749   4.010  16.255  0.00  0.00    +0.000 C 
ATOM      2  C   UNL     1       5.631   4.490  17.368  0.00  0.00    +0.000 A 
ATOM      3  C   UNL     1       7.002   4.449  17.145  0.00  0.00    +0.000 A 
ATOM      4  N   UNL     1       7.932   4.768  18.055  0.00  0.00    +0.000 NA
ATOM      5  C   UNL     1       7.461   5.118  19.243  0.00  0.00    +0.000 A 
ATOM      6  N   UNL     1       8.402   5.437  20.206  0.00  0.00    +0.000 N 
ATOM      7  N   UNL     1       6.168   5.233  19.555  0.00  0.00    +0.000 NA
ATOM      8  C   UNL     1       5.225   4.928  18.631  0.00  0.00    +0.000 A 
ATOM      9  H   UNL     1       9.262   5.686  19.753  0.00  0.00    +0.000 HD
ATOM     10  H   UNL     1       7.999   6.100  20.855  0.00  0.00    +0.000 HD
ENDROOT
BRANCH   8  11
ATOM     11  N   UNL     1       3.885   5.005  19.033  0.00  0.00    +0.000 N 
ATOM     12  C   UNL     1       3.307   6.299  19.389  0.00  0.00    +0.000 C 
BRANCH  11  13
ATOM     13  C   UNL     1       3.309   3.857  19.781  0.00  0.00    +0.000 C 
BRANCH  13  14
ATOM     14  C   UNL     1       1.910   3.429  19.249  0.00  0.00    +0.000 C 
ATOM     15  C   UNL     1       0.806   3.795  20.252  0.00  0.00    +0.000 C 
ATOM     16  C   UNL     1       1.624   4.167  17.921  0.00  0.00    +0.000 C 
ATOM     17  C   UNL     1       1.855   1.920  18.959  0.00  0.00    +0.000 C 
ENDBRANCH  13  14
ENDBRANCH  11  13
ENDBRANCH   8  11
TORSDOF 3
ENDMDL
MODEL 4
REMARK VINA RESULT:      -6.2      1.359      1.830
REMARK  Name = 
REMARK  8 active torsions:
REMARK  status: ('A' for Active; 'I' for Inactive)
REMARK    1  A    between atoms: C_1  and  C_2
REMARK    2  A    between atoms: C_8  and  N_9
REMARK    3  A    between atoms: N_9  and  C_10
REMARK    4  A    between atoms: N_9  and  C_11
REMARK    5  A    between atoms: C_11  and  C_12
REMARK    6  A    between atoms: C_12  and  C_13
REMARK    7  A    between atoms: C_12  and  C_14
REMARK    8  A    between atoms: C_12  and  C_15
REMARK                            x       y       z     vdW  Elec       q    Type
REMARK                         _______ _______ _______ _____ _____    ______ ____
ROOT
ATOM      1  C   UNL     1       4.903   6.460  16.288  0.00  0.00    +0.000 C 
ATOM      2  C   UNL     1       5.730   6.167  17.503  0.00  0.00    +0.000 A 
ATOM      3  C   UNL     1       7.083   6.471  17.431  0.00  0.00    +0.000 A 
ATOM      4  N   UNL     1       7.977   6.206  18.392  0.00  0.00    +0.000 NA
ATOM      5  C   UNL     1       7.490   5.587  19.458  0.00  0.00    +0.000 A 
ATOM      6  N   UNL     1       8.397   5.288  20.461  0.00  0.00    +0.000 N 
ATOM      7  N   UNL     1       6.205   5.285  19.653  0.00  0.00    +0.000 NA
ATOM      8  C   UNL     1       5.296   5.568  18.689  0.00  0.00    +0.000 A 
ATOM      9  H   UNL     1       9.194   5.889  20.371  0.00  0.00    +0.000 HD
ATOM     10  H   UNL     1       7.913   5.270  21.348  0.00  0.00    +0.000 HD
ENDROOT
BRANCH   8  11
ATOM     11  N   UNL     1       3.972   5.172  18.919  0.00  0.00    +0.000 N 
ATOM     12  C   UNL     1       2.964   6.172  19.264  0.00  0.00    +0.000 C 
BRANCH  11  13
ATOM     13  C   UNL     1       3.734   3.837  19.528  0.00  0.00    +0.000 C 
BRANCH  13  14
ATOM     14  C   UNL     1       2.917   2.887  18.604  0.00  0.00    +0.000 C 
ATOM     15  C   UNL     1       1.463   2.772  19.084  0.00  0.00    +0.000 C 
ATOM     16  C   UNL     1       2.911   3.457  17.168  0.00  0.00    +0.000 C 
ATOM     17  C   UNL     1       3.545   1.485  18.541  0.00  0.00    +0.000 C 
ENDBRANCH  13  14
ENDBRANCH  11  13
ENDBRANCH   8  11
TORSDOF 3
ENDMDL
MODEL 5
REMARK VINA RESULT:      -6.2      0.877      1.033
REMARK  Name = 
REMARK  8 active torsions:
REMARK  status: ('A' for Active; 'I' for Inactive)
REMARK    1  A    between atoms: C_1  and  C_2
REMARK    2  A    between atoms: C_8  and  N_9
REMARK    3  A    between atoms: N_9  and  C_10
REMARK    4  A    between atoms: N_9  and  C_11
REMARK    5  A    between atoms: C_11  and  C_12
REMARK    6  A    between atoms: C_12  and  C_13
REMARK    7  A    between atoms: C_12  and  C_14
REMARK    8  A    between atoms: C_12  and  C_15
REMARK                            x       y       z     vdW  Elec       q    Type
REMARK                         _______ _______ _______ _____ _____    ______ ____
ROOT
ATOM      1  C   UNL     1       4.669   4.051  16.207  0.00  0.00    +0.000 C 
ATOM      2  C   UNL     1       5.508   4.558  17.341  0.00  0.00    +0.000 A 
ATOM      3  C   UNL     1       6.886   4.462  17.195  0.00  0.00    +0.000 A 
ATOM      4  N   UNL     1       7.778   4.796  18.137  0.00  0.00    +0.000 NA
ATOM      5  C   UNL     1       7.258   5.220  19.279  0.00  0.00    +0.000 A 
ATOM      6  N   UNL     1       8.159   5.558  20.276  0.00  0.00    +0.000 N 
ATOM      7  N   UNL     1       5.955   5.393  19.516  0.00  0.00    +0.000 NA
ATOM      8  C   UNL     1       5.052   5.072  18.558  0.00  0.00    +0.000 A 
ATOM      9  H   UNL     1       9.049   5.755  19.858  0.00  0.00    +0.000 HD
ATOM     10  H   UNL     1       7.745   6.264  20.869  0.00  0.00    +0.000 HD
ENDROOT
BRANCH   8  11
ATOM     11  N   UNL     1       3.696   5.212  18.883  0.00  0.00    +0.000 N 
ATOM     12  C   UNL     1       2.921   6.310  18.308  0.00  0.00    +0.000 C 
BRANCH  11  13
ATOM     13  C   UNL     1       3.254   4.804  20.243  0.00  0.00    +0.000 C 
BRANCH  13  14
ATOM     14  C   UNL     1       2.332   3.550  20.228  0.00  0.00    +0.000 C 
ATOM     15  C   UNL     1       2.525   2.713  21.501  0.00  0.00    +0.000 C 
ATOM     16  C   UNL     1       0.857   4.006  20.165  0.00  0.00    +0.000 C 
ATOM     17  C   UNL     1       2.596   2.671  18.995  0.00  0.00    +0.000 C 
ENDBRANCH  13  14
ENDBRANCH  11  13
ENDBRANCH   8  11
TORSDOF 3
ENDMDL
MODEL 6
REMARK VINA RESULT:      -6.0      1.325      1.747
REMARK  Name = 
REMARK  8 active torsions:
REMARK  status: ('A' for Active; 'I' for Inactive)
REMARK    1  A    between atoms: C_1  and  C_2
REMARK    2  A    between atoms: C_8  and  N_9
REMARK    3  A    between atoms: N_9  and  C_10
REMARK    4  A    between atoms: N_9  and  C_11
REMARK    5  A    between atoms: C_11  and  C_12
REMARK    6  A    between atoms: C_12  and  C_13
REMARK    7  A    between atoms: C_12  and  C_14
REMARK    8  A    between atoms: C_12  and  C_15
REMARK                            x       y       z     vdW  Elec       q    Type
REMARK                         _______ _______ _______ _____ _____    ______ ____
ROOT
ATOM      1  C   UNL     1       4.698   6.617  16.285  0.00  0.00    +0.000 C 
ATOM      2  C   UNL     1       5.578   6.312  17.458  0.00  0.00    +0.000 A 
ATOM      3  C   UNL     1       6.934   6.580  17.313  0.00  0.00    +0.000 A 
ATOM      4  N   UNL     1       7.869   6.299  18.230  0.00  0.00    +0.000 NA
ATOM      5  C   UNL     1       7.422   5.702  19.325  0.00  0.00    +0.000 A 
ATOM      6  N   UNL     1       8.371   5.387  20.283  0.00  0.00    +0.000 N 
ATOM      7  N   UNL     1       6.141   5.436  19.590  0.00  0.00    +0.000 NA
ATOM      8  C   UNL     1       5.191   5.735  18.671  0.00  0.00    +0.000 A 
ATOM      9  H   UNL     1       9.178   5.967  20.146  0.00  0.00    +0.000 HD
ATOM     10  H   UNL     1       7.934   5.390  21.195  0.00  0.00    +0.000 HD
ENDROOT
BRANCH   8  11
ATOM     11  N   UNL     1       3.870   5.377  18.973  0.00  0.00    +0.000 N 
ATOM     12  C   UNL     1       2.944   6.382  19.489  0.00  0.00    +0.000 C 
BRANCH  11  13
ATOM     13  C   UNL     1       3.614   4.002  19.477  0.00  0.00    +0.000 C 
BRANCH  13  14
ATOM     14  C   UNL     1       2.584   3.221  18.609  0.00  0.00    +0.000 C 
ATOM     15  C   UNL     1       2.361   3.920  17.260  0.00  0.00    +0.000 C 
ATOM     16  C   UNL     1       3.124   1.799  18.337  0.00  0.00    +0.000 C 
ATOM     17  C   UNL     1       1.236   3.071  19.335  0.00  0.00    +0.000 C 
ENDBRANCH  13  14
ENDBRANCH  11  13
ENDBRANCH   8  11
TORSDOF 3
ENDMDL
MODEL 7
REMARK VINA RESULT:      -6.0      1.378      1.657
REMARK  Name = 
REMARK  8 active torsions:
REMARK  status: ('A' for Active; 'I' for Inactive)
REMARK    1  A    between atoms: C_1  and  C_2
REMARK    2  A    between atoms: C_8  and  N_9
REMARK    3  A    between atoms: N_9  and  C_10
REMARK    4  A    between atoms: N_9  and  C_11
REMARK    5  A    between atoms: C_11  and  C_12
REMARK    6  A    between atoms: C_12  and  C_13
REMARK    7  A    between atoms: C_12  and  C_14
REMARK    8  A    between atoms: C_12  and  C_15
REMARK                            x       y       z     vdW  Elec       q    Type
REMARK                         _______ _______ _______ _____ _____    ______ ____
ROOT
ATOM      1  C   UNL     1       5.121   6.405  15.928  0.00  0.00    +0.000 C 
ATOM      2  C   UNL     1       5.844   6.110  17.207  0.00  0.00    +0.000 A 
ATOM      3  C   UNL     1       7.045   6.775  17.418  0.00  0.00    +0.000 A 
ATOM      4  N   UNL     1       7.853   6.576  18.467  0.00  0.00    +0.000 NA
ATOM      5  C   UNL     1       7.445   5.651  19.324  0.00  0.00    +0.000 A 
ATOM      6  N   UNL     1       8.271   5.414  20.410  0.00  0.00    +0.000 N 
ATOM      7  N   UNL     1       6.293   4.981  19.245  0.00  0.00    +0.000 NA
ATOM      8  C   UNL     1       5.465   5.195  18.193  0.00  0.00    +0.000 A 
ATOM      9  H   UNL     1       8.860   6.213  20.554  0.00  0.00    +0.000 HD
ATOM     10  H   UNL     1       7.711   5.091  21.187  0.00  0.00    +0.000 HD
ENDROOT
BRANCH   8  11
ATOM     11  N   UNL     1       4.300   4.420  18.127  0.00  0.00    +0.000 N 
ATOM     12  C   UNL     1       4.159   3.408  17.082  0.00  0.00    +0.000 C 
BRANCH  11  13
ATOM     13  C   UNL     1       3.017   5.044  18.544  0.00  0.00    +0.000 C 
BRANCH  13  14
ATOM     14  C   UNL     1       2.288   4.241  19.661  0.00  0.00    +0.000 C 
ATOM     15  C   UNL     1       3.262   3.304  20.389  0.00  0.00    +0.000 C 
ATOM     16  C   UNL     1       1.699   5.228  20.694  0.00  0.00    +0.000 C 
ATOM     17  C   UNL     1       1.119   3.419  19.092  0.00  0.00    +0.000 C 
ENDBRANCH  13  14
ENDBRANCH  11  13
ENDBRANCH   8  11
TORSDOF 3
ENDMDL
MODEL 8
REMARK VINA RESULT:      -5.9      2.137      3.290
REMARK  Name = 
REMARK  8 active torsions:
REMARK  status: ('A' for Active; 'I' for Inactive)
REMARK    1  A    between atoms: C_1  and  C_2
REMARK    2  A    between atoms: C_8  and  N_9
REMARK    3  A    between atoms: N_9  and  C_10
REMARK    4  A    between atoms: N_9  and  C_11
REMARK    5  A    between atoms: C_11  and  C_12
REMARK    6  A    between atoms: C_12  and  C_13
REMARK    7  A    between atoms: C_12  and  C_14
REMARK    8  A    between atoms: C_12  and  C_15
REMARK                            x       y       z     vdW  Elec       q    Type
REMARK                         _______ _______ _______ _____ _____    ______ ____
ROOT
ATOM      1  C   UNL     1       3.843   6.934  17.859  0.00  0.00    +0.000 C 
ATOM      2  C   UNL     1       4.571   5.956  16.987  0.00  0.00    +0.000 A 
ATOM      3  C   UNL     1       5.098   6.445  15.799  0.00  0.00    +0.000 A 
ATOM      4  N   UNL     1       5.710   5.698  14.871  0.00  0.00    +0.000 NA
ATOM      5  C   UNL     1       5.770   4.403  15.142  0.00  0.00    +0.000 A 
ATOM      6  N   UNL     1       6.385   3.605  14.192  0.00  0.00    +0.000 N 
ATOM      7  N   UNL     1       5.337   3.830  16.268  0.00  0.00    +0.000 NA
ATOM      8  C   UNL     1       4.734   4.587  17.215  0.00  0.00    +0.000 A 
ATOM      9  H   UNL     1       6.984   4.175  13.624  0.00  0.00    +0.000 HD
ATOM     10  H   UNL     1       6.790   2.799  14.648  0.00  0.00    +0.000 HD
ENDROOT
BRANCH   8  11
ATOM     11  N   UNL     1       4.241   3.925  18.348  0.00  0.00    +0.000 N 
ATOM     12  C   UNL     1       5.140   3.621  19.459  0.00  0.00    +0.000 C 
BRANCH  11  13
ATOM     13  C   UNL     1       3.149   2.934  18.162  0.00  0.00    +0.000 C 
BRANCH  13  14
ATOM     14  C   UNL     1       1.755   3.485  18.580  0.00  0.00    +0.000 C 
ATOM     15  C   UNL     1       1.860   4.339  19.852  0.00  0.00    +0.000 C 
ATOM     16  C   UNL     1       1.198   4.372  17.444  0.00  0.00    +0.000 C 
ATOM     17  C   UNL     1       0.746   2.347  18.812  0.00  0.00    +0.000 C 
ENDBRANCH  13  14
ENDBRANCH  11  13
ENDBRANCH   8  11
TORSDOF 3
ENDMDL
MODEL 9
REMARK VINA RESULT:      -5.8      1.148      1.174
REMARK  Name = 
REMARK  8 active torsions:
REMARK  status: ('A' for Active; 'I' for Inactive)
REMARK    1  A    between atoms: C_1  and  C_2
REMARK    2  A    between atoms: C_8  and  N_9
REMARK    3  A    between atoms: N_9  and  C_10
REMARK    4  A    between atoms: N_9  and  C_11
REMARK    5  A    between atoms: C_11  and  C_12
REMARK    6  A    between atoms: C_12  and  C_13
REMARK    7  A    between atoms: C_12  and  C_14
REMARK    8  A    between atoms: C_12  and  C_15
REMARK                            x       y       z     vdW  Elec       q    Type
REMARK                         _______ _______ _______ _____ _____    ______ ____
ROOT
ATOM      1  C   UNL     1       4.924   6.451  15.929  0.00  0.00    +0.000 C 
ATOM      2  C   UNL     1       5.698   6.178  17.183  0.00  0.00    +0.000 A 
ATOM      3  C   UNL     1       7.080   6.291  17.105  0.00  0.00    +0.000 A 
ATOM      4  N   UNL     1       7.926   6.011  18.105  0.00  0.00    +0.000 NA
ATOM      5  C   UNL     1       7.356   5.576  19.219  0.00  0.00    +0.000 A 
ATOM      6  N   UNL     1       8.210   5.265  20.264  0.00  0.00    +0.000 N 
ATOM      7  N   UNL     1       6.041   5.469  19.420  0.00  0.00    +0.000 NA
ATOM      8  C   UNL     1       5.182   5.769  18.415  0.00  0.00    +0.000 A 
ATOM      9  H   UNL     1       9.081   5.743  20.128  0.00  0.00    +0.000 HD
ATOM     10  H   UNL     1       7.724   5.403  21.139  0.00  0.00    +0.000 HD
ENDROOT
BRANCH   8  11
ATOM     11  N   UNL     1       3.816   5.577  18.661  0.00  0.00    +0.000 N 
ATOM     12  C   UNL     1       2.939   6.734  18.830  0.00  0.00    +0.000 C 
BRANCH  11  13
ATOM     13  C   UNL     1       3.404   4.384  19.446  0.00  0.00    +0.000 C 
BRANCH  13  14
ATOM     14  C   UNL     1       2.644   3.330  18.590  0.00  0.00    +0.000 C 
ATOM     15  C   UNL     1       3.610   2.274  18.033  0.00  0.00    +0.000 C 
ATOM     16  C   UNL     1       1.600   2.614  19.477  0.00  0.00    +0.000 C 
ATOM     17  C   UNL     1       1.884   3.990  17.427  0.00  0.00    +0.000 C 
ENDBRANCH  13  14
ENDBRANCH  11  13
ENDBRANCH   8  11
TORSDOF 3
ENDMDL
