MODEL 1
REMARK VINA RESULT:      -8.0      0.000      0.000
REMARK  Name = 
REMARK  5 active torsions:
REMARK  status: ('A' for Active; 'I' for Inactive)
REMARK    1  A    between atoms: C_2  and  C_4
REMARK    2  A    between atoms: N_10  and  C_11
REMARK    3  A    between atoms: C_11  and  C_12
REMARK    4  A    between atoms: N_14  and  C_15
REMARK    5  A    between atoms: C_15  and  C_16
REMARK                            x       y       z     vdW  Elec       q    Type
REMARK                         _______ _______ _______ _____ _____    ______ ____
ROOT
ATOM      1  C   UNL     1       6.771   5.084  15.554  0.00  0.00    +0.000 A 
ATOM      2  N   UNL     1       7.635   6.014  16.021  0.00  0.00    +0.000 NA
ATOM      3  S   UNL     1       7.379   6.225  17.657  0.00  0.00    +0.000 S 
ATOM      4  C   UNL     1       6.126   5.107  17.778  0.00  0.00    +0.000 A 
ATOM      5  C   UNL     1       5.413   4.753  18.966  0.00  0.00    +0.000 A 
ATOM      6  O   UNL     1       5.626   5.229  20.075  0.00  0.00    +0.000 OA
ATOM      7  N   UNL     1       4.458   3.761  18.724  0.00  0.00    +0.000 N 
ATOM      8  C   UNL     1       4.288   3.227  17.459  0.00  0.00    +0.000 A 
ATOM      9  N   UNL     1       4.921   3.554  16.377  0.00  0.00    +0.000 NA
ATOM     10  C   UNL     1       5.898   4.547  16.556  0.00  0.00    +0.000 A 
ENDROOT
BRANCH   1  12
ATOM     11  N   UNL     1       6.198   3.523  13.818  0.00  0.00    +0.000 N 
ATOM     12  C   UNL     1       6.797   4.715  14.128  0.00  0.00    +0.000 C 
ATOM     13  O   UNL     1       7.308   5.388  13.238  0.00  0.00    +0.000 OA
ATOM     14  H   UNL     1       6.194   3.218  12.855  0.00  0.00    +0.000 HD
ATOM     15  H   UNL     1       5.781   2.955  14.545  0.00  0.00    +0.000 HD
ENDBRANCH   1  12
BRANCH   7  16
ATOM     16  C   UNL     1       3.738   3.199  19.861  0.00  0.00    +0.000 C 
BRANCH  16  17
ATOM     17  C   UNL     1       2.656   4.121  20.422  0.00  0.00    +0.000 C 
ATOM     18  O   UNL     1       1.631   3.668  20.930  0.00  0.00    +0.000 OA
ATOM     19  N   UNL     1       2.839   5.477  20.231  0.00  0.00    +0.000 N 
ATOM     20  H   UNL     1       3.515   5.814  19.559  0.00  0.00    +0.000 HD
BRANCH  19  21
ATOM     21  C   UNL     1       1.791   6.402  20.623  0.00  0.00    +0.000 C 
BRANCH  21  22
ATOM     22  C   UNL     1       1.794   7.659  19.796  0.00  0.00    +0.000 A 
ATOM     23  C   UNL     1       2.365   7.677  18.515  0.00  0.00    +0.000 A 
ATOM     24  C   UNL     1       2.259   8.812  17.708  0.00  0.00    +0.000 A 
ATOM     25  C   UNL     1       1.593   9.943  18.176  0.00  0.00    +0.000 A 
ATOM     26  C   UNL     1       1.039   9.944  19.455  0.00  0.00    +0.000 A 
ATOM     27  C   UNL     1       1.134   8.808  20.257  0.00  0.00    +0.000 A 
ENDBRANCH  21  22
ENDBRANCH  19  21
ENDBRANCH  16  17
ENDBRANCH   7  16
TORSDOF 5
ENDMDL
MODEL 2
REMARK VINA RESULT:      -7.9      0.753      1.236
REMARK  Name = 
REMARK  5 active torsions:
REMARK  status: ('A' for Active; 'I' for Inactive)
REMARK    1  A    between atoms: C_2  and  C_4
REMARK    2  A    between atoms: N_10  and  C_11
REMARK    3  A    between atoms: C_11  and  C_12
REMARK    4  A    between atoms: N_14  and  C_15
REMARK    5  A    between atoms: C_15  and  C_16
REMARK                            x       y       z     vdW  Elec       q    Type
REMARK                         _______ _______ _______ _____ _____    ______ ____
ROOT
ATOM      1  C   UNL     1       6.685   5.026  15.427  0.00  0.00    +0.000 A 
ATOM      2  N   UNL     1       7.601   5.914  15.876  0.00  0.00    +0.000 NA
ATOM      3  S   UNL     1       7.326   6.212  17.494  0.00  0.00    +0.000 S 
ATOM      4  C   UNL     1       5.997   5.188  17.632  0.00  0.00    +0.000 A 
ATOM      5  C   UNL     1       5.236   4.935  18.816  0.00  0.00    +0.000 A 
ATOM      6  O   UNL     1       5.459   5.443  19.909  0.00  0.00    +0.000 OA
ATOM      7  N   UNL     1       4.220   4.001  18.594  0.00  0.00    +0.000 N 
ATOM      8  C   UNL     1       4.041   3.425  17.347  0.00  0.00    +0.000 A 
ATOM      9  N   UNL     1       4.718   3.662  16.269  0.00  0.00    +0.000 NA
ATOM     10  C   UNL     1       5.756   4.593  16.429  0.00  0.00    +0.000 A 
ENDROOT
BRANCH   1  12
ATOM     11  N   UNL     1       7.557   5.303  13.204  0.00  0.00    +0.000 N 
ATOM     12  C   UNL     1       6.716   4.594  14.019  0.00  0.00    +0.000 C 
ATOM     13  O   UNL     1       6.053   3.671  13.553  0.00  0.00    +0.000 OA
ATOM     14  H   UNL     1       7.611   5.053  12.227  0.00  0.00    +0.000 HD
ATOM     15  H   UNL     1       8.102   6.071  13.575  0.00  0.00    +0.000 HD
ENDBRANCH   1  12
BRANCH   7  16
ATOM     16  C   UNL     1       3.439   3.539  19.735  0.00  0.00    +0.000 C 
BRANCH  16  17
ATOM     17  C   UNL     1       2.282   4.465  20.106  0.00  0.00    +0.000 C 
ATOM     18  O   UNL     1       1.114   4.141  19.903  0.00  0.00    +0.000 OA
ATOM     19  N   UNL     1       2.621   5.719  20.577  0.00  0.00    +0.000 N 
ATOM     20  H   UNL     1       3.558   6.079  20.452  0.00  0.00    +0.000 HD
BRANCH  19  21
ATOM     21  C   UNL     1       1.576   6.695  20.826  0.00  0.00    +0.000 C 
BRANCH  21  22
ATOM     22  C   UNL     1       1.588   7.820  19.825  0.00  0.00    +0.000 A 
ATOM     23  C   UNL     1       0.994   9.055  20.123  0.00  0.00    +0.000 A 
ATOM     24  C   UNL     1       1.113  10.129  19.238  0.00  0.00    +0.000 A 
ATOM     25  C   UNL     1       1.815   9.977  18.044  0.00  0.00    +0.000 A 
ATOM     26  C   UNL     1       2.393   8.749  17.728  0.00  0.00    +0.000 A 
ATOM     27  C   UNL     1       2.285   7.679  18.615  0.00  0.00    +0.000 A 
ENDBRANCH  21  22
ENDBRANCH  19  21
ENDBRANCH  16  17
ENDBRANCH   7  16
TORSDOF 5
ENDMDL
MODEL 3
REMARK VINA RESULT:      -7.8      4.440      6.845
REMARK  Name = 
REMARK  5 active torsions:
REMARK  status: ('A' for Active; 'I' for Inactive)
REMARK    1  A    between atoms: C_2  and  C_4
REMARK    2  A    between atoms: N_10  and  C_11
REMARK    3  A    between atoms: C_11  and  C_12
REMARK    4  A    between atoms: N_14  and  C_15
REMARK    5  A    between atoms: C_15  and  C_16
REMARK                            x       y       z     vdW  Elec       q    Type
REMARK                         _______ _______ _______ _____ _____    ______ ____
ROOT
ATOM      1  C   UNL     1       2.645   3.248  19.258  0.00  0.00    +0.000 A 
ATOM      2  N   UNL     1       2.370   2.345  18.290  0.00  0.00    +0.000 NA
ATOM      3  S   UNL     1       3.539   2.442  17.104  0.00  0.00    +0.000 S 
ATOM      4  C   UNL     1       4.421   3.677  17.836  0.00  0.00    +0.000 A 
ATOM      5  C   UNL     1       5.623   4.272  17.341  0.00  0.00    +0.000 A 
ATOM      6  O   UNL     1       6.181   3.954  16.297  0.00  0.00    +0.000 OA
ATOM      7  N   UNL     1       6.120   5.244  18.215  0.00  0.00    +0.000 N 
ATOM      8  C   UNL     1       5.472   5.534  19.403  0.00  0.00    +0.000 A 
ATOM      9  N   UNL     1       4.376   5.008  19.848  0.00  0.00    +0.000 NA
ATOM     10  C   UNL     1       3.827   4.021  19.014  0.00  0.00    +0.000 A 
ENDROOT
BRANCH   1  12
ATOM     11  N   UNL     1       1.143   4.573  20.589  0.00  0.00    +0.000 N 
ATOM     12  C   UNL     1       1.755   3.359  20.428  0.00  0.00    +0.000 C 
ATOM     13  O   UNL     1       1.542   2.458  21.235  0.00  0.00    +0.000 OA
ATOM     14  H   UNL     1       0.528   4.706  21.379  0.00  0.00    +0.000 HD
ATOM     15  H   UNL     1       1.318   5.325  19.934  0.00  0.00    +0.000 HD
ENDBRANCH   1  12
BRANCH   7  16
ATOM     16  C   UNL     1       7.412   5.851  17.915  0.00  0.00    +0.000 C 
BRANCH  16  17
ATOM     17  C   UNL     1       7.326   7.328  17.534  0.00  0.00    +0.000 C 
ATOM     18  O   UNL     1       6.583   7.714  16.633  0.00  0.00    +0.000 OA
ATOM     19  N   UNL     1       8.200   8.184  18.176  0.00  0.00    +0.000 N 
ATOM     20  H   UNL     1       8.998   7.820  18.679  0.00  0.00    +0.000 HD
BRANCH  19  21
ATOM     21  C   UNL     1       8.264   9.577  17.772  0.00  0.00    +0.000 C 
BRANCH  21  22
ATOM     22  C   UNL     1       9.295  10.354  18.545  0.00  0.00    +0.000 A 
ATOM     23  C   UNL     1      10.326  11.037  17.884  0.00  0.00    +0.000 A 
ATOM     24  C   UNL     1      11.207  11.851  18.598  0.00  0.00    +0.000 A 
ATOM     25  C   UNL     1      11.075  11.983  19.979  0.00  0.00    +0.000 A 
ATOM     26  C   UNL     1      10.066  11.293  20.650  0.00  0.00    +0.000 A 
ATOM     27  C   UNL     1       9.178  10.489  19.937  0.00  0.00    +0.000 A 
ENDBRANCH  21  22
ENDBRANCH  19  21
ENDBRANCH  16  17
ENDBRANCH   7  16
TORSDOF 5
ENDMDL
MODEL 4
REMARK VINA RESULT:      -7.7      2.485      4.020
REMARK  Name = 
REMARK  5 active torsions:
REMARK  status: ('A' for Active; 'I' for Inactive)
REMARK    1  A    between atoms: C_2  and  C_4
REMARK    2  A    between atoms: N_10  and  C_11
REMARK    3  A    between atoms: C_11  and  C_12
REMARK    4  A    between atoms: N_14  and  C_15
REMARK    5  A    between atoms: C_15  and  C_16
REMARK                            x       y       z     vdW  Elec       q    Type
REMARK                         _______ _______ _______ _____ _____    ______ ____
ROOT
ATOM      1  C   UNL     1       6.328   3.643  12.539  0.00  0.00    +0.000 A 
ATOM      2  N   UNL     1       7.197   4.449  11.887  0.00  0.00    +0.000 NA
ATOM      3  S   UNL     1       7.868   5.521  12.975  0.00  0.00    +0.000 S 
ATOM      4  C   UNL     1       7.024   4.952  14.317  0.00  0.00    +0.000 A 
ATOM      5  C   UNL     1       7.133   5.436  15.658  0.00  0.00    +0.000 A 
ATOM      6  O   UNL     1       7.870   6.349  16.013  0.00  0.00    +0.000 OA
ATOM      7  N   UNL     1       6.320   4.716  16.539  0.00  0.00    +0.000 N 
ATOM      8  C   UNL     1       5.539   3.665  16.091  0.00  0.00    +0.000 A 
ATOM      9  N   UNL     1       5.426   3.233  14.875  0.00  0.00    +0.000 NA
ATOM     10  C   UNL     1       6.221   3.916  13.942  0.00  0.00    +0.000 A 
ENDROOT
BRANCH   1  12
ATOM     11  N   UNL     1       6.302   1.448  11.558  0.00  0.00    +0.000 N 
ATOM     12  C   UNL     1       5.601   2.600  11.794  0.00  0.00    +0.000 C 
ATOM     13  O   UNL     1       4.447   2.703  11.387  0.00  0.00    +0.000 OA
ATOM     14  H   UNL     1       5.854   0.703  11.045  0.00  0.00    +0.000 HD
ATOM     15  H   UNL     1       7.258   1.355  11.881  0.00  0.00    +0.000 HD
ENDBRANCH   1  12
BRANCH   7  16
ATOM     16  C   UNL     1       6.417   5.003  17.965  0.00  0.00    +0.000 C 
BRANCH  16  17
ATOM     17  C   UNL     1       5.109   5.489  18.587  0.00  0.00    +0.000 C 
ATOM     18  O   UNL     1       4.903   5.395  19.795  0.00  0.00    +0.000 OA
ATOM     19  N   UNL     1       4.137   5.933  17.712  0.00  0.00    +0.000 N 
ATOM     20  H   UNL     1       4.199   5.723  16.725  0.00  0.00    +0.000 HD
BRANCH  19  21
ATOM     21  C   UNL     1       2.824   6.287  18.222  0.00  0.00    +0.000 C 
BRANCH  21  22
ATOM     22  C   UNL     1       2.058   5.091  18.718  0.00  0.00    +0.000 A 
ATOM     23  C   UNL     1       1.819   3.991  17.881  0.00  0.00    +0.000 A 
ATOM     24  C   UNL     1       1.211   2.839  18.383  0.00  0.00    +0.000 A 
ATOM     25  C   UNL     1       0.826   2.777  19.721  0.00  0.00    +0.000 A 
ATOM     26  C   UNL     1       1.040   3.871  20.557  0.00  0.00    +0.000 A 
ATOM     27  C   UNL     1       1.657   5.018  20.061  0.00  0.00    +0.000 A 
ENDBRANCH  21  22
ENDBRANCH  19  21
ENDBRANCH  16  17
ENDBRANCH   7  16
TORSDOF 5
ENDMDL
MODEL 5
REMARK VINA RESULT:      -7.7      0.730      1.226
REMARK  Name = 
REMARK  5 active torsions:
REMARK  status: ('A' for Active; 'I' for Inactive)
REMARK    1  A    between atoms: C_2  and  C_4
REMARK    2  A    between atoms: N_10  and  C_11
REMARK    3  A    between atoms: C_11  and  C_12
REMARK    4  A    between atoms: N_14  and  C_15
REMARK    5  A    between atoms: C_15  and  C_16
REMARK                            x       y       z     vdW  Elec       q    Type
REMARK                         _______ _______ _______ _____ _____    ______ ____
ROOT
ATOM      1  C   UNL     1       6.766   4.555  15.748  0.00  0.00    +0.000 A 
ATOM      2  N   UNL     1       7.898   4.849  16.427  0.00  0.00    +0.000 NA
ATOM      3  S   UNL     1       7.591   4.765  18.065  0.00  0.00    +0.000 S 
ATOM      4  C   UNL     1       5.966   4.351  17.912  0.00  0.00    +0.000 A 
ATOM      5  C   UNL     1       5.048   4.097  18.979  0.00  0.00    +0.000 A 
ATOM      6  O   UNL     1       5.332   4.149  20.170  0.00  0.00    +0.000 OA
ATOM      7  N   UNL     1       3.783   3.738  18.503  0.00  0.00    +0.000 N 
ATOM      8  C   UNL     1       3.529   3.652  17.145  0.00  0.00    +0.000 A 
ATOM      9  N   UNL     1       4.353   3.896  16.176  0.00  0.00    +0.000 NA
ATOM     10  C   UNL     1       5.643   4.260  16.590  0.00  0.00    +0.000 A 
ENDROOT
BRANCH   1  12
ATOM     11  N   UNL     1       6.169   3.484  13.680  0.00  0.00    +0.000 N 
ATOM     12  C   UNL     1       6.776   4.558  14.275  0.00  0.00    +0.000 C 
ATOM     13  O   UNL     1       7.281   5.434  13.578  0.00  0.00    +0.000 OA
ATOM     14  H   UNL     1       6.154   3.432  12.672  0.00  0.00    +0.000 HD
ATOM     15  H   UNL     1       5.757   2.752  14.244  0.00  0.00    +0.000 HD
ENDBRANCH   1  12
BRANCH   7  16
ATOM     16  C   UNL     1       2.772   3.321  19.467  0.00  0.00    +0.000 C 
BRANCH  16  17
ATOM     17  C   UNL     1       2.322   4.435  20.411  0.00  0.00    +0.000 C 
ATOM     18  O   UNL     1       1.744   4.184  21.466  0.00  0.00    +0.000 OA
ATOM     19  N   UNL     1       2.500   5.731  19.966  0.00  0.00    +0.000 N 
ATOM     20  H   UNL     1       2.688   5.917  18.990  0.00  0.00    +0.000 HD
BRANCH  19  21
ATOM     21  C   UNL     1       1.979   6.834  20.752  0.00  0.00    +0.000 C 
BRANCH  21  22
ATOM     22  C   UNL     1       1.657   8.040  19.909  0.00  0.00    +0.000 A 
ATOM     23  C   UNL     1       0.921   9.111  20.437  0.00  0.00    +0.000 A 
ATOM     24  C   UNL     1       0.729  10.274  19.688  0.00  0.00    +0.000 A 
ATOM     25  C   UNL     1       1.260  10.374  18.403  0.00  0.00    +0.000 A 
ATOM     26  C   UNL     1       1.977   9.309  17.861  0.00  0.00    +0.000 A 
ATOM     27  C   UNL     1       2.179   8.151  18.612  0.00  0.00    +0.000 A 
ENDBRANCH  21  22
ENDBRANCH  19  21
ENDBRANCH  16  17
ENDBRANCH   7  16
TORSDOF 5
ENDMDL
MODEL 6
REMARK VINA RESULT:      -7.7      4.170      6.582
REMARK  Name = 
REMARK  5 active torsions:
REMARK  status: ('A' for Active; 'I' for Inactive)
REMARK    1  A    between atoms: C_2  and  C_4
REMARK    2  A    between atoms: N_10  and  C_11
REMARK    3  A    between atoms: C_11  and  C_12
REMARK    4  A    between atoms: N_14  and  C_15
REMARK    5  A    between atoms: C_15  and  C_16
REMARK                            x       y       z     vdW  Elec       q    Type
REMARK                         _______ _______ _______ _____ _____    ______ ____
ROOT
ATOM      1  C   UNL     1       2.642   3.043  19.636  0.00  0.00    +0.000 A 
ATOM      2  N   UNL     1       2.723   1.822  19.060  0.00  0.00    +0.000 NA
ATOM      3  S   UNL     1       3.669   1.927  17.688  0.00  0.00    +0.000 S 
ATOM      4  C   UNL     1       3.980   3.576  17.823  0.00  0.00    +0.000 A 
ATOM      5  C   UNL     1       4.784   4.364  16.941  0.00  0.00    +0.000 A 
ATOM      6  O   UNL     1       5.363   3.932  15.951  0.00  0.00    +0.000 OA
ATOM      7  N   UNL     1       4.869   5.695  17.364  0.00  0.00    +0.000 N 
ATOM      8  C   UNL     1       4.229   6.120  18.515  0.00  0.00    +0.000 A 
ATOM      9  N   UNL     1       3.489   5.413  19.309  0.00  0.00    +0.000 NA
ATOM     10  C   UNL     1       3.366   4.064  18.938  0.00  0.00    +0.000 A 
ENDROOT
BRANCH   1  12
ATOM     11  N   UNL     1       0.509   3.355  20.699  0.00  0.00    +0.000 N 
ATOM     12  C   UNL     1       1.860   3.216  20.872  0.00  0.00    +0.000 C 
ATOM     13  O   UNL     1       2.333   3.244  22.005  0.00  0.00    +0.000 OA
ATOM     14  H   UNL     1      -0.074   3.485  21.513  0.00  0.00    +0.000 HD
ATOM     15  H   UNL     1       0.108   3.342  19.769  0.00  0.00    +0.000 HD
ENDBRANCH   1  12
BRANCH   7  16
ATOM     16  C   UNL     1       5.759   6.597  16.642  0.00  0.00    +0.000 C 
BRANCH  16  17
ATOM     17  C   UNL     1       7.086   6.853  17.353  0.00  0.00    +0.000 C 
ATOM     18  O   UNL     1       7.762   5.928  17.799  0.00  0.00    +0.000 OA
ATOM     19  N   UNL     1       7.430   8.175  17.562  0.00  0.00    +0.000 N 
ATOM     20  H   UNL     1       6.738   8.906  17.469  0.00  0.00    +0.000 HD
BRANCH  19  21
ATOM     21  C   UNL     1       8.611   8.491  18.344  0.00  0.00    +0.000 C 
BRANCH  21  22
ATOM     22  C   UNL     1       8.801   9.973  18.528  0.00  0.00    +0.000 A 
ATOM     23  C   UNL     1       9.618  10.473  19.552  0.00  0.00    +0.000 A 
ATOM     24  C   UNL     1       9.883  11.841  19.642  0.00  0.00    +0.000 A 
ATOM     25  C   UNL     1       9.326  12.724  18.718  0.00  0.00    +0.000 A 
ATOM     26  C   UNL     1       8.496  12.241  17.708  0.00  0.00    +0.000 A 
ATOM     27  C   UNL     1       8.240  10.874  17.610  0.00  0.00    +0.000 A 
ENDBRANCH  21  22
ENDBRANCH  19  21
ENDBRANCH  16  17
ENDBRANCH   7  16
TORSDOF 5
ENDMDL
MODEL 7
REMARK VINA RESULT:      -7.6      5.011      6.750
REMARK  Name = 
REMARK  5 active torsions:
REMARK  status: ('A' for Active; 'I' for Inactive)
REMARK    1  A    between atoms: C_2  and  C_4
REMARK    2  A    between atoms: N_10  and  C_11
REMARK    3  A    between atoms: C_11  and  C_12
REMARK    4  A    between atoms: N_14  and  C_15
REMARK    5  A    between atoms: C_15  and  C_16
REMARK                            x       y       z     vdW  Elec       q    Type
REMARK                         _______ _______ _______ _____ _____    ______ ____
ROOT
ATOM      1  C   UNL     1       4.056   3.177  18.915  0.00  0.00    +0.000 A 
ATOM      2  N   UNL     1       2.744   3.440  18.720  0.00  0.00    +0.000 NA
ATOM      3  S   UNL     1       2.583   4.975  18.087  0.00  0.00    +0.000 S 
ATOM      4  C   UNL     1       4.230   5.324  18.066  0.00  0.00    +0.000 A 
ATOM      5  C   UNL     1       4.838   6.533  17.604  0.00  0.00    +0.000 A 
ATOM      6  O   UNL     1       4.225   7.494  17.153  0.00  0.00    +0.000 OA
ATOM      7  N   UNL     1       6.233   6.480  17.689  0.00  0.00    +0.000 N 
ATOM      8  C   UNL     1       6.876   5.351  18.166  0.00  0.00    +0.000 A 
ATOM      9  N   UNL     1       6.329   4.260  18.599  0.00  0.00    +0.000 NA
ATOM     10  C   UNL     1       4.927   4.251  18.537  0.00  0.00    +0.000 A 
ENDROOT
BRANCH   1  12
ATOM     11  N   UNL     1       4.209   0.790  18.671  0.00  0.00    +0.000 N 
ATOM     12  C   UNL     1       4.465   1.874  19.468  0.00  0.00    +0.000 C 
ATOM     13  O   UNL     1       5.000   1.712  20.561  0.00  0.00    +0.000 OA
ATOM     14  H   UNL     1       4.462  -0.129  19.005  0.00  0.00    +0.000 HD
ATOM     15  H   UNL     1       3.761   0.911  17.771  0.00  0.00    +0.000 HD
ENDBRANCH   1  12
BRANCH   7  16
ATOM     16  C   UNL     1       7.004   7.586  17.134  0.00  0.00    +0.000 C 
BRANCH  16  17
ATOM     17  C   UNL     1       8.048   8.153  18.095  0.00  0.00    +0.000 C 
ATOM     18  O   UNL     1       8.577   7.449  18.952  0.00  0.00    +0.000 OA
ATOM     19  N   UNL     1       8.283   9.513  18.019  0.00  0.00    +0.000 N 
ATOM     20  H   UNL     1       7.636  10.119  17.534  0.00  0.00    +0.000 HD
BRANCH  19  21
ATOM     21  C   UNL     1       9.164  10.140  18.986  0.00  0.00    +0.000 C 
BRANCH  21  22
ATOM     22  C   UNL     1       9.680  11.474  18.515  0.00  0.00    +0.000 A 
ATOM     23  C   UNL     1      10.830  11.560  17.717  0.00  0.00    +0.000 A 
ATOM     24  C   UNL     1      11.234  12.787  17.187  0.00  0.00    +0.000 A 
ATOM     25  C   UNL     1      10.500  13.941  17.458  0.00  0.00    +0.000 A 
ATOM     26  C   UNL     1       9.367  13.871  18.266  0.00  0.00    +0.000 A 
ATOM     27  C   UNL     1       8.956  12.645  18.786  0.00  0.00    +0.000 A 
ENDBRANCH  21  22
ENDBRANCH  19  21
ENDBRANCH  16  17
ENDBRANCH   7  16
TORSDOF 5
ENDMDL
MODEL 8
REMARK VINA RESULT:      -7.5      3.346      7.692
REMARK  Name = 
REMARK  5 active torsions:
REMARK  status: ('A' for Active; 'I' for Inactive)
REMARK    1  A    between atoms: C_2  and  C_4
REMARK    2  A    between atoms: N_10  and  C_11
REMARK    3  A    between atoms: C_11  and  C_12
REMARK    4  A    between atoms: N_14  and  C_15
REMARK    5  A    between atoms: C_15  and  C_16
REMARK                            x       y       z     vdW  Elec       q    Type
REMARK                         _______ _______ _______ _____ _____    ______ ____
ROOT
ATOM      1  C   UNL     1       2.644   3.223  19.876  0.00  0.00    +0.000 A 
ATOM      2  N   UNL     1       2.060   2.250  19.141  0.00  0.00    +0.000 NA
ATOM      3  S   UNL     1       2.853   2.119  17.679  0.00  0.00    +0.000 S 
ATOM      4  C   UNL     1       3.971   3.341  17.982  0.00  0.00    +0.000 A 
ATOM      5  C   UNL     1       5.018   3.772  17.108  0.00  0.00    +0.000 A 
ATOM      6  O   UNL     1       5.242   3.298  16.001  0.00  0.00    +0.000 OA
ATOM      7  N   UNL     1       5.793   4.784  17.684  0.00  0.00    +0.000 N 
ATOM      8  C   UNL     1       5.521   5.253  18.958  0.00  0.00    +0.000 A 
ATOM      9  N   UNL     1       4.566   4.876  19.746  0.00  0.00    +0.000 NA
ATOM     10  C   UNL     1       3.752   3.858  19.224  0.00  0.00    +0.000 A 
ENDROOT
BRANCH   1  12
ATOM     11  N   UNL     1       2.128   4.861  21.559  0.00  0.00    +0.000 N 
ATOM     12  C   UNL     1       2.126   3.534  21.220  0.00  0.00    +0.000 C 
ATOM     13  O   UNL     1       1.710   2.702  22.022  0.00  0.00    +0.000 OA
ATOM     14  H   UNL     1       1.790   5.129  22.472  0.00  0.00    +0.000 HD
ATOM     15  H   UNL     1       2.477   5.554  20.909  0.00  0.00    +0.000 HD
ENDBRANCH   1  12
BRANCH   7  16
ATOM     16  C   UNL     1       6.980   5.240  16.971  0.00  0.00    +0.000 C 
BRANCH  16  17
ATOM     17  C   UNL     1       6.719   5.610  15.511  0.00  0.00    +0.000 C 
ATOM     18  O   UNL     1       5.857   6.431  15.205  0.00  0.00    +0.000 OA
ATOM     19  N   UNL     1       7.422   4.898  14.559  0.00  0.00    +0.000 N 
ATOM     20  H   UNL     1       7.888   4.035  14.803  0.00  0.00    +0.000 HD
BRANCH  19  21
ATOM     21  C   UNL     1       7.130   5.105  13.152  0.00  0.00    +0.000 C 
BRANCH  21  22
ATOM     22  C   UNL     1       6.611   3.862  12.482  0.00  0.00    +0.000 A 
ATOM     23  C   UNL     1       5.234   3.644  12.334  0.00  0.00    +0.000 A 
ATOM     24  C   UNL     1       4.764   2.548  11.608  0.00  0.00    +0.000 A 
ATOM     25  C   UNL     1       5.663   1.653  11.033  0.00  0.00    +0.000 A 
ATOM     26  C   UNL     1       7.035   1.847  11.189  0.00  0.00    +0.000 A 
ATOM     27  C   UNL     1       7.506   2.947  11.904  0.00  0.00    +0.000 A 
ENDBRANCH  21  22
ENDBRANCH  19  21
ENDBRANCH  16  17
ENDBRANCH   7  16
TORSDOF 5
ENDMDL
MODEL 9
REMARK VINA RESULT:      -7.5      4.516      6.932
REMARK  Name = 
REMARK  5 active torsions:
REMARK  status: ('A' for Active; 'I' for Inactive)
REMARK    1  A    between atoms: C_2  and  C_4
REMARK    2  A    between atoms: N_10  and  C_11
REMARK    3  A    between atoms: C_11  and  C_12
REMARK    4  A    between atoms: N_14  and  C_15
REMARK    5  A    between atoms: C_15  and  C_16
REMARK                            x       y       z     vdW  Elec       q    Type
REMARK                         _______ _______ _______ _____ _____    ______ ____
ROOT
ATOM      1  C   UNL     1       3.109   3.081  19.459  0.00  0.00    +0.000 A 
ATOM      2  N   UNL     1       2.516   2.544  18.368  0.00  0.00    +0.000 NA
ATOM      3  S   UNL     1       3.339   3.034  17.001  0.00  0.00    +0.000 S 
ATOM      4  C   UNL     1       4.482   3.965  17.816  0.00  0.00    +0.000 A 
ATOM      5  C   UNL     1       5.559   4.697  17.226  0.00  0.00    +0.000 A 
ATOM      6  O   UNL     1       5.796   4.743  16.025  0.00  0.00    +0.000 OA
ATOM      7  N   UNL     1       6.347   5.331  18.192  0.00  0.00    +0.000 N 
ATOM      8  C   UNL     1       6.059   5.210  19.540  0.00  0.00    +0.000 A 
ATOM      9  N   UNL     1       5.076   4.561  20.078  0.00  0.00    +0.000 NA
ATOM     10  C   UNL     1       4.248   3.898  19.158  0.00  0.00    +0.000 A 
ENDROOT
BRANCH   1  12
ATOM     11  N   UNL     1       1.238   3.070  20.968  0.00  0.00    +0.000 N 
ATOM     12  C   UNL     1       2.569   2.795  20.799  0.00  0.00    +0.000 C 
ATOM     13  O   UNL     1       3.220   2.344  21.737  0.00  0.00    +0.000 OA
ATOM     14  H   UNL     1       0.818   2.901  21.870  0.00  0.00    +0.000 HD
ATOM     15  H   UNL     1       0.693   3.450  20.203  0.00  0.00    +0.000 HD
ENDBRANCH   1  12
BRANCH   7  16
ATOM     16  C   UNL     1       7.562   6.011  17.758  0.00  0.00    +0.000 C 
BRANCH  16  17
ATOM     17  C   UNL     1       7.370   7.501  17.480  0.00  0.00    +0.000 C 
ATOM     18  O   UNL     1       6.541   7.897  16.664  0.00  0.00    +0.000 OA
ATOM     19  N   UNL     1       8.245   8.365  18.110  0.00  0.00    +0.000 N 
ATOM     20  H   UNL     1       9.098   8.018  18.528  0.00  0.00    +0.000 HD
BRANCH  19  21
ATOM     21  C   UNL     1       8.204   9.781  17.792  0.00  0.00    +0.000 C 
BRANCH  21  22
ATOM     22  C   UNL     1       9.258  10.566  18.526  0.00  0.00    +0.000 A 
ATOM     23  C   UNL     1       9.234  10.672  19.925  0.00  0.00    +0.000 A 
ATOM     24  C   UNL     1      10.279  11.301  20.604  0.00  0.00    +0.000 A 
ATOM     25  C   UNL     1      11.350  11.841  19.896  0.00  0.00    +0.000 A 
ATOM     26  C   UNL     1      11.375  11.760  18.504  0.00  0.00    +0.000 A 
ATOM     27  C   UNL     1      10.339  11.122  17.824  0.00  0.00    +0.000 A 
ENDBRANCH  21  22
ENDBRANCH  19  21
ENDBRANCH  16  17
ENDBRANCH   7  16
TORSDOF 5
ENDMDL
