MODEL 1
REMARK VINA RESULT:      -8.5      0.000      0.000
REMARK  Name = 
REMARK  3 active torsions:
REMARK  status: ('A' for Active; 'I' for Inactive)
REMARK    1  A    between atoms: C_1  and  C_2
REMARK    2  A    between atoms: C_2  and  C_3
REMARK    3  A    between atoms: C_8  and  C_9
REMARK                            x       y       z     vdW  Elec       q    Type
REMARK                         _______ _______ _______ _____ _____    ______ ____
ROOT
ATOM      1  C   UNL     1       4.517   6.305  17.853  0.00  0.00    +0.000 C 
ATOM      2  C   UNL     1       5.974   6.784  18.052  0.00  0.00    +0.000 C 
ATOM      3  C   UNL     1       6.913   5.587  18.256  0.00  0.00    +0.000 C 
ATOM      4  C   UNL     1       6.871   4.702  17.015  0.00  0.00    +0.000 C 
ATOM      5  O   UNL     1       7.868   4.107  16.606  0.00  0.00    +0.000 OA
ATOM      6  C   UNL     1       5.558   4.586  16.264  0.00  0.00    +0.000 C 
ATOM      7  C   UNL     1       5.731   5.182  14.889  0.00  0.00    +0.000 C 
ATOM      8  C   UNL     1       4.559   4.952  17.091  0.00  0.00    +0.000 C 
ATOM      9  C   UNL     1       3.794   3.951  17.942  0.00  0.00    +0.000 A 
ATOM     10  C   UNL     1       3.582   2.593  17.689  0.00  0.00    +0.000 A 
ATOM     11  C   UNL     1       2.884   1.847  18.652  0.00  0.00    +0.000 A 
ATOM     12  C   UNL     1       2.513   2.503  19.825  0.00  0.00    +0.000 A 
ATOM     13  N   UNL     1       1.901   2.134  20.999  0.00  0.00    +0.000 N 
ATOM     14  N   UNL     1       1.809   3.134  21.927  0.00  0.00    +0.000 NA
ATOM     15  C   UNL     1       2.361   4.200  21.321  0.00  0.00    +0.000 A 
ATOM     16  C   UNL     1       2.751   3.819  20.064  0.00  0.00    +0.000 A 
ATOM     17  C   UNL     1       3.398   4.622  19.115  0.00  0.00    +0.000 A 
ATOM     18  C   UNL     1       3.844   6.021  19.241  0.00  0.00    +0.000 C 
ATOM     19  H   UNL     1       1.547   1.219  21.251  0.00  0.00    +0.000 HD
ENDROOT
BRANCH   1  21
ATOM     20  C   UNL     1       2.613   8.084  17.854  0.00  0.00    +0.000 C 
ATOM     21  C   UNL     1       3.695   7.352  17.056  0.00  0.00    +0.000 C 
ENDBRANCH   1  21
TORSDOF 1
ENDMDL
MODEL 2
REMARK VINA RESULT:      -8.2      3.454      5.550
REMARK  Name = 
REMARK  3 active torsions:
REMARK  status: ('A' for Active; 'I' for Inactive)
REMARK    1  A    between atoms: C_1  and  C_2
REMARK    2  A    between atoms: C_2  and  C_3
REMARK    3  A    between atoms: C_8  and  C_9
REMARK                            x       y       z     vdW  Elec       q    Type
REMARK                         _______ _______ _______ _____ _____    ______ ____
ROOT
ATOM      1  C   UNL     1       3.012   3.216  18.003  0.00  0.00    +0.000 C 
ATOM      2  C   UNL     1       2.970   1.704  18.324  0.00  0.00    +0.000 C 
ATOM      3  C   UNL     1       4.265   1.264  19.023  0.00  0.00    +0.000 C 
ATOM      4  C   UNL     1       4.404   2.023  20.338  0.00  0.00    +0.000 C 
ATOM      5  O   UNL     1       4.897   1.504  21.340  0.00  0.00    +0.000 OA
ATOM      6  C   UNL     1       3.894   3.450  20.397  0.00  0.00    +0.000 C 
ATOM      7  C   UNL     1       2.746   3.514  21.374  0.00  0.00    +0.000 C 
ATOM      8  C   UNL     1       3.801   3.924  19.139  0.00  0.00    +0.000 C 
ATOM      9  C   UNL     1       4.928   4.692  18.470  0.00  0.00    +0.000 A 
ATOM     10  C   UNL     1       5.923   5.462  19.078  0.00  0.00    +0.000 A 
ATOM     11  C   UNL     1       6.901   6.043  18.255  0.00  0.00    +0.000 A 
ATOM     12  C   UNL     1       6.846   5.751  16.892  0.00  0.00    +0.000 A 
ATOM     13  N   UNL     1       7.620   6.049  15.797  0.00  0.00    +0.000 N 
ATOM     14  N   UNL     1       7.204   5.463  14.633  0.00  0.00    +0.000 NA
ATOM     15  C   UNL     1       6.102   4.779  14.984  0.00  0.00    +0.000 A 
ATOM     16  C   UNL     1       5.885   4.978  16.322  0.00  0.00    +0.000 A 
ATOM     17  C   UNL     1       4.856   4.416  17.091  0.00  0.00    +0.000 A 
ATOM     18  C   UNL     1       3.807   3.469  16.676  0.00  0.00    +0.000 C 
ATOM     19  H   UNL     1       8.458   6.618  15.769  0.00  0.00    +0.000 HD
ENDROOT
BRANCH   1  21
ATOM     20  C   UNL     1       0.493   3.016  18.642  0.00  0.00    +0.000 C 
ATOM     21  C   UNL     1       1.577   3.798  17.895  0.00  0.00    +0.000 C 
ENDBRANCH   1  21
TORSDOF 1
ENDMDL
MODEL 3
REMARK VINA RESULT:      -7.6      3.309      5.351
REMARK  Name = 
REMARK  3 active torsions:
REMARK  status: ('A' for Active; 'I' for Inactive)
REMARK    1  A    between atoms: C_1  and  C_2
REMARK    2  A    between atoms: C_2  and  C_3
REMARK    3  A    between atoms: C_8  and  C_9
REMARK                            x       y       z     vdW  Elec       q    Type
REMARK                         _______ _______ _______ _____ _____    ______ ____
ROOT
ATOM      1  C   UNL     1       2.440   4.052  17.968  0.00  0.00    +0.000 C 
ATOM      2  C   UNL     1       1.838   2.695  18.401  0.00  0.00    +0.000 C 
ATOM      3  C   UNL     1       2.877   1.863  19.167  0.00  0.00    +0.000 C 
ATOM      4  C   UNL     1       3.293   2.620  20.424  0.00  0.00    +0.000 C 
ATOM      5  O   UNL     1       3.559   2.038  21.476  0.00  0.00    +0.000 OA
ATOM      6  C   UNL     1       3.352   4.135  20.360  0.00  0.00    +0.000 C 
ATOM      7  C   UNL     1       2.313   4.699  21.297  0.00  0.00    +0.000 C 
ATOM      8  C   UNL     1       3.439   4.505  19.068  0.00  0.00    +0.000 C 
ATOM      9  C   UNL     1       4.770   4.743  18.374  0.00  0.00    +0.000 A 
ATOM     10  C   UNL     1       5.982   5.134  18.949  0.00  0.00    +0.000 A 
ATOM     11  C   UNL     1       7.103   5.240  18.112  0.00  0.00    +0.000 A 
ATOM     12  C   UNL     1       6.940   4.881  16.775  0.00  0.00    +0.000 A 
ATOM     13  N   UNL     1       7.767   4.780  15.682  0.00  0.00    +0.000 N 
ATOM     14  N   UNL     1       7.160   4.299  14.555  0.00  0.00    +0.000 NA
ATOM     15  C   UNL     1       5.882   4.104  14.925  0.00  0.00    +0.000 A 
ATOM     16  C   UNL     1       5.759   4.477  16.238  0.00  0.00    +0.000 A 
ATOM     17  C   UNL     1       4.597   4.403  17.019  0.00  0.00    +0.000 A 
ATOM     18  C   UNL     1       3.269   3.883  16.647  0.00  0.00    +0.000 C 
ATOM     19  H   UNL     1       8.756   4.992  15.634  0.00  0.00    +0.000 HD
ENDROOT
BRANCH   1  21
ATOM     20  C   UNL     1       1.752   6.565  18.019  0.00  0.00    +0.000 C 
ATOM     21  C   UNL     1       1.326   5.115  17.775  0.00  0.00    +0.000 C 
ENDBRANCH   1  21
TORSDOF 1
ENDMDL
MODEL 4
REMARK VINA RESULT:      -7.1      0.915      1.144
REMARK  Name = 
REMARK  3 active torsions:
REMARK  status: ('A' for Active; 'I' for Inactive)
REMARK    1  A    between atoms: C_1  and  C_2
REMARK    2  A    between atoms: C_2  and  C_3
REMARK    3  A    between atoms: C_8  and  C_9
REMARK                            x       y       z     vdW  Elec       q    Type
REMARK                         _______ _______ _______ _____ _____    ______ ____
ROOT
ATOM      1  C   UNL     1       4.978   6.151  17.592  0.00  0.00    +0.000 C 
ATOM      2  C   UNL     1       6.321   6.730  18.096  0.00  0.00    +0.000 C 
ATOM      3  C   UNL     1       7.180   5.627  18.731  0.00  0.00    +0.000 C 
ATOM      4  C   UNL     1       7.488   4.567  17.678  0.00  0.00    +0.000 C 
ATOM      5  O   UNL     1       8.564   3.970  17.651  0.00  0.00    +0.000 OA
ATOM      6  C   UNL     1       6.430   4.271  16.631  0.00  0.00    +0.000 C 
ATOM      7  C   UNL     1       6.967   4.665  15.277  0.00  0.00    +0.000 C 
ATOM      8  C   UNL     1       5.241   4.703  17.091  0.00  0.00    +0.000 C 
ATOM      9  C   UNL     1       4.283   3.802  17.852  0.00  0.00    +0.000 A 
ATOM     10  C   UNL     1       4.160   2.412  17.769  0.00  0.00    +0.000 A 
ATOM     11  C   UNL     1       3.234   1.781  18.614  0.00  0.00    +0.000 A 
ATOM     12  C   UNL     1       2.550   2.585  19.526  0.00  0.00    +0.000 A 
ATOM     13  N   UNL     1       1.644   2.363  20.536  0.00  0.00    +0.000 N 
ATOM     14  N   UNL     1       1.293   3.484  21.236  0.00  0.00    +0.000 NA
ATOM     15  C   UNL     1       1.978   4.475  20.641  0.00  0.00    +0.000 A 
ATOM     16  C   UNL     1       2.701   3.932  19.611  0.00  0.00    +0.000 A 
ATOM     17  C   UNL     1       3.575   4.618  18.756  0.00  0.00    +0.000 A 
ATOM     18  C   UNL     1       3.955   6.042  18.774  0.00  0.00    +0.000 C 
ATOM     19  H   UNL     1       1.244   1.478  20.824  0.00  0.00    +0.000 HD
ENDROOT
BRANCH   1  21
ATOM     20  C   UNL     1       5.103   6.895  15.098  0.00  0.00    +0.000 C 
ATOM     21  C   UNL     1       4.395   7.023  16.449  0.00  0.00    +0.000 C 
ENDBRANCH   1  21
TORSDOF 1
ENDMDL
MODEL 5
REMARK VINA RESULT:      -7.1      3.557      5.398
REMARK  Name = 
REMARK  3 active torsions:
REMARK  status: ('A' for Active; 'I' for Inactive)
REMARK    1  A    between atoms: C_1  and  C_2
REMARK    2  A    between atoms: C_2  and  C_3
REMARK    3  A    between atoms: C_8  and  C_9
REMARK                            x       y       z     vdW  Elec       q    Type
REMARK                         _______ _______ _______ _____ _____    ______ ____
ROOT
ATOM      1  C   UNL     1       3.942   4.020  19.524  0.00  0.00    +0.000 C 
ATOM      2  C   UNL     1       2.604   4.645  19.983  0.00  0.00    +0.000 C 
ATOM      3  C   UNL     1       1.891   5.322  18.803  0.00  0.00    +0.000 C 
ATOM      4  C   UNL     1       1.584   4.274  17.739  0.00  0.00    +0.000 C 
ATOM      5  O   UNL     1       0.560   4.320  17.056  0.00  0.00    +0.000 OA
ATOM      6  C   UNL     1       2.571   3.138  17.548  0.00  0.00    +0.000 C 
ATOM      7  C   UNL     1       1.895   1.841  17.918  0.00  0.00    +0.000 C 
ATOM      8  C   UNL     1       3.757   3.510  18.069  0.00  0.00    +0.000 C 
ATOM      9  C   UNL     1       4.844   4.170  17.236  0.00  0.00    +0.000 A 
ATOM     10  C   UNL     1       5.070   4.045  15.863  0.00  0.00    +0.000 A 
ATOM     11  C   UNL     1       6.111   4.798  15.297  0.00  0.00    +0.000 A 
ATOM     12  C   UNL     1       6.801   5.670  16.138  0.00  0.00    +0.000 A 
ATOM     13  N   UNL     1       7.802   6.597  15.976  0.00  0.00    +0.000 N 
ATOM     14  N   UNL     1       8.119   7.292  17.110  0.00  0.00    +0.000 NA
ATOM     15  C   UNL     1       7.309   6.777  18.051  0.00  0.00    +0.000 A 
ATOM     16  C   UNL     1       6.550   5.797  17.468  0.00  0.00    +0.000 A 
ATOM     17  C   UNL     1       5.556   5.031  18.093  0.00  0.00    +0.000 A 
ATOM     18  C   UNL     1       5.065   5.113  19.480  0.00  0.00    +0.000 C 
ATOM     19  H   UNL     1       8.294   6.832  15.122  0.00  0.00    +0.000 HD
ENDROOT
BRANCH   1  21
ATOM     20  C   UNL     1       3.245   2.304  21.357  0.00  0.00    +0.000 C 
ATOM     21  C   UNL     1       4.357   2.854  20.460  0.00  0.00    +0.000 C 
ENDBRANCH   1  21
TORSDOF 1
ENDMDL
MODEL 6
REMARK VINA RESULT:      -7.0      1.615      3.205
REMARK  Name = 
REMARK  3 active torsions:
REMARK  status: ('A' for Active; 'I' for Inactive)
REMARK    1  A    between atoms: C_1  and  C_2
REMARK    2  A    between atoms: C_2  and  C_3
REMARK    3  A    between atoms: C_8  and  C_9
REMARK                            x       y       z     vdW  Elec       q    Type
REMARK                         _______ _______ _______ _____ _____    ______ ____
ROOT
ATOM      1  C   UNL     1       6.218   4.583  17.889  0.00  0.00    +0.000 C 
ATOM      2  C   UNL     1       6.442   4.320  16.381  0.00  0.00    +0.000 C 
ATOM      3  C   UNL     1       5.291   4.908  15.553  0.00  0.00    +0.000 C 
ATOM      4  C   UNL     1       5.243   6.418  15.768  0.00  0.00    +0.000 C 
ATOM      5  O   UNL     1       4.929   7.194  14.865  0.00  0.00    +0.000 OA
ATOM      6  C   UNL     1       5.619   6.957  17.135  0.00  0.00    +0.000 C 
ATOM      7  C   UNL     1       6.868   7.793  16.998  0.00  0.00    +0.000 C 
ATOM      8  C   UNL     1       5.511   5.959  18.033  0.00  0.00    +0.000 C 
ATOM      9  C   UNL     1       4.242   5.713  18.832  0.00  0.00    +0.000 A 
ATOM     10  C   UNL     1       3.261   6.640  19.195  0.00  0.00    +0.000 A 
ATOM     11  C   UNL     1       2.139   6.170  19.894  0.00  0.00    +0.000 A 
ATOM     12  C   UNL     1       2.053   4.796  20.118  0.00  0.00    +0.000 A 
ATOM     13  N   UNL     1       1.124   3.954  20.680  0.00  0.00    +0.000 N 
ATOM     14  N   UNL     1       1.448   2.626  20.608  0.00  0.00    +0.000 NA
ATOM     15  C   UNL     1       2.645   2.610  19.998  0.00  0.00    +0.000 A 
ATOM     16  C   UNL     1       3.005   3.905  19.734  0.00  0.00    +0.000 A 
ATOM     17  C   UNL     1       4.169   4.328  19.078  0.00  0.00    +0.000 A 
ATOM     18  C   UNL     1       5.245   3.510  18.490  0.00  0.00    +0.000 C 
ATOM     19  H   UNL     1       0.239   4.204  21.104  0.00  0.00    +0.000 HD
ENDROOT
BRANCH   1  21
ATOM     20  C   UNL     1       7.715   5.670  19.724  0.00  0.00    +0.000 C 
ATOM     21  C   UNL     1       7.566   4.582  18.657  0.00  0.00    +0.000 C 
ENDBRANCH   1  21
TORSDOF 1
ENDMDL
MODEL 7
REMARK VINA RESULT:      -6.9      3.349      5.225
REMARK  Name = 
REMARK  3 active torsions:
REMARK  status: ('A' for Active; 'I' for Inactive)
REMARK    1  A    between atoms: C_1  and  C_2
REMARK    2  A    between atoms: C_2  and  C_3
REMARK    3  A    between atoms: C_8  and  C_9
REMARK                            x       y       z     vdW  Elec       q    Type
REMARK                         _______ _______ _______ _____ _____    ______ ____
ROOT
ATOM      1  C   UNL     1       2.590   5.841  18.148  0.00  0.00    +0.000 C 
ATOM      2  C   UNL     1       1.356   4.937  17.923  0.00  0.00    +0.000 C 
ATOM      3  C   UNL     1       1.743   3.455  18.034  0.00  0.00    +0.000 C 
ATOM      4  C   UNL     1       2.279   3.184  19.436  0.00  0.00    +0.000 C 
ATOM      5  O   UNL     1       2.075   2.117  20.016  0.00  0.00    +0.000 OA
ATOM      6  C   UNL     1       3.064   4.284  20.126  0.00  0.00    +0.000 C 
ATOM      7  C   UNL     1       2.296   4.735  21.344  0.00  0.00    +0.000 C 
ATOM      8  C   UNL     1       3.508   5.144  19.190  0.00  0.00    +0.000 C 
ATOM      9  C   UNL     1       4.877   5.012  18.543  0.00  0.00    +0.000 A 
ATOM     10  C   UNL     1       6.028   4.426  19.076  0.00  0.00    +0.000 A 
ATOM     11  C   UNL     1       7.173   4.370  18.267  0.00  0.00    +0.000 A 
ATOM     12  C   UNL     1       7.058   4.846  16.961  0.00  0.00    +0.000 A 
ATOM     13  N   UNL     1       7.887   4.909  15.867  0.00  0.00    +0.000 N 
ATOM     14  N   UNL     1       7.299   5.409  14.738  0.00  0.00    +0.000 NA
ATOM     15  C   UNL     1       6.045   5.705  15.123  0.00  0.00    +0.000 A 
ATOM     16  C   UNL     1       5.922   5.390  16.451  0.00  0.00    +0.000 A 
ATOM     17  C   UNL     1       4.765   5.516  17.232  0.00  0.00    +0.000 A 
ATOM     18  C   UNL     1       3.422   5.965  16.825  0.00  0.00    +0.000 C 
ATOM     19  H   UNL     1       8.852   4.607  15.805  0.00  0.00    +0.000 HD
ENDROOT
BRANCH   1  21
ATOM     20  C   UNL     1       2.478   8.407  17.708  0.00  0.00    +0.000 C 
ATOM     21  C   UNL     1       2.163   7.244  18.653  0.00  0.00    +0.000 C 
ENDBRANCH   1  21
TORSDOF 1
ENDMDL
MODEL 8
REMARK VINA RESULT:      -6.7      1.670      2.393
REMARK  Name = 
REMARK  3 active torsions:
REMARK  status: ('A' for Active; 'I' for Inactive)
REMARK    1  A    between atoms: C_1  and  C_2
REMARK    2  A    between atoms: C_2  and  C_3
REMARK    3  A    between atoms: C_8  and  C_9
REMARK                            x       y       z     vdW  Elec       q    Type
REMARK                         _______ _______ _______ _____ _____    ______ ____
ROOT
ATOM      1  C   UNL     1       6.070   5.184  17.992  0.00  0.00    +0.000 C 
ATOM      2  C   UNL     1       7.070   4.473  17.052  0.00  0.00    +0.000 C 
ATOM      3  C   UNL     1       6.328   3.577  16.050  0.00  0.00    +0.000 C 
ATOM      4  C   UNL     1       5.407   4.441  15.195  0.00  0.00    +0.000 C 
ATOM      5  O   UNL     1       5.200   4.193  14.007  0.00  0.00    +0.000 OA
ATOM      6  C   UNL     1       4.757   5.650  15.842  0.00  0.00    +0.000 C 
ATOM      7  C   UNL     1       5.278   6.897  15.171  0.00  0.00    +0.000 C 
ATOM      8  C   UNL     1       4.780   5.484  17.178  0.00  0.00    +0.000 C 
ATOM      9  C   UNL     1       3.629   4.854  17.944  0.00  0.00    +0.000 A 
ATOM     10  C   UNL     1       2.275   4.831  17.596  0.00  0.00    +0.000 A 
ATOM     11  C   UNL     1       1.391   4.137  18.437  0.00  0.00    +0.000 A 
ATOM     12  C   UNL     1       1.942   3.462  19.527  0.00  0.00    +0.000 A 
ATOM     13  N   UNL     1       1.454   2.642  20.515  0.00  0.00    +0.000 N 
ATOM     14  N   UNL     1       2.410   2.136  21.352  0.00  0.00    +0.000 NA
ATOM     15  C   UNL     1       3.559   2.669  20.903  0.00  0.00    +0.000 A 
ATOM     16  C   UNL     1       3.265   3.474  19.835  0.00  0.00    +0.000 A 
ATOM     17  C   UNL     1       4.183   4.193  19.057  0.00  0.00    +0.000 A 
ATOM     18  C   UNL     1       5.652   4.230  19.165  0.00  0.00    +0.000 C 
ATOM     19  H   UNL     1       0.493   2.361  20.667  0.00  0.00    +0.000 HD
ENDROOT
BRANCH   1  21
ATOM     20  C   UNL     1       7.710   7.180  17.653  0.00  0.00    +0.000 C 
ATOM     21  C   UNL     1       6.676   6.498  18.553  0.00  0.00    +0.000 C 
ENDBRANCH   1  21
TORSDOF 1
ENDMDL
MODEL 9
REMARK VINA RESULT:      -6.4      3.352      5.235
REMARK  Name = 
REMARK  3 active torsions:
REMARK  status: ('A' for Active; 'I' for Inactive)
REMARK    1  A    between atoms: C_1  and  C_2
REMARK    2  A    between atoms: C_2  and  C_3
REMARK    3  A    between atoms: C_8  and  C_9
REMARK                            x       y       z     vdW  Elec       q    Type
REMARK                         _______ _______ _______ _____ _____    ______ ____
ROOT
ATOM      1  C   UNL     1       2.107   5.226  19.346  0.00  0.00    +0.000 C 
ATOM      2  C   UNL     1       0.928   4.332  18.895  0.00  0.00    +0.000 C 
ATOM      3  C   UNL     1       1.445   3.012  18.305  0.00  0.00    +0.000 C 
ATOM      4  C   UNL     1       2.227   2.259  19.377  0.00  0.00    +0.000 C 
ATOM      5  O   UNL     1       2.208   1.030  19.454  0.00  0.00    +0.000 OA
ATOM      6  C   UNL     1       3.026   3.069  20.380  0.00  0.00    +0.000 C 
ATOM      7  C   UNL     1       2.438   2.855  21.753  0.00  0.00    +0.000 C 
ATOM      8  C   UNL     1       3.238   4.296  19.867  0.00  0.00    +0.000 C 
ATOM      9  C   UNL     1       4.486   4.645  19.072  0.00  0.00    +0.000 A 
ATOM     10  C   UNL     1       5.752   4.061  19.160  0.00  0.00    +0.000 A 
ATOM     11  C   UNL     1       6.748   4.514  18.280  0.00  0.00    +0.000 A 
ATOM     12  C   UNL     1       6.379   5.471  17.334  0.00  0.00    +0.000 A 
ATOM     13  N   UNL     1       7.007   6.103  16.289  0.00  0.00    +0.000 N 
ATOM     14  N   UNL     1       6.201   6.939  15.566  0.00  0.00    +0.000 NA
ATOM     15  C   UNL     1       5.009   6.864  16.184  0.00  0.00    +0.000 A 
ATOM     16  C   UNL     1       5.135   6.009  17.247  0.00  0.00    +0.000 A 
ATOM     17  C   UNL     1       4.118   5.629  18.134  0.00  0.00    +0.000 A 
ATOM     18  C   UNL     1       2.694   6.010  18.122  0.00  0.00    +0.000 C 
ATOM     19  H   UNL     1       7.969   5.997  15.990  0.00  0.00    +0.000 HD
ENDROOT
BRANCH   1  21
ATOM     20  C   UNL     1       1.876   7.695  20.145  0.00  0.00    +0.000 C 
ATOM     21  C   UNL     1       1.660   6.212  20.457  0.00  0.00    +0.000 C 
ENDBRANCH   1  21
TORSDOF 1
ENDMDL
