MODEL 1
REMARK VINA RESULT:      -8.5      0.000      0.000
REMARK  Name = 
REMARK  6 active torsions:
REMARK  status: ('A' for Active; 'I' for Inactive)
REMARK    1  A    between atoms: C_1  and  N_2
REMARK    2  A    between atoms: C_6  and  C_7
REMARK    3  A    between atoms: C_6  and  C_8
REMARK    4  A    between atoms: C_10  and  C_11
REMARK    5  A    between atoms: C_15  and  C_16
REMARK    6  A    between atoms: C_19  and  C_20
REMARK                            x       y       z     vdW  Elec       q    Type
REMARK                         _______ _______ _______ _____ _____    ______ ____
ROOT
ATOM      1  C   UNL     1      -0.088  10.642  20.305  0.00  0.00    +0.000 A 
ATOM      2  S   UNL     1       1.041   9.771  19.339  0.00  0.00    +0.000 S 
ATOM      3  C   UNL     1       1.159   8.485  20.464  0.00  0.00    +0.000 A 
ATOM      4  C   UNL     1       0.570   8.850  21.664  0.00  0.00    +0.000 A 
ATOM      5  C   UNL     1      -0.108  10.092  21.567  0.00  0.00    +0.000 A 
ATOM      6  F   UNL     1      -0.765  10.613  22.565  0.00  0.00    +0.000 F 
ENDROOT
BRANCH   1  12
ATOM      7  C   UNL     1       0.722  15.607  21.179  0.00  0.00    +0.000 C 
ATOM      8  N   UNL     1       0.431  14.197  20.850  0.00  0.00    +0.000 N 
ATOM      9  C   UNL     1      -0.569  13.477  21.486  0.00  0.00    +0.000 C 
ATOM     10  N   UNL     1      -0.756  13.547  22.753  0.00  0.00    +0.000 NA
ATOM     11  N   UNL     1      -1.376  12.742  20.693  0.00  0.00    +0.000 N 
ATOM     12  C   UNL     1      -0.831  11.824  19.689  0.00  0.00    +0.000 C 
ATOM     13  C   UNL     1      -2.060  11.284  18.912  0.00  0.00    +0.000 C 
ATOM     14  C   UNL     1      -0.009  12.624  18.692  0.00  0.00    +0.000 C 
ATOM     15  S   UNL     1       1.213  13.619  19.478  0.00  0.00    +0.000 S 
ATOM     16  O   UNL     1       1.474  14.741  18.602  0.00  0.00    +0.000 OA
ATOM     17  O   UNL     1       2.311  12.777  19.916  0.00  0.00    +0.000 OA
ATOM     18  H   UNL     1       0.008  14.089  23.161  0.00  0.00    +0.000 HD
ATOM     19  H   UNL     1      -2.046  12.271  21.298  0.00  0.00    +0.000 HD
ENDBRANCH   1  12
BRANCH   3  20
ATOM     20  C   UNL     1       1.837   7.241  20.072  0.00  0.00    +0.000 A 
ATOM     21  C   UNL     1       1.687   6.072  20.832  0.00  0.00    +0.000 A 
ATOM     22  C   UNL     1       2.357   4.899  20.475  0.00  0.00    +0.000 A 
ATOM     23  C   UNL     1       3.173   4.878  19.344  0.00  0.00    +0.000 A 
ATOM     24  C   UNL     1       3.324   6.022  18.555  0.00  0.00    +0.000 A 
ATOM     25  C   UNL     1       2.644   7.188  18.920  0.00  0.00    +0.000 A 
BRANCH  24  26
ATOM     26  C   UNL     1       4.153   5.999  17.353  0.00  0.00    +0.000 A 
ATOM     27  N   UNL     1       4.596   7.105  16.751  0.00  0.00    +0.000 NA
ATOM     28  O   UNL     1       5.460   6.627  15.778  0.00  0.00    +0.000 OA
ATOM     29  C   UNL     1       5.442   5.266  15.864  0.00  0.00    +0.000 A 
ATOM     30  N   UNL     1       4.598   4.827  16.777  0.00  0.00    +0.000 NA
BRANCH  29  31
ATOM     31  C   UNL     1       6.426   4.397  15.105  0.00  0.00    +0.000 C 
ATOM     32  C   UNL     1       5.928   3.895  13.755  0.00  0.00    +0.000 C 
ATOM     33  C   UNL     1       7.118   4.793  13.821  0.00  0.00    +0.000 C 
ENDBRANCH  29  31
ENDBRANCH  24  26
ENDBRANCH   3  20
TORSDOF 4
ENDMDL
MODEL 2
REMARK VINA RESULT:      -8.4      3.959      9.332
REMARK  Name = 
REMARK  6 active torsions:
REMARK  status: ('A' for Active; 'I' for Inactive)
REMARK    1  A    between atoms: C_1  and  N_2
REMARK    2  A    between atoms: C_6  and  C_7
REMARK    3  A    between atoms: C_6  and  C_8
REMARK    4  A    between atoms: C_10  and  C_11
REMARK    5  A    between atoms: C_15  and  C_16
REMARK    6  A    between atoms: C_19  and  C_20
REMARK                            x       y       z     vdW  Elec       q    Type
REMARK                         _______ _______ _______ _____ _____    ______ ____
ROOT
ATOM      1  C   UNL     1       3.615   6.368  18.460  0.00  0.00    +0.000 A 
ATOM      2  S   UNL     1       2.696   7.107  19.715  0.00  0.00    +0.000 S 
ATOM      3  C   UNL     1       2.088   8.330  18.681  0.00  0.00    +0.000 A 
ATOM      4  C   UNL     1       2.791   8.335  17.487  0.00  0.00    +0.000 A 
ATOM      5  C   UNL     1       3.677   7.231  17.389  0.00  0.00    +0.000 A 
ATOM      6  F   UNL     1       4.413   7.015  16.335  0.00  0.00    +0.000 F 
ENDROOT
BRANCH   1  12
ATOM      7  C   UNL     1       1.133   2.122  19.834  0.00  0.00    +0.000 C 
ATOM      8  N   UNL     1       1.929   3.294  19.418  0.00  0.00    +0.000 N 
ATOM      9  C   UNL     1       2.601   4.098  20.326  0.00  0.00    +0.000 C 
ATOM     10  N   UNL     1       2.068   4.462  21.435  0.00  0.00    +0.000 NA
ATOM     11  N   UNL     1       3.869   4.431  20.011  0.00  0.00    +0.000 N 
ATOM     12  C   UNL     1       4.210   4.983  18.696  0.00  0.00    +0.000 C 
ATOM     13  C   UNL     1       5.756   5.101  18.685  0.00  0.00    +0.000 C 
ATOM     14  C   UNL     1       3.850   3.961  17.630  0.00  0.00    +0.000 C 
ATOM     15  S   UNL     1       2.178   3.421  17.759  0.00  0.00    +0.000 S 
ATOM     16  O   UNL     1       2.117   2.091  17.191  0.00  0.00    +0.000 OA
ATOM     17  O   UNL     1       1.296   4.459  17.257  0.00  0.00    +0.000 OA
ATOM     18  H   UNL     1       1.088   4.170  21.432  0.00  0.00    +0.000 HD
ATOM     19  H   UNL     1       4.221   5.022  20.761  0.00  0.00    +0.000 HD
ENDBRANCH   1  12
BRANCH   3  20
ATOM     20  C   UNL     1       0.988   9.188  19.146  0.00  0.00    +0.000 A 
ATOM     21  C   UNL     1       0.949   9.649  20.470  0.00  0.00    +0.000 A 
ATOM     22  C   UNL     1      -0.113  10.438  20.919  0.00  0.00    +0.000 A 
ATOM     23  C   UNL     1      -1.142  10.788  20.043  0.00  0.00    +0.000 A 
ATOM     24  C   UNL     1      -1.117  10.361  18.713  0.00  0.00    +0.000 A 
ATOM     25  C   UNL     1      -0.046   9.575  18.275  0.00  0.00    +0.000 A 
BRANCH  24  26
ATOM     26  C   UNL     1      -2.176  10.747  17.783  0.00  0.00    +0.000 A 
ATOM     27  N   UNL     1      -2.254  10.284  16.534  0.00  0.00    +0.000 NA
ATOM     28  O   UNL     1      -3.472  10.767  16.080  0.00  0.00    +0.000 OA
ATOM     29  C   UNL     1      -4.011  11.504  17.093  0.00  0.00    +0.000 A 
ATOM     30  N   UNL     1      -3.217  11.579  18.143  0.00  0.00    +0.000 NA
BRANCH  29  31
ATOM     31  C   UNL     1      -5.439  12.013  17.049  0.00  0.00    +0.000 C 
ATOM     32  C   UNL     1      -6.394  11.320  18.013  0.00  0.00    +0.000 C 
ATOM     33  C   UNL     1      -6.118  12.779  18.160  0.00  0.00    +0.000 C 
ENDBRANCH  29  31
ENDBRANCH  24  26
ENDBRANCH   3  20
TORSDOF 4
ENDMDL
MODEL 3
REMARK VINA RESULT:      -8.4      1.001      1.066
REMARK  Name = 
REMARK  6 active torsions:
REMARK  status: ('A' for Active; 'I' for Inactive)
REMARK    1  A    between atoms: C_1  and  N_2
REMARK    2  A    between atoms: C_6  and  C_7
REMARK    3  A    between atoms: C_6  and  C_8
REMARK    4  A    between atoms: C_10  and  C_11
REMARK    5  A    between atoms: C_15  and  C_16
REMARK    6  A    between atoms: C_19  and  C_20
REMARK                            x       y       z     vdW  Elec       q    Type
REMARK                         _______ _______ _______ _____ _____    ______ ____
ROOT
ATOM      1  C   UNL     1       0.375  10.025  20.118  0.00  0.00    +0.000 A 
ATOM      2  S   UNL     1       1.431   9.197  19.038  0.00  0.00    +0.000 S 
ATOM      3  C   UNL     1       1.699   7.908  20.135  0.00  0.00    +0.000 A 
ATOM      4  C   UNL     1       1.220   8.246  21.390  0.00  0.00    +0.000 A 
ATOM      5  C   UNL     1       0.496   9.467  21.371  0.00  0.00    +0.000 A 
ATOM      6  F   UNL     1      -0.075   9.960  22.434  0.00  0.00    +0.000 F 
ENDROOT
BRANCH   1  12
ATOM      7  C   UNL     1      -0.416  14.547  22.355  0.00  0.00    +0.000 C 
ATOM      8  N   UNL     1      -0.227  13.276  21.627  0.00  0.00    +0.000 N 
ATOM      9  C   UNL     1      -1.133  12.230  21.708  0.00  0.00    +0.000 C 
ATOM     10  N   UNL     1      -1.662  11.875  22.822  0.00  0.00    +0.000 NA
ATOM     11  N   UNL     1      -1.477  11.641  20.545  0.00  0.00    +0.000 N 
ATOM     12  C   UNL     1      -0.462  11.186  19.589  0.00  0.00    +0.000 C 
ATOM     13  C   UNL     1      -1.252  10.700  18.347  0.00  0.00    +0.000 C 
ATOM     14  C   UNL     1       0.354  12.386  19.137  0.00  0.00    +0.000 C 
ATOM     15  S   UNL     1       1.016  13.294  20.494  0.00  0.00    +0.000 S 
ATOM     16  O   UNL     1       1.195  14.658  20.043  0.00  0.00    +0.000 OA
ATOM     17  O   UNL     1       2.140  12.569  21.057  0.00  0.00    +0.000 OA
ATOM     18  H   UNL     1      -1.205  12.393  23.575  0.00  0.00    +0.000 HD
ATOM     19  H   UNL     1      -2.134  10.896  20.766  0.00  0.00    +0.000 HD
ENDBRANCH   1  12
BRANCH   3  20
ATOM     20  C   UNL     1       2.374   6.689  19.666  0.00  0.00    +0.000 A 
ATOM     21  C   UNL     1       2.299   5.499  20.404  0.00  0.00    +0.000 A 
ATOM     22  C   UNL     1       2.968   4.350  19.974  0.00  0.00    +0.000 A 
ATOM     23  C   UNL     1       3.706   4.375  18.790  0.00  0.00    +0.000 A 
ATOM     24  C   UNL     1       3.780   5.540  18.023  0.00  0.00    +0.000 A 
ATOM     25  C   UNL     1       3.103   6.683  18.463  0.00  0.00    +0.000 A 
BRANCH  24  26
ATOM     26  C   UNL     1       4.527   5.565  16.768  0.00  0.00    +0.000 A 
ATOM     27  N   UNL     1       5.074   6.675  16.266  0.00  0.00    +0.000 NA
ATOM     28  O   UNL     1       5.809   6.218  15.183  0.00  0.00    +0.000 OA
ATOM     29  C   UNL     1       5.619   4.870  15.113  0.00  0.00    +0.000 A 
ATOM     30  N   UNL     1       4.780   4.428  16.030  0.00  0.00    +0.000 NA
BRANCH  29  31
ATOM     31  C   UNL     1       6.435   3.987  14.188  0.00  0.00    +0.000 C 
ATOM     32  C   UNL     1       5.731   3.592  12.895  0.00  0.00    +0.000 C 
ATOM     33  C   UNL     1       6.977   4.412  12.843  0.00  0.00    +0.000 C 
ENDBRANCH  29  31
ENDBRANCH  24  26
ENDBRANCH   3  20
TORSDOF 4
ENDMDL
MODEL 4
REMARK VINA RESULT:      -8.2      2.212      2.969
REMARK  Name = 
REMARK  6 active torsions:
REMARK  status: ('A' for Active; 'I' for Inactive)
REMARK    1  A    between atoms: C_1  and  N_2
REMARK    2  A    between atoms: C_6  and  C_7
REMARK    3  A    between atoms: C_6  and  C_8
REMARK    4  A    between atoms: C_10  and  C_11
REMARK    5  A    between atoms: C_15  and  C_16
REMARK    6  A    between atoms: C_19  and  C_20
REMARK                            x       y       z     vdW  Elec       q    Type
REMARK                         _______ _______ _______ _____ _____    ______ ____
ROOT
ATOM      1  C   UNL     1       0.248  11.789  19.722  0.00  0.00    +0.000 A 
ATOM      2  S   UNL     1       1.103  10.639  18.766  0.00  0.00    +0.000 S 
ATOM      3  C   UNL     1       1.296   9.551  20.075  0.00  0.00    +0.000 A 
ATOM      4  C   UNL     1       0.966  10.178  21.265  0.00  0.00    +0.000 A 
ATOM      5  C   UNL     1       0.400  11.461  21.050  0.00  0.00    +0.000 A 
ATOM      6  F   UNL     1      -0.019  12.216  22.027  0.00  0.00    +0.000 F 
ENDROOT
BRANCH   1  12
ATOM      7  C   UNL     1      -4.539  11.801  17.944  0.00  0.00    +0.000 C 
ATOM      8  N   UNL     1      -3.153  11.895  18.444  0.00  0.00    +0.000 N 
ATOM      9  C   UNL     1      -2.052  11.664  17.634  0.00  0.00    +0.000 C 
ATOM     10  N   UNL     1      -2.016  10.691  16.798  0.00  0.00    +0.000 NA
ATOM     11  N   UNL     1      -1.040  12.551  17.727  0.00  0.00    +0.000 N 
ATOM     12  C   UNL     1      -0.478  12.936  19.025  0.00  0.00    +0.000 C 
ATOM     13  C   UNL     1       0.550  14.055  18.715  0.00  0.00    +0.000 C 
ATOM     14  C   UNL     1      -1.574  13.578  19.860  0.00  0.00    +0.000 C 
ATOM     15  S   UNL     1      -3.004  12.558  19.983  0.00  0.00    +0.000 S 
ATOM     16  O   UNL     1      -4.133  13.437  20.206  0.00  0.00    +0.000 OA
ATOM     17  O   UNL     1      -2.744  11.472  20.910  0.00  0.00    +0.000 OA
ATOM     18  H   UNL     1      -2.840  10.106  16.950  0.00  0.00    +0.000 HD
ATOM     19  H   UNL     1      -0.311  12.246  17.085  0.00  0.00    +0.000 HD
ENDBRANCH   1  12
BRANCH   3  20
ATOM     20  C   UNL     1       1.776   8.186  19.815  0.00  0.00    +0.000 A 
ATOM     21  C   UNL     1       1.421   7.127  20.665  0.00  0.00    +0.000 A 
ATOM     22  C   UNL     1       1.903   5.836  20.434  0.00  0.00    +0.000 A 
ATOM     23  C   UNL     1       2.732   5.586  19.340  0.00  0.00    +0.000 A 
ATOM     24  C   UNL     1       3.083   6.617  18.465  0.00  0.00    +0.000 A 
ATOM     25  C   UNL     1       2.591   7.904  18.704  0.00  0.00    +0.000 A 
BRANCH  24  26
ATOM     26  C   UNL     1       3.928   6.356  17.301  0.00  0.00    +0.000 A 
ATOM     27  N   UNL     1       4.466   7.326  16.559  0.00  0.00    +0.000 NA
ATOM     28  O   UNL     1       5.305   6.646  15.688  0.00  0.00    +0.000 OA
ATOM     29  C   UNL     1       5.178   5.318  15.969  0.00  0.00    +0.000 A 
ATOM     30  N   UNL     1       4.287   5.082  16.912  0.00  0.00    +0.000 NA
BRANCH  29  31
ATOM     31  C   UNL     1       6.102   4.275  15.370  0.00  0.00    +0.000 C 
ATOM     32  C   UNL     1       5.750   3.849  13.949  0.00  0.00    +0.000 C 
ATOM     33  C   UNL     1       7.054   4.521  14.222  0.00  0.00    +0.000 C 
ENDBRANCH  29  31
ENDBRANCH  24  26
ENDBRANCH   3  20
TORSDOF 4
ENDMDL
MODEL 5
REMARK VINA RESULT:      -8.1      2.333      2.861
REMARK  Name = 
REMARK  6 active torsions:
REMARK  status: ('A' for Active; 'I' for Inactive)
REMARK    1  A    between atoms: C_1  and  N_2
REMARK    2  A    between atoms: C_6  and  C_7
REMARK    3  A    between atoms: C_6  and  C_8
REMARK    4  A    between atoms: C_10  and  C_11
REMARK    5  A    between atoms: C_15  and  C_16
REMARK    6  A    between atoms: C_19  and  C_20
REMARK                            x       y       z     vdW  Elec       q    Type
REMARK                         _______ _______ _______ _____ _____    ______ ____
ROOT
ATOM      1  C   UNL     1       0.735  10.672  18.955  0.00  0.00    +0.000 A 
ATOM      2  S   UNL     1       1.783   9.590  19.790  0.00  0.00    +0.000 S 
ATOM      3  C   UNL     1       1.714   8.412  18.549  0.00  0.00    +0.000 A 
ATOM      4  C   UNL     1       0.697   8.719  17.660  0.00  0.00    +0.000 A 
ATOM      5  C   UNL     1       0.129   9.993  17.922  0.00  0.00    +0.000 A 
ATOM      6  F   UNL     1      -0.819  10.502  17.187  0.00  0.00    +0.000 F 
ENDROOT
BRANCH   1  12
ATOM      7  C   UNL     1      -3.061  12.676  21.722  0.00  0.00    +0.000 C 
ATOM      8  N   UNL     1      -1.912  12.178  20.940  0.00  0.00    +0.000 N 
ATOM      9  C   UNL     1      -1.836  12.311  19.562  0.00  0.00    +0.000 C 
ATOM     10  N   UNL     1      -2.847  12.096  18.802  0.00  0.00    +0.000 NA
ATOM     11  N   UNL     1      -0.658  12.738  19.063  0.00  0.00    +0.000 N 
ATOM     12  C   UNL     1       0.609  12.110  19.450  0.00  0.00    +0.000 C 
ATOM     13  C   UNL     1       1.716  12.962  18.778  0.00  0.00    +0.000 C 
ATOM     14  C   UNL     1       0.794  12.270  20.951  0.00  0.00    +0.000 C 
ATOM     15  S   UNL     1      -0.595  11.684  21.862  0.00  0.00    +0.000 S 
ATOM     16  O   UNL     1      -0.620  12.415  23.111  0.00  0.00    +0.000 OA
ATOM     17  O   UNL     1      -0.584  10.233  21.877  0.00  0.00    +0.000 OA
ATOM     18  H   UNL     1      -3.602  11.709  19.372  0.00  0.00    +0.000 HD
ATOM     19  H   UNL     1      -0.755  12.778  18.051  0.00  0.00    +0.000 HD
ENDBRANCH   1  12
BRANCH   3  20
ATOM     20  C   UNL     1       2.653   7.280  18.574  0.00  0.00    +0.000 A 
ATOM     21  C   UNL     1       2.681   6.396  19.662  0.00  0.00    +0.000 A 
ATOM     22  C   UNL     1       3.595   5.340  19.699  0.00  0.00    +0.000 A 
ATOM     23  C   UNL     1       4.482   5.147  18.639  0.00  0.00    +0.000 A 
ATOM     24  C   UNL     1       4.461   5.999  17.532  0.00  0.00    +0.000 A 
ATOM     25  C   UNL     1       3.538   7.050  17.505  0.00  0.00    +0.000 A 
BRANCH  24  26
ATOM     26  C   UNL     1       5.366   5.786  16.406  0.00  0.00    +0.000 A 
ATOM     27  N   UNL     1       6.523   6.437  16.267  0.00  0.00    +0.000 NA
ATOM     28  O   UNL     1       7.119   5.818  15.178  0.00  0.00    +0.000 OA
ATOM     29  C   UNL     1       6.252   4.861  14.740  0.00  0.00    +0.000 A 
ATOM     30  N   UNL     1       5.125   4.848  15.424  0.00  0.00    +0.000 NA
BRANCH  29  31
ATOM     31  C   UNL     1       6.647   3.830  13.700  0.00  0.00    +0.000 C 
ATOM     32  C   UNL     1       5.601   3.577  12.621  0.00  0.00    +0.000 C 
ATOM     33  C   UNL     1       6.935   4.133  12.248  0.00  0.00    +0.000 C 
ENDBRANCH  29  31
ENDBRANCH  24  26
ENDBRANCH   3  20
TORSDOF 4
ENDMDL
MODEL 6
REMARK VINA RESULT:      -8.1      2.183      2.705
REMARK  Name = 
REMARK  6 active torsions:
REMARK  status: ('A' for Active; 'I' for Inactive)
REMARK    1  A    between atoms: C_1  and  N_2
REMARK    2  A    between atoms: C_6  and  C_7
REMARK    3  A    between atoms: C_6  and  C_8
REMARK    4  A    between atoms: C_10  and  C_11
REMARK    5  A    between atoms: C_15  and  C_16
REMARK    6  A    between atoms: C_19  and  C_20
REMARK                            x       y       z     vdW  Elec       q    Type
REMARK                         _______ _______ _______ _____ _____    ______ ____
ROOT
ATOM      1  C   UNL     1       0.051  11.419  19.361  0.00  0.00    +0.000 A 
ATOM      2  S   UNL     1       0.990  10.294  20.266  0.00  0.00    +0.000 S 
ATOM      3  C   UNL     1       0.998   9.138  19.002  0.00  0.00    +0.000 A 
ATOM      4  C   UNL     1       0.074   9.489  18.032  0.00  0.00    +0.000 A 
ATOM      5  C   UNL     1      -0.480  10.774  18.266  0.00  0.00    +0.000 A 
ATOM      6  F   UNL     1      -1.344  11.323  17.460  0.00  0.00    +0.000 F 
ENDROOT
BRANCH   1  12
ATOM      7  C   UNL     1      -3.628  13.329  22.345  0.00  0.00    +0.000 C 
ATOM      8  N   UNL     1      -2.513  12.860  21.497  0.00  0.00    +0.000 N 
ATOM      9  C   UNL     1      -2.518  13.000  20.118  0.00  0.00    +0.000 C 
ATOM     10  N   UNL     1      -3.565  12.765  19.414  0.00  0.00    +0.000 NA
ATOM     11  N   UNL     1      -1.378  13.454  19.557  0.00  0.00    +0.000 N 
ATOM     12  C   UNL     1      -0.079  12.852  19.869  0.00  0.00    +0.000 C 
ATOM     13  C   UNL     1       0.971  13.731  19.141  0.00  0.00    +0.000 C 
ATOM     14  C   UNL     1       0.186  13.011  21.358  0.00  0.00    +0.000 C 
ATOM     15  S   UNL     1      -1.136  12.391  22.342  0.00  0.00    +0.000 S 
ATOM     16  O   UNL     1      -1.108  13.116  23.595  0.00  0.00    +0.000 OA
ATOM     17  O   UNL     1      -1.093  10.940  22.350  0.00  0.00    +0.000 OA
ATOM     18  H   UNL     1      -4.277  12.359  20.024  0.00  0.00    +0.000 HD
ATOM     19  H   UNL     1      -1.533  13.496  18.551  0.00  0.00    +0.000 HD
ENDBRANCH   1  12
BRANCH   3  20
ATOM     20  C   UNL     1       1.900   7.979  19.089  0.00  0.00    +0.000 A 
ATOM     21  C   UNL     1       1.858   7.120  20.197  0.00  0.00    +0.000 A 
ATOM     22  C   UNL     1       2.737   6.038  20.292  0.00  0.00    +0.000 A 
ATOM     23  C   UNL     1       3.657   5.793  19.273  0.00  0.00    +0.000 A 
ATOM     24  C   UNL     1       3.705   6.620  18.147  0.00  0.00    +0.000 A 
ATOM     25  C   UNL     1       2.817   7.697  18.061  0.00  0.00    +0.000 A 
BRANCH  24  26
ATOM     26  C   UNL     1       4.646   6.352  17.061  0.00  0.00    +0.000 A 
ATOM     27  N   UNL     1       5.663   7.162  16.762  0.00  0.00    +0.000 NA
ATOM     28  O   UNL     1       6.375   6.456  15.804  0.00  0.00    +0.000 OA
ATOM     29  C   UNL     1       5.706   5.288  15.592  0.00  0.00    +0.000 A 
ATOM     30  N   UNL     1       4.593   5.206  16.296  0.00  0.00    +0.000 NA
BRANCH  29  31
ATOM     31  C   UNL     1       6.296   4.158  14.770  0.00  0.00    +0.000 C 
ATOM     32  C   UNL     1       5.576   3.878  13.457  0.00  0.00    +0.000 C 
ATOM     33  C   UNL     1       6.998   4.329  13.443  0.00  0.00    +0.000 C 
ENDBRANCH  29  31
ENDBRANCH  24  26
ENDBRANCH   3  20
TORSDOF 4
ENDMDL
MODEL 7
REMARK VINA RESULT:      -8.0      2.210      2.930
REMARK  Name = 
REMARK  6 active torsions:
REMARK  status: ('A' for Active; 'I' for Inactive)
REMARK    1  A    between atoms: C_1  and  N_2
REMARK    2  A    between atoms: C_6  and  C_7
REMARK    3  A    between atoms: C_6  and  C_8
REMARK    4  A    between atoms: C_10  and  C_11
REMARK    5  A    between atoms: C_15  and  C_16
REMARK    6  A    between atoms: C_19  and  C_20
REMARK                            x       y       z     vdW  Elec       q    Type
REMARK                         _______ _______ _______ _____ _____    ______ ____
ROOT
ATOM      1  C   UNL     1       0.984  10.536  19.864  0.00  0.00    +0.000 A 
ATOM      2  S   UNL     1       1.676   9.229  18.980  0.00  0.00    +0.000 S 
ATOM      3  C   UNL     1       1.599   8.158  20.315  0.00  0.00    +0.000 A 
ATOM      4  C   UNL     1       1.316   8.864  21.473  0.00  0.00    +0.000 A 
ATOM      5  C   UNL     1       0.999  10.220  21.205  0.00  0.00    +0.000 A 
ATOM      6  F   UNL     1       0.665  11.061  22.143  0.00  0.00    +0.000 F 
ENDROOT
BRANCH   1  12
ATOM      7  C   UNL     1      -3.793  11.686  18.473  0.00  0.00    +0.000 C 
ATOM      8  N   UNL     1      -2.386  11.445  18.851  0.00  0.00    +0.000 N 
ATOM      9  C   UNL     1      -1.473  10.861  17.987  0.00  0.00    +0.000 C 
ATOM     10  N   UNL     1      -1.777   9.849  17.259  0.00  0.00    +0.000 NA
ATOM     11  N   UNL     1      -0.261  11.448  17.905  0.00  0.00    +0.000 N 
ATOM     12  C   UNL     1       0.513  11.774  19.107  0.00  0.00    +0.000 C 
ATOM     13  C   UNL     1       1.758  12.547  18.601  0.00  0.00    +0.000 C 
ATOM     14  C   UNL     1      -0.287  12.753  19.952  0.00  0.00    +0.000 C 
ATOM     15  S   UNL     1      -1.913  12.168  20.294  0.00  0.00    +0.000 S 
ATOM     16  O   UNL     1      -2.745  13.333  20.508  0.00  0.00    +0.000 OA
ATOM     17  O   UNL     1      -1.849  11.133  21.309  0.00  0.00    +0.000 OA
ATOM     18  H   UNL     1      -2.704   9.521  17.537  0.00  0.00    +0.000 HD
ATOM     19  H   UNL     1       0.293  10.907  17.245  0.00  0.00    +0.000 HD
ENDBRANCH   1  12
BRANCH   3  20
ATOM     20  C   UNL     1       1.843   6.724  20.105  0.00  0.00    +0.000 A 
ATOM     21  C   UNL     1       1.199   5.763  20.898  0.00  0.00    +0.000 A 
ATOM     22  C   UNL     1       1.456   4.402  20.718  0.00  0.00    +0.000 A 
ATOM     23  C   UNL     1       2.350   3.984  19.731  0.00  0.00    +0.000 A 
ATOM     24  C   UNL     1       2.990   4.919  18.912  0.00  0.00    +0.000 A 
ATOM     25  C   UNL     1       2.720   6.278  19.099  0.00  0.00    +0.000 A 
BRANCH  24  26
ATOM     26  C   UNL     1       3.905   4.488  17.857  0.00  0.00    +0.000 A 
ATOM     27  N   UNL     1       4.235   3.211  17.654  0.00  0.00    +0.000 NA
ATOM     28  O   UNL     1       4.971   3.245  16.480  0.00  0.00    +0.000 OA
ATOM     29  C   UNL     1       5.041   4.550  16.091  0.00  0.00    +0.000 A 
ATOM     30  N   UNL     1       4.455   5.365  16.945  0.00  0.00    +0.000 NA
BRANCH  29  31
ATOM     31  C   UNL     1       5.581   4.959  14.734  0.00  0.00    +0.000 C 
ATOM     32  C   UNL     1       7.096   4.872  14.596  0.00  0.00    +0.000 C 
ATOM     33  C   UNL     1       6.221   4.019  13.739  0.00  0.00    +0.000 C 
ENDBRANCH  29  31
ENDBRANCH  24  26
ENDBRANCH   3  20
TORSDOF 4
ENDMDL
MODEL 8
REMARK VINA RESULT:      -8.0      3.532      9.618
REMARK  Name = 
REMARK  6 active torsions:
REMARK  status: ('A' for Active; 'I' for Inactive)
REMARK    1  A    between atoms: C_1  and  N_2
REMARK    2  A    between atoms: C_6  and  C_7
REMARK    3  A    between atoms: C_6  and  C_8
REMARK    4  A    between atoms: C_10  and  C_11
REMARK    5  A    between atoms: C_15  and  C_16
REMARK    6  A    between atoms: C_19  and  C_20
REMARK                            x       y       z     vdW  Elec       q    Type
REMARK                         _______ _______ _______ _____ _____    ______ ____
ROOT
ATOM      1  C   UNL     1       3.769   6.229  18.422  0.00  0.00    +0.000 A 
ATOM      2  S   UNL     1       2.581   6.929  19.454  0.00  0.00    +0.000 S 
ATOM      3  C   UNL     1       2.201   8.171  18.337  0.00  0.00    +0.000 A 
ATOM      4  C   UNL     1       3.153   8.211  17.332  0.00  0.00    +0.000 A 
ATOM      5  C   UNL     1       4.056   7.119  17.411  0.00  0.00    +0.000 A 
ATOM      6  F   UNL     1       5.012   6.935  16.544  0.00  0.00    +0.000 F 
ENDROOT
BRANCH   1  12
ATOM      7  C   UNL     1       1.112   2.109  19.852  0.00  0.00    +0.000 C 
ATOM      8  N   UNL     1       1.958   3.242  19.427  0.00  0.00    +0.000 N 
ATOM      9  C   UNL     1       2.598   4.074  20.333  0.00  0.00    +0.000 C 
ATOM     10  N   UNL     1       2.013   4.502  21.391  0.00  0.00    +0.000 NA
ATOM     11  N   UNL     1       3.889   4.365  20.074  0.00  0.00    +0.000 N 
ATOM     12  C   UNL     1       4.316   4.845  18.756  0.00  0.00    +0.000 C 
ATOM     13  C   UNL     1       5.863   4.929  18.827  0.00  0.00    +0.000 C 
ATOM     14  C   UNL     1       3.990   3.780  17.721  0.00  0.00    +0.000 C 
ATOM     15  S   UNL     1       2.302   3.284  17.780  0.00  0.00    +0.000 S 
ATOM     16  O   UNL     1       2.241   1.929  17.273  0.00  0.00    +0.000 OA
ATOM     17  O   UNL     1       1.475   4.315  17.181  0.00  0.00    +0.000 OA
ATOM     18  H   UNL     1       1.029   4.232  21.347  0.00  0.00    +0.000 HD
ATOM     19  H   UNL     1       4.214   4.983  20.815  0.00  0.00    +0.000 HD
ENDBRANCH   1  12
BRANCH   3  20
ATOM     20  C   UNL     1       1.013   9.006  18.562  0.00  0.00    +0.000 A 
ATOM     21  C   UNL     1       0.143   9.314  17.506  0.00  0.00    +0.000 A 
ATOM     22  C   UNL     1      -0.969  10.134  17.714  0.00  0.00    +0.000 A 
ATOM     23  C   UNL     1      -1.233  10.643  18.986  0.00  0.00    +0.000 A 
ATOM     24  C   UNL     1      -0.395  10.334  20.061  0.00  0.00    +0.000 A 
ATOM     25  C   UNL     1       0.712   9.509  19.841  0.00  0.00    +0.000 A 
BRANCH  24  26
ATOM     26  C   UNL     1      -0.681  10.840  21.402  0.00  0.00    +0.000 A 
ATOM     27  N   UNL     1       0.027  10.492  22.479  0.00  0.00    +0.000 NA
ATOM     28  O   UNL     1      -0.470  11.314  23.479  0.00  0.00    +0.000 OA
ATOM     29  C   UNL     1      -1.456  12.072  22.918  0.00  0.00    +0.000 A 
ATOM     30  N   UNL     1      -1.671  11.768  21.653  0.00  0.00    +0.000 NA
BRANCH  29  31
ATOM     31  C   UNL     1      -2.086  13.243  23.647  0.00  0.00    +0.000 C 
ATOM     32  C   UNL     1      -1.199  14.477  23.761  0.00  0.00    +0.000 C 
ATOM     33  C   UNL     1      -2.482  14.551  23.002  0.00  0.00    +0.000 C 
ENDBRANCH  29  31
ENDBRANCH  24  26
ENDBRANCH   3  20
TORSDOF 4
ENDMDL
MODEL 9
REMARK VINA RESULT:      -8.0      1.366      1.508
REMARK  Name = 
REMARK  6 active torsions:
REMARK  status: ('A' for Active; 'I' for Inactive)
REMARK    1  A    between atoms: C_1  and  N_2
REMARK    2  A    between atoms: C_6  and  C_7
REMARK    3  A    between atoms: C_6  and  C_8
REMARK    4  A    between atoms: C_10  and  C_11
REMARK    5  A    between atoms: C_15  and  C_16
REMARK    6  A    between atoms: C_19  and  C_20
REMARK                            x       y       z     vdW  Elec       q    Type
REMARK                         _______ _______ _______ _____ _____    ______ ____
ROOT
ATOM      1  C   UNL     1       0.279  10.022  20.090  0.00  0.00    +0.000 A 
ATOM      2  S   UNL     1       1.262   8.927  19.193  0.00  0.00    +0.000 S 
ATOM      3  C   UNL     1       1.446   7.857  20.518  0.00  0.00    +0.000 A 
ATOM      4  C   UNL     1       1.005   8.463  21.683  0.00  0.00    +0.000 A 
ATOM      5  C   UNL     1       0.372   9.707  21.427  0.00  0.00    +0.000 A 
ATOM      6  F   UNL     1      -0.152  10.435  22.373  0.00  0.00    +0.000 F 
ENDROOT
BRANCH   1  12
ATOM      7  C   UNL     1      -0.865  14.701  21.786  0.00  0.00    +0.000 C 
ATOM      8  N   UNL     1      -0.562  13.377  21.206  0.00  0.00    +0.000 N 
ATOM      9  C   UNL     1      -1.463  12.324  21.242  0.00  0.00    +0.000 C 
ATOM     10  N   UNL     1      -2.151  12.054  22.291  0.00  0.00    +0.000 NA
ATOM     11  N   UNL     1      -1.626  11.633  20.096  0.00  0.00    +0.000 N 
ATOM     12  C   UNL     1      -0.476  11.118  19.344  0.00  0.00    +0.000 C 
ATOM     13  C   UNL     1      -1.069  10.514  18.045  0.00  0.00    +0.000 C 
ATOM     14  C   UNL     1       0.390  12.291  18.917  0.00  0.00    +0.000 C 
ATOM     15  S   UNL     1       0.837  13.323  20.273  0.00  0.00    +0.000 S 
ATOM     16  O   UNL     1       1.072  14.647  19.738  0.00  0.00    +0.000 OA
ATOM     17  O   UNL     1       1.868  12.669  21.057  0.00  0.00    +0.000 OA
ATOM     18  H   UNL     1      -1.815  12.643  23.056  0.00  0.00    +0.000 HD
ATOM     19  H   UNL     1      -2.304  10.897  20.281  0.00  0.00    +0.000 HD
ENDBRANCH   1  12
BRANCH   3  20
ATOM     20  C   UNL     1       2.027   6.525  20.294  0.00  0.00    +0.000 A 
ATOM     21  C   UNL     1       1.370   5.371  20.749  0.00  0.00    +0.000 A 
ATOM     22  C   UNL     1       1.939   4.108  20.563  0.00  0.00    +0.000 A 
ATOM     23  C   UNL     1       3.163   3.983  19.907  0.00  0.00    +0.000 A 
ATOM     24  C   UNL     1       3.828   5.114  19.424  0.00  0.00    +0.000 A 
ATOM     25  C   UNL     1       3.247   6.372  19.612  0.00  0.00    +0.000 A 
BRANCH  24  26
ATOM     26  C   UNL     1       5.097   4.988  18.710  0.00  0.00    +0.000 A 
ATOM     27  N   UNL     1       6.203   4.492  19.268  0.00  0.00    +0.000 NA
ATOM     28  O   UNL     1       7.094   4.404  18.210  0.00  0.00    +0.000 OA
ATOM     29  C   UNL     1       6.451   4.881  17.106  0.00  0.00    +0.000 A 
ATOM     30  N   UNL     1       5.236   5.318  17.377  0.00  0.00    +0.000 NA
BRANCH  29  31
ATOM     31  C   UNL     1       7.031   4.742  15.712  0.00  0.00    +0.000 C 
ATOM     32  C   UNL     1       6.337   3.709  14.831  0.00  0.00    +0.000 C 
ATOM     33  C   UNL     1       6.326   5.148  14.438  0.00  0.00    +0.000 C 
ENDBRANCH  29  31
ENDBRANCH  24  26
ENDBRANCH   3  20
TORSDOF 4
ENDMDL
