MODEL 1
REMARK VINA RESULT:      -7.7      0.000      0.000
REMARK  Name = 
REMARK  6 active torsions:
REMARK  status: ('A' for Active; 'I' for Inactive)
REMARK    1  A    between atoms: C_1  and  C_2
REMARK    2  A    between atoms: C_2  and  C_3
REMARK    3  A    between atoms: C_9  and  C_11
REMARK    4  A    between atoms: C_16  and  C_17
REMARK    5  A    between atoms: C_21  and  N_22
REMARK    6  A    between atoms: N_22  and  C_23
REMARK                            x       y       z     vdW  Elec       q    Type
REMARK                         _______ _______ _______ _____ _____    ______ ____
ROOT
ATOM      1  C   UNL     1       0.305  12.546  19.947  0.00  0.00    +0.000 A 
ATOM      2  C   UNL     1      -0.801  13.212  20.432  0.00  0.00    +0.000 A 
ATOM      3  N   UNL     1      -2.062  13.117  19.977  0.00  0.00    +0.000 NA
ATOM      4  C   UNL     1      -2.329  12.162  19.118  0.00  0.00    +0.000 A 
ATOM      5  N   UNL     1      -3.606  12.097  18.752  0.00  0.00    +0.000 NA
ATOM      6  C   UNL     1      -4.019  11.063  18.000  0.00  0.00    +0.000 A 
ATOM      7  C   UNL     1      -5.469  11.009  17.639  0.00  0.00    +0.000 C 
ATOM      8  C   UNL     1      -3.157  10.062  17.603  0.00  0.00    +0.000 A 
ATOM      9  C   UNL     1      -1.828  10.151  17.976  0.00  0.00    +0.000 A 
ATOM     10  C   UNL     1      -1.340  11.258  18.698  0.00  0.00    +0.000 A 
ATOM     11  C   UNL     1       0.043  11.485  19.075  0.00  0.00    +0.000 A 
ENDROOT
BRANCH   1  18
ATOM     12  C   UNL     1       1.728  14.907  18.682  0.00  0.00    +0.000 C 
ATOM     13  C   UNL     1       2.706  15.119  17.529  0.00  0.00    +0.000 C 
ATOM     14  C   UNL     1       3.974  15.787  18.016  0.00  0.00    +0.000 C 
ATOM     15  C   UNL     1       4.621  14.934  19.102  0.00  0.00    +0.000 C 
ATOM     16  C   UNL     1       3.661  14.485  20.217  0.00  0.00    +0.000 C 
ATOM     17  N   UNL     1       2.332  14.055  19.739  0.00  0.00    +0.000 N 
ATOM     18  C   UNL     1       1.690  12.959  20.381  0.00  0.00    +0.000 C 
ATOM     19  O   UNL     1       2.216  12.299  21.264  0.00  0.00    +0.000 OA
BRANCH  12  21
ATOM     20  C   UNL     1      -0.219  16.578  18.679  0.00  0.00    +0.000 C 
ATOM     21  C   UNL     1       1.153  16.233  19.258  0.00  0.00    +0.000 C 
ENDBRANCH  12  21
ENDBRANCH   1  18
BRANCH  11  22
ATOM     22  N   UNL     1       1.114  10.731  18.545  0.00  0.00    +0.000 N 
ATOM     23  H   UNL     1       1.753  11.276  17.955  0.00  0.00    +0.000 HD
BRANCH  22  24
ATOM     24  C   UNL     1       1.489   9.381  18.747  0.00  0.00    +0.000 A 
ATOM     25  C   UNL     1       1.255   8.736  19.985  0.00  0.00    +0.000 A 
ATOM     26  C   UNL     1       1.859   7.514  20.299  0.00  0.00    +0.000 A 
ATOM     27  C   UNL     1       2.677   6.950  19.349  0.00  0.00    +0.000 A 
ATOM     28  C   UNL     1       2.862   7.532  18.118  0.00  0.00    +0.000 A 
ATOM     29  C   UNL     1       2.272   8.734  17.780  0.00  0.00    +0.000 A 
ATOM     30  O   UNL     1       3.725   6.824  17.338  0.00  0.00    +0.000 OA
ATOM     31  C   UNL     1       4.094   5.759  18.236  0.00  0.00    +0.000 C 
ATOM     32  O   UNL     1       3.408   5.814  19.504  0.00  0.00    +0.000 OA
ENDBRANCH  22  24
ENDBRANCH  11  22
TORSDOF 4
ENDMDL
MODEL 2
REMARK VINA RESULT:      -7.6      0.682      1.339
REMARK  Name = 
REMARK  6 active torsions:
REMARK  status: ('A' for Active; 'I' for Inactive)
REMARK    1  A    between atoms: C_1  and  C_2
REMARK    2  A    between atoms: C_2  and  C_3
REMARK    3  A    between atoms: C_9  and  C_11
REMARK    4  A    between atoms: C_16  and  C_17
REMARK    5  A    between atoms: C_21  and  N_22
REMARK    6  A    between atoms: N_22  and  C_23
REMARK                            x       y       z     vdW  Elec       q    Type
REMARK                         _______ _______ _______ _____ _____    ______ ____
ROOT
ATOM      1  C   UNL     1       0.061  12.451  20.022  0.00  0.00    +0.000 A 
ATOM      2  C   UNL     1      -1.040  13.020  20.625  0.00  0.00    +0.000 A 
ATOM      3  N   UNL     1      -2.317  12.939  20.214  0.00  0.00    +0.000 NA
ATOM      4  C   UNL     1      -2.595  12.084  19.259  0.00  0.00    +0.000 A 
ATOM      5  N   UNL     1      -3.885  12.023  18.939  0.00  0.00    +0.000 NA
ATOM      6  C   UNL     1      -4.302  11.071  18.086  0.00  0.00    +0.000 A 
ATOM      7  C   UNL     1      -5.764  11.015  17.780  0.00  0.00    +0.000 C 
ATOM      8  C   UNL     1      -3.432  10.152  17.539  0.00  0.00    +0.000 A 
ATOM      9  C   UNL     1      -2.090  10.239  17.867  0.00  0.00    +0.000 A 
ATOM     10  C   UNL     1      -1.602  11.268  18.695  0.00  0.00    +0.000 A 
ATOM     11  C   UNL     1      -0.210  11.492  19.041  0.00  0.00    +0.000 A 
ENDROOT
BRANCH   1  18
ATOM     12  C   UNL     1       1.467  14.843  18.794  0.00  0.00    +0.000 C 
ATOM     13  C   UNL     1       2.428  15.083  17.633  0.00  0.00    +0.000 C 
ATOM     14  C   UNL     1       3.702  15.740  18.118  0.00  0.00    +0.000 C 
ATOM     15  C   UNL     1       4.364  14.860  19.173  0.00  0.00    +0.000 C 
ATOM     16  C   UNL     1       3.421  14.384  20.291  0.00  0.00    +0.000 C 
ATOM     17  N   UNL     1       2.086  13.966  19.821  0.00  0.00    +0.000 N 
ATOM     18  C   UNL     1       1.453  12.854  20.445  0.00  0.00    +0.000 C 
ATOM     19  O   UNL     1       1.991  12.173  21.304  0.00  0.00    +0.000 OA
BRANCH  12  21
ATOM     20  C   UNL     1      -0.218  16.764  18.565  0.00  0.00    +0.000 C 
ATOM     21  C   UNL     1       0.900  16.154  19.411  0.00  0.00    +0.000 C 
ENDBRANCH  12  21
ENDBRANCH   1  18
BRANCH  11  22
ATOM     22  N   UNL     1       0.857  10.840  18.382  0.00  0.00    +0.000 N 
ATOM     23  H   UNL     1       1.234  11.364  17.584  0.00  0.00    +0.000 HD
BRANCH  22  24
ATOM     24  C   UNL     1       1.532   9.632  18.678  0.00  0.00    +0.000 A 
ATOM     25  C   UNL     1       2.347   8.995  17.711  0.00  0.00    +0.000 A 
ATOM     26  C   UNL     1       2.789   7.678  17.879  0.00  0.00    +0.000 A 
ATOM     27  C   UNL     1       2.419   7.029  19.033  0.00  0.00    +0.000 A 
ATOM     28  C   UNL     1       1.683   7.656  20.010  0.00  0.00    +0.000 A 
ATOM     29  C   UNL     1       1.240   8.957  19.872  0.00  0.00    +0.000 A 
ATOM     30  O   UNL     1       1.407   6.831  21.057  0.00  0.00    +0.000 OA
ATOM     31  C   UNL     1       2.012   5.604  20.604  0.00  0.00    +0.000 C 
ATOM     32  O   UNL     1       2.685   5.731  19.333  0.00  0.00    +0.000 OA
ENDBRANCH  22  24
ENDBRANCH  11  22
TORSDOF 4
ENDMDL
MODEL 3
REMARK VINA RESULT:      -7.1      2.827      6.121
REMARK  Name = 
REMARK  6 active torsions:
REMARK  status: ('A' for Active; 'I' for Inactive)
REMARK    1  A    between atoms: C_1  and  C_2
REMARK    2  A    between atoms: C_2  and  C_3
REMARK    3  A    between atoms: C_9  and  C_11
REMARK    4  A    between atoms: C_16  and  C_17
REMARK    5  A    between atoms: C_21  and  N_22
REMARK    6  A    between atoms: N_22  and  C_23
REMARK                            x       y       z     vdW  Elec       q    Type
REMARK                         _______ _______ _______ _____ _____    ______ ____
ROOT
ATOM      1  C   UNL     1       0.363  10.503  21.046  0.00  0.00    +0.000 A 
ATOM      2  C   UNL     1       1.106   9.707  21.891  0.00  0.00    +0.000 A 
ATOM      3  N   UNL     1       1.692   8.536  21.587  0.00  0.00    +0.000 NA
ATOM      4  C   UNL     1       1.740   8.189  20.323  0.00  0.00    +0.000 A 
ATOM      5  N   UNL     1       2.378   7.045  20.094  0.00  0.00    +0.000 NA
ATOM      6  C   UNL     1       2.622   6.676  18.825  0.00  0.00    +0.000 A 
ATOM      7  C   UNL     1       3.373   5.400  18.612  0.00  0.00    +0.000 C 
ATOM      8  C   UNL     1       2.236   7.453  17.753  0.00  0.00    +0.000 A 
ATOM      9  C   UNL     1       1.557   8.632  18.006  0.00  0.00    +0.000 A 
ATOM     10  C   UNL     1       1.215   9.016  19.318  0.00  0.00    +0.000 A 
ATOM     11  C   UNL     1       0.444  10.190  19.685  0.00  0.00    +0.000 A 
ENDROOT
BRANCH   1  18
ATOM     12  C   UNL     1       1.282  13.383  20.797  0.00  0.00    +0.000 C 
ATOM     13  C   UNL     1       2.080  14.366  21.649  0.00  0.00    +0.000 C 
ATOM     14  C   UNL     1       1.268  15.610  21.937  0.00  0.00    +0.000 C 
ATOM     15  C   UNL     1      -0.024  15.227  22.650  0.00  0.00    +0.000 C 
ATOM     16  C   UNL     1      -0.810  14.088  21.980  0.00  0.00    +0.000 C 
ATOM     17  N   UNL     1       0.030  12.978  21.487  0.00  0.00    +0.000 N 
ATOM     18  C   UNL     1      -0.453  11.645  21.601  0.00  0.00    +0.000 C 
ATOM     19  O   UNL     1      -1.502  11.358  22.158  0.00  0.00    +0.000 OA
BRANCH  12  21
ATOM     20  C   UNL     1       2.163  13.581  18.395  0.00  0.00    +0.000 C 
ATOM     21  C   UNL     1       1.012  13.894  19.351  0.00  0.00    +0.000 C 
ENDBRANCH  12  21
ENDBRANCH   1  18
BRANCH  11  22
ATOM     22  N   UNL     1      -0.268  10.965  18.742  0.00  0.00    +0.000 N 
ATOM     23  H   UNL     1       0.292  11.706  18.306  0.00  0.00    +0.000 HD
BRANCH  22  24
ATOM     24  C   UNL     1      -1.590  10.845  18.251  0.00  0.00    +0.000 A 
ATOM     25  C   UNL     1      -1.860  10.154  17.045  0.00  0.00    +0.000 A 
ATOM     26  C   UNL     1      -3.099  10.262  16.402  0.00  0.00    +0.000 A 
ATOM     27  C   UNL     1      -4.054  11.051  16.997  0.00  0.00    +0.000 A 
ATOM     28  C   UNL     1      -3.828  11.675  18.201  0.00  0.00    +0.000 A 
ATOM     29  C   UNL     1      -2.617  11.579  18.860  0.00  0.00    +0.000 A 
ATOM     30  O   UNL     1      -4.892  12.423  18.602  0.00  0.00    +0.000 OA
ATOM     31  C   UNL     1      -5.792  12.234  17.492  0.00  0.00    +0.000 C 
ATOM     32  O   UNL     1      -5.279  11.338  16.484  0.00  0.00    +0.000 OA
ENDBRANCH  22  24
ENDBRANCH  11  22
TORSDOF 4
ENDMDL
MODEL 4
REMARK VINA RESULT:      -7.0      3.566      5.124
REMARK  Name = 
REMARK  6 active torsions:
REMARK  status: ('A' for Active; 'I' for Inactive)
REMARK    1  A    between atoms: C_1  and  C_2
REMARK    2  A    between atoms: C_2  and  C_3
REMARK    3  A    between atoms: C_9  and  C_11
REMARK    4  A    between atoms: C_16  and  C_17
REMARK    5  A    between atoms: C_21  and  N_22
REMARK    6  A    between atoms: N_22  and  C_23
REMARK                            x       y       z     vdW  Elec       q    Type
REMARK                         _______ _______ _______ _____ _____    ______ ____
ROOT
ATOM      1  C   UNL     1      -1.603  12.348  21.939  0.00  0.00    +0.000 A 
ATOM      2  C   UNL     1      -1.873  12.224  23.285  0.00  0.00    +0.000 A 
ATOM      3  N   UNL     1      -3.041  12.479  23.900  0.00  0.00    +0.000 NA
ATOM      4  C   UNL     1      -4.095  12.679  23.145  0.00  0.00    +0.000 A 
ATOM      5  N   UNL     1      -5.223  12.873  23.822  0.00  0.00    +0.000 NA
ATOM      6  C   UNL     1      -6.386  12.932  23.151  0.00  0.00    +0.000 A 
ATOM      7  C   UNL     1      -7.634  13.117  23.953  0.00  0.00    +0.000 C 
ATOM      8  C   UNL     1      -6.444  12.788  21.781  0.00  0.00    +0.000 A 
ATOM      9  C   UNL     1      -5.261  12.604  21.088  0.00  0.00    +0.000 A 
ATOM     10  C   UNL     1      -4.015  12.614  21.745  0.00  0.00    +0.000 A 
ATOM     11  C   UNL     1      -2.716  12.503  21.106  0.00  0.00    +0.000 A 
ENDROOT
BRANCH   1  18
ATOM     12  C   UNL     1      -0.081  14.859  21.177  0.00  0.00    +0.000 C 
ATOM     13  C   UNL     1       0.168  15.656  19.899  0.00  0.00    +0.000 C 
ATOM     14  C   UNL     1       1.651  15.773  19.620  0.00  0.00    +0.000 C 
ATOM     15  C   UNL     1       2.262  14.382  19.496  0.00  0.00    +0.000 C 
ATOM     16  C   UNL     1       1.899  13.421  20.642  0.00  0.00    +0.000 C 
ATOM     17  N   UNL     1       0.487  13.490  21.067  0.00  0.00    +0.000 N 
ATOM     18  C   UNL     1      -0.180  12.290  21.441  0.00  0.00    +0.000 C 
ATOM     19  O   UNL     1       0.333  11.184  21.355  0.00  0.00    +0.000 OA
BRANCH  12  21
ATOM     20  C   UNL     1      -0.264  16.952  22.650  0.00  0.00    +0.000 C 
ATOM     21  C   UNL     1       0.401  15.588  22.466  0.00  0.00    +0.000 C 
ENDBRANCH  12  21
ENDBRANCH   1  18
BRANCH  11  22
ATOM     22  N   UNL     1      -2.538  12.617  19.709  0.00  0.00    +0.000 N 
ATOM     23  H   UNL     1      -2.262  13.556  19.401  0.00  0.00    +0.000 HD
BRANCH  22  24
ATOM     24  C   UNL     1      -2.608  11.646  18.682  0.00  0.00    +0.000 A 
ATOM     25  C   UNL     1      -1.569  10.701  18.500  0.00  0.00    +0.000 A 
ATOM     26  C   UNL     1      -1.480   9.926  17.338  0.00  0.00    +0.000 A 
ATOM     27  C   UNL     1      -2.453  10.102  16.384  0.00  0.00    +0.000 A 
ATOM     28  C   UNL     1      -3.504  10.968  16.576  0.00  0.00    +0.000 A 
ATOM     29  C   UNL     1      -3.619  11.739  17.715  0.00  0.00    +0.000 A 
ATOM     30  O   UNL     1      -4.341  11.008  15.502  0.00  0.00    +0.000 OA
ATOM     31  C   UNL     1      -3.671  10.105  14.600  0.00  0.00    +0.000 C 
ATOM     32  O   UNL     1      -2.488   9.501  15.166  0.00  0.00    +0.000 OA
ENDBRANCH  22  24
ENDBRANCH  11  22
TORSDOF 4
ENDMDL
MODEL 5
REMARK VINA RESULT:      -7.0      3.728      6.455
REMARK  Name = 
REMARK  6 active torsions:
REMARK  status: ('A' for Active; 'I' for Inactive)
REMARK    1  A    between atoms: C_1  and  C_2
REMARK    2  A    between atoms: C_2  and  C_3
REMARK    3  A    between atoms: C_9  and  C_11
REMARK    4  A    between atoms: C_16  and  C_17
REMARK    5  A    between atoms: C_21  and  N_22
REMARK    6  A    between atoms: N_22  and  C_23
REMARK                            x       y       z     vdW  Elec       q    Type
REMARK                         _______ _______ _______ _____ _____    ______ ____
ROOT
ATOM      1  C   UNL     1      -1.998  11.775  22.318  0.00  0.00    +0.000 A 
ATOM      2  C   UNL     1      -1.453  10.945  23.274  0.00  0.00    +0.000 A 
ATOM      3  N   UNL     1      -0.669   9.875  23.060  0.00  0.00    +0.000 NA
ATOM      4  C   UNL     1      -0.203   9.695  21.847  0.00  0.00    +0.000 A 
ATOM      5  N   UNL     1       0.606   8.647  21.722  0.00  0.00    +0.000 NA
ATOM      6  C   UNL     1       1.261   8.462  20.563  0.00  0.00    +0.000 A 
ATOM      7  C   UNL     1       2.187   7.291  20.476  0.00  0.00    +0.000 C 
ATOM      8  C   UNL     1       1.125   9.333  19.502  0.00  0.00    +0.000 A 
ATOM      9  C   UNL     1       0.267  10.409  19.640  0.00  0.00    +0.000 A 
ATOM     10  C   UNL     1      -0.496  10.594  20.810  0.00  0.00    +0.000 A 
ATOM     11  C   UNL     1      -1.475  11.644  21.028  0.00  0.00    +0.000 A 
ENDROOT
BRANCH   1  18
ATOM     12  C   UNL     1      -1.319  14.485  23.502  0.00  0.00    +0.000 C 
ATOM     13  C   UNL     1      -1.165  15.071  24.903  0.00  0.00    +0.000 C 
ATOM     14  C   UNL     1      -2.105  16.240  25.102  0.00  0.00    +0.000 C 
ATOM     15  C   UNL     1      -3.544  15.787  24.880  0.00  0.00    +0.000 C 
ATOM     16  C   UNL     1      -3.770  14.995  23.581  0.00  0.00    +0.000 C 
ATOM     17  N   UNL     1      -2.710  14.013  23.276  0.00  0.00    +0.000 N 
ATOM     18  C   UNL     1      -3.073  12.765  22.696  0.00  0.00    +0.000 C 
ATOM     19  O   UNL     1      -4.231  12.427  22.506  0.00  0.00    +0.000 OA
BRANCH  12  21
ATOM     20  C   UNL     1       0.367  14.887  21.610  0.00  0.00    +0.000 C 
ATOM     21  C   UNL     1      -0.836  15.441  22.373  0.00  0.00    +0.000 C 
ENDBRANCH  12  21
ENDBRANCH   1  18
BRANCH  11  22
ATOM     22  N   UNL     1      -1.958  12.468  19.987  0.00  0.00    +0.000 N 
ATOM     23  H   UNL     1      -1.676  13.451  20.070  0.00  0.00    +0.000 HD
BRANCH  22  24
ATOM     24  C   UNL     1      -2.699  12.155  18.822  0.00  0.00    +0.000 A 
ATOM     25  C   UNL     1      -4.102  11.973  18.878  0.00  0.00    +0.000 A 
ATOM     26  C   UNL     1      -4.808  11.395  17.816  0.00  0.00    +0.000 A 
ATOM     27  C   UNL     1      -4.088  11.029  16.704  0.00  0.00    +0.000 A 
ATOM     28  C   UNL     1      -2.736  11.260  16.610  0.00  0.00    +0.000 A 
ATOM     29  C   UNL     1      -2.018  11.834  17.640  0.00  0.00    +0.000 A 
ATOM     30  O   UNL     1      -2.215  10.802  15.438  0.00  0.00    +0.000 OA
ATOM     31  C   UNL     1      -3.383  10.216  14.830  0.00  0.00    +0.000 C 
ATOM     32  O   UNL     1      -4.584  10.385  15.614  0.00  0.00    +0.000 OA
ENDBRANCH  22  24
ENDBRANCH  11  22
TORSDOF 4
ENDMDL
MODEL 6
REMARK VINA RESULT:      -6.9      3.727      7.112
REMARK  Name = 
REMARK  6 active torsions:
REMARK  status: ('A' for Active; 'I' for Inactive)
REMARK    1  A    between atoms: C_1  and  C_2
REMARK    2  A    between atoms: C_2  and  C_3
REMARK    3  A    between atoms: C_9  and  C_11
REMARK    4  A    between atoms: C_16  and  C_17
REMARK    5  A    between atoms: C_21  and  N_22
REMARK    6  A    between atoms: N_22  and  C_23
REMARK                            x       y       z     vdW  Elec       q    Type
REMARK                         _______ _______ _______ _____ _____    ______ ____
ROOT
ATOM      1  C   UNL     1      -1.476  11.687  22.075  0.00  0.00    +0.000 A 
ATOM      2  C   UNL     1      -0.578  10.882  22.742  0.00  0.00    +0.000 A 
ATOM      3  N   UNL     1       0.206   9.931  22.205  0.00  0.00    +0.000 NA
ATOM      4  C   UNL     1       0.284   9.875  20.897  0.00  0.00    +0.000 A 
ATOM      5  N   UNL     1       1.117   8.944  20.440  0.00  0.00    +0.000 NA
ATOM      6  C   UNL     1       1.392   8.903  19.125  0.00  0.00    +0.000 A 
ATOM      7  C   UNL     1       2.359   7.863  18.656  0.00  0.00    +0.000 C 
ATOM      8  C   UNL     1       0.842   9.804  18.237  0.00  0.00    +0.000 A 
ATOM      9  C   UNL     1      -0.036  10.756  18.725  0.00  0.00    +0.000 A 
ATOM     10  C   UNL     1      -0.409  10.783  20.083  0.00  0.00    +0.000 A 
ATOM     11  C   UNL     1      -1.373  11.690  20.681  0.00  0.00    +0.000 A 
ENDROOT
BRANCH   1  18
ATOM     12  C   UNL     1      -0.996  14.625  22.658  0.00  0.00    +0.000 C 
ATOM     13  C   UNL     1      -0.385  15.441  23.794  0.00  0.00    +0.000 C 
ATOM     14  C   UNL     1      -1.386  16.438  24.337  0.00  0.00    +0.000 C 
ATOM     15  C   UNL     1      -2.629  15.704  24.828  0.00  0.00    +0.000 C 
ATOM     16  C   UNL     1      -3.210  14.692  23.827  0.00  0.00    +0.000 C 
ATOM     17  N   UNL     1      -2.195  13.882  23.124  0.00  0.00    +0.000 N 
ATOM     18  C   UNL     1      -2.475  12.514  22.848  0.00  0.00    +0.000 C 
ATOM     19  O   UNL     1      -3.486  11.947  23.233  0.00  0.00    +0.000 OA
BRANCH  12  21
ATOM     20  C   UNL     1      -0.152  15.402  20.363  0.00  0.00    +0.000 C 
ATOM     21  C   UNL     1      -1.291  15.465  21.381  0.00  0.00    +0.000 C 
ENDBRANCH  12  21
ENDBRANCH   1  18
BRANCH  11  22
ATOM     22  N   UNL     1      -2.240  12.501  19.914  0.00  0.00    +0.000 N 
ATOM     23  H   UNL     1      -1.849  13.420  19.680  0.00  0.00    +0.000 HD
BRANCH  22  24
ATOM     24  C   UNL     1      -3.514  12.232  19.359  0.00  0.00    +0.000 A 
ATOM     25  C   UNL     1      -3.645  11.513  18.146  0.00  0.00    +0.000 A 
ATOM     26  C   UNL     1      -4.854  11.480  17.442  0.00  0.00    +0.000 A 
ATOM     27  C   UNL     1      -5.920  12.158  17.983  0.00  0.00    +0.000 A 
ATOM     28  C   UNL     1      -5.825  12.805  19.192  0.00  0.00    +0.000 A 
ATOM     29  C   UNL     1      -4.646  12.848  19.910  0.00  0.00    +0.000 A 
ATOM     30  O   UNL     1      -6.986  13.430  19.534  0.00  0.00    +0.000 OA
ATOM     31  C   UNL     1      -7.802  13.139  18.382  0.00  0.00    +0.000 C 
ATOM     32  O   UNL     1      -7.142  12.304  17.407  0.00  0.00    +0.000 OA
ENDBRANCH  22  24
ENDBRANCH  11  22
TORSDOF 4
ENDMDL
MODEL 7
REMARK VINA RESULT:      -6.8      3.377      6.676
REMARK  Name = 
REMARK  6 active torsions:
REMARK  status: ('A' for Active; 'I' for Inactive)
REMARK    1  A    between atoms: C_1  and  C_2
REMARK    2  A    between atoms: C_2  and  C_3
REMARK    3  A    between atoms: C_9  and  C_11
REMARK    4  A    between atoms: C_16  and  C_17
REMARK    5  A    between atoms: C_21  and  N_22
REMARK    6  A    between atoms: N_22  and  C_23
REMARK                            x       y       z     vdW  Elec       q    Type
REMARK                         _______ _______ _______ _____ _____    ______ ____
ROOT
ATOM      1  C   UNL     1      -0.053  12.923  21.707  0.00  0.00    +0.000 A 
ATOM      2  C   UNL     1       0.513  14.135  22.040  0.00  0.00    +0.000 A 
ATOM      3  N   UNL     1       1.579  14.713  21.461  0.00  0.00    +0.000 NA
ATOM      4  C   UNL     1       2.024  14.188  20.344  0.00  0.00    +0.000 A 
ATOM      5  N   UNL     1       3.047  14.842  19.802  0.00  0.00    +0.000 NA
ATOM      6  C   UNL     1       3.479  14.484  18.581  0.00  0.00    +0.000 A 
ATOM      7  C   UNL     1       4.609  15.267  17.993  0.00  0.00    +0.000 C 
ATOM      8  C   UNL     1       2.885  13.461  17.870  0.00  0.00    +0.000 A 
ATOM      9  C   UNL     1       1.833  12.778  18.454  0.00  0.00    +0.000 A 
ATOM     10  C   UNL     1       1.402  13.072  19.762  0.00  0.00    +0.000 A 
ATOM     11  C   UNL     1       0.361  12.371  20.491  0.00  0.00    +0.000 A 
ENDROOT
BRANCH   1  18
ATOM     12  C   UNL     1      -2.697  14.273  22.334  0.00  0.00    +0.000 C 
ATOM     13  C   UNL     1      -3.232  15.202  23.421  0.00  0.00    +0.000 C 
ATOM     14  C   UNL     1      -4.430  14.586  24.112  0.00  0.00    +0.000 C 
ATOM     15  C   UNL     1      -4.038  13.243  24.718  0.00  0.00    +0.000 C 
ATOM     16  C   UNL     1      -3.296  12.300  23.755  0.00  0.00    +0.000 C 
ATOM     17  N   UNL     1      -2.286  12.967  22.911  0.00  0.00    +0.000 N 
ATOM     18  C   UNL     1      -1.071  12.284  22.620  0.00  0.00    +0.000 C 
ATOM     19  O   UNL     1      -0.783  11.198  23.100  0.00  0.00    +0.000 OA
BRANCH  12  21
ATOM     20  C   UNL     1      -4.306  15.422  20.699  0.00  0.00    +0.000 C 
ATOM     21  C   UNL     1      -3.669  14.101  21.131  0.00  0.00    +0.000 C 
ENDBRANCH  12  21
ENDBRANCH   1  18
BRANCH  11  22
ATOM     22  N   UNL     1      -0.181  11.140  20.058  0.00  0.00    +0.000 N 
ATOM     23  H   UNL     1       0.224  10.321  20.523  0.00  0.00    +0.000 HD
BRANCH  22  24
ATOM     24  C   UNL     1      -1.229  10.856  19.149  0.00  0.00    +0.000 A 
ATOM     25  C   UNL     1      -0.996  10.082  17.987  0.00  0.00    +0.000 A 
ATOM     26  C   UNL     1      -1.931  10.025  16.947  0.00  0.00    +0.000 A 
ATOM     27  C   UNL     1      -3.097  10.735  17.104  0.00  0.00    +0.000 A 
ATOM     28  C   UNL     1      -3.365  11.438  18.255  0.00  0.00    +0.000 A 
ATOM     29  C   UNL     1      -2.463  11.505  19.299  0.00  0.00    +0.000 A 
ATOM     30  O   UNL     1      -4.561  12.086  18.197  0.00  0.00    +0.000 OA
ATOM     31  C   UNL     1      -4.989  11.748  16.863  0.00  0.00    +0.000 C 
ATOM     32  O   UNL     1      -4.080  10.863  16.175  0.00  0.00    +0.000 OA
ENDBRANCH  22  24
ENDBRANCH  11  22
TORSDOF 4
ENDMDL
MODEL 8
REMARK VINA RESULT:      -6.8      3.797      6.365
REMARK  Name = 
REMARK  6 active torsions:
REMARK  status: ('A' for Active; 'I' for Inactive)
REMARK    1  A    between atoms: C_1  and  C_2
REMARK    2  A    between atoms: C_2  and  C_3
REMARK    3  A    between atoms: C_9  and  C_11
REMARK    4  A    between atoms: C_16  and  C_17
REMARK    5  A    between atoms: C_21  and  N_22
REMARK    6  A    between atoms: N_22  and  C_23
REMARK                            x       y       z     vdW  Elec       q    Type
REMARK                         _______ _______ _______ _____ _____    ______ ____
ROOT
ATOM      1  C   UNL     1      -4.957  12.399  19.841  0.00  0.00    +0.000 A 
ATOM      2  C   UNL     1      -5.940  11.790  19.091  0.00  0.00    +0.000 A 
ATOM      3  N   UNL     1      -5.838  11.367  17.819  0.00  0.00    +0.000 NA
ATOM      4  C   UNL     1      -4.643  11.344  17.280  0.00  0.00    +0.000 A 
ATOM      5  N   UNL     1      -4.612  10.867  16.039  0.00  0.00    +0.000 NA
ATOM      6  C   UNL     1      -3.423  10.652  15.451  0.00  0.00    +0.000 A 
ATOM      7  C   UNL     1      -3.432  10.082  14.068  0.00  0.00    +0.000 C 
ATOM      8  C   UNL     1      -2.233  10.905  16.100  0.00  0.00    +0.000 A 
ATOM      9  C   UNL     1      -2.280  11.418  17.384  0.00  0.00    +0.000 A 
ATOM     10  C   UNL     1      -3.505  11.729  18.006  0.00  0.00    +0.000 A 
ATOM     11  C   UNL     1      -3.663  12.336  19.316  0.00  0.00    +0.000 A 
ENDROOT
BRANCH   1  18
ATOM     12  C   UNL     1      -5.966  15.258  19.966  0.00  0.00    +0.000 C 
ATOM     13  C   UNL     1      -5.347  16.641  20.152  0.00  0.00    +0.000 C 
ATOM     14  C   UNL     1      -5.951  17.343  21.349  0.00  0.00    +0.000 C 
ATOM     15  C   UNL     1      -5.737  16.500  22.601  0.00  0.00    +0.000 C 
ATOM     16  C   UNL     1      -6.138  15.022  22.453  0.00  0.00    +0.000 C 
ATOM     17  N   UNL     1      -5.745  14.412  21.168  0.00  0.00    +0.000 N 
ATOM     18  C   UNL     1      -5.303  13.060  21.153  0.00  0.00    +0.000 C 
ATOM     19  O   UNL     1      -5.157  12.392  22.166  0.00  0.00    +0.000 OA
BRANCH  12  21
ATOM     20  C   UNL     1      -7.664  15.835  18.132  0.00  0.00    +0.000 C 
ATOM     21  C   UNL     1      -7.465  15.301  19.550  0.00  0.00    +0.000 C 
ENDBRANCH  12  21
ENDBRANCH   1  18
BRANCH  11  22
ATOM     22  N   UNL     1      -2.587  12.915  20.026  0.00  0.00    +0.000 N 
ATOM     23  H   UNL     1      -2.650  13.935  20.116  0.00  0.00    +0.000 HD
BRANCH  22  24
ATOM     24  C   UNL     1      -1.486  12.322  20.688  0.00  0.00    +0.000 A 
ATOM     25  C   UNL     1      -0.234  12.185  20.042  0.00  0.00    +0.000 A 
ATOM     26  C   UNL     1       0.772  11.363  20.562  0.00  0.00    +0.000 A 
ATOM     27  C   UNL     1       0.506  10.706  21.740  0.00  0.00    +0.000 A 
ATOM     28  C   UNL     1      -0.680  10.881  22.412  0.00  0.00    +0.000 A 
ATOM     29  C   UNL     1      -1.686  11.691  21.924  0.00  0.00    +0.000 A 
ATOM     30  O   UNL     1      -0.748  10.124  23.542  0.00  0.00    +0.000 OA
ATOM     31  C   UNL     1       0.509   9.421  23.476  0.00  0.00    +0.000 C 
ATOM     32  O   UNL     1       1.325   9.810  22.351  0.00  0.00    +0.000 OA
ENDBRANCH  22  24
ENDBRANCH  11  22
TORSDOF 4
ENDMDL
MODEL 9
REMARK VINA RESULT:      -6.7      2.371      5.398
REMARK  Name = 
REMARK  6 active torsions:
REMARK  status: ('A' for Active; 'I' for Inactive)
REMARK    1  A    between atoms: C_1  and  C_2
REMARK    2  A    between atoms: C_2  and  C_3
REMARK    3  A    between atoms: C_9  and  C_11
REMARK    4  A    between atoms: C_16  and  C_17
REMARK    5  A    between atoms: C_21  and  N_22
REMARK    6  A    between atoms: N_22  and  C_23
REMARK                            x       y       z     vdW  Elec       q    Type
REMARK                         _______ _______ _______ _____ _____    ______ ____
ROOT
ATOM      1  C   UNL     1      -0.038  12.909  21.701  0.00  0.00    +0.000 A 
ATOM      2  C   UNL     1       0.526  14.118  22.046  0.00  0.00    +0.000 A 
ATOM      3  N   UNL     1       1.597  14.700  21.480  0.00  0.00    +0.000 NA
ATOM      4  C   UNL     1       2.052  14.181  20.365  0.00  0.00    +0.000 A 
ATOM      5  N   UNL     1       3.081  14.838  19.836  0.00  0.00    +0.000 NA
ATOM      6  C   UNL     1       3.523  14.487  18.617  0.00  0.00    +0.000 A 
ATOM      7  C   UNL     1       4.659  15.273  18.044  0.00  0.00    +0.000 C 
ATOM      8  C   UNL     1       2.936  13.469  17.894  0.00  0.00    +0.000 A 
ATOM      9  C   UNL     1       1.879  12.783  18.464  0.00  0.00    +0.000 A 
ATOM     10  C   UNL     1       1.436  13.069  19.770  0.00  0.00    +0.000 A 
ATOM     11  C   UNL     1       0.388  12.364  20.486  0.00  0.00    +0.000 A 
ENDROOT
BRANCH   1  18
ATOM     12  C   UNL     1      -2.764  14.159  22.154  0.00  0.00    +0.000 C 
ATOM     13  C   UNL     1      -3.388  15.110  23.172  0.00  0.00    +0.000 C 
ATOM     14  C   UNL     1      -4.585  14.470  23.841  0.00  0.00    +0.000 C 
ATOM     15  C   UNL     1      -4.160  13.176  24.526  0.00  0.00    +0.000 C 
ATOM     16  C   UNL     1      -3.335  12.226  23.641  0.00  0.00    +0.000 C 
ATOM     17  N   UNL     1      -2.320  12.901  22.808  0.00  0.00    +0.000 N 
ATOM     18  C   UNL     1      -1.064  12.264  22.601  0.00  0.00    +0.000 C 
ATOM     19  O   UNL     1      -0.748  11.216  23.142  0.00  0.00    +0.000 OA
BRANCH  12  21
ATOM     20  C   UNL     1      -3.264  12.626  20.158  0.00  0.00    +0.000 C 
ATOM     21  C   UNL     1      -3.675  13.886  20.921  0.00  0.00    +0.000 C 
ENDBRANCH  12  21
ENDBRANCH   1  18
BRANCH  11  22
ATOM     22  N   UNL     1      -0.151  11.136  20.039  0.00  0.00    +0.000 N 
ATOM     23  H   UNL     1      -1.126  11.200  19.725  0.00  0.00    +0.000 HD
BRANCH  22  24
ATOM     24  C   UNL     1       0.445   9.861  19.888  0.00  0.00    +0.000 A 
ATOM     25  C   UNL     1       0.594   8.990  20.994  0.00  0.00    +0.000 A 
ATOM     26  C   UNL     1       1.419   7.861  20.930  0.00  0.00    +0.000 A 
ATOM     27  C   UNL     1       2.067   7.617  19.743  0.00  0.00    +0.000 A 
ATOM     28  C   UNL     1       1.880   8.417  18.640  0.00  0.00    +0.000 A 
ATOM     29  C   UNL     1       1.066   9.533  18.675  0.00  0.00    +0.000 A 
ATOM     30  O   UNL     1       2.629   8.014  17.578  0.00  0.00    +0.000 OA
ATOM     31  C   UNL     1       3.341   6.900  18.153  0.00  0.00    +0.000 C 
ATOM     32  O   UNL     1       2.964   6.622  19.518  0.00  0.00    +0.000 OA
ENDBRANCH  22  24
ENDBRANCH  11  22
TORSDOF 4
ENDMDL
