MODEL 1
REMARK VINA RESULT:      -8.2      0.000      0.000
REMARK  Name = 
REMARK  6 active torsions:
REMARK  status: ('A' for Active; 'I' for Inactive)
REMARK    1  A    between atoms: C_1  and  O_2
REMARK    2  A    between atoms: O_2  and  C_3
REMARK    3  A    between atoms: C_3  and  C_5
REMARK    4  A    between atoms: C_5  and  N_6
REMARK    5  A    between atoms: C_10  and  C_11
REMARK    6  A    between atoms: C_21  and  C_22
REMARK                            x       y       z     vdW  Elec       q    Type
REMARK                         _______ _______ _______ _____ _____    ______ ____
ROOT
ATOM      1  N   UNL     1       4.838   4.161  16.939  0.00  0.00    +0.000 N 
ATOM      2  C   UNL     1       4.528   3.173  17.795  0.00  0.00    +0.000 A 
ATOM      3  C   UNL     1       3.720   3.430  18.894  0.00  0.00    +0.000 A 
ATOM      4  C   UNL     1       3.198   4.715  19.136  0.00  0.00    +0.000 A 
ATOM      5  C   UNL     1       2.423   5.012  20.289  0.00  0.00    +0.000 A 
ATOM      6  C   UNL     1       2.121   4.019  21.385  0.00  0.00    +0.000 C 
ATOM      7  C   UNL     1       1.933   6.331  20.408  0.00  0.00    +0.000 A 
ATOM      8  N   UNL     1       1.167   6.866  21.424  0.00  0.00    +0.000 N 
ATOM      9  C   UNL     1       0.875   8.182  21.196  0.00  0.00    +0.000 A 
ATOM     10  C   UNL     1       0.126   9.074  21.977  0.00  0.00    +0.000 A 
ATOM     11  C   UNL     1      -0.025  10.380  21.513  0.00  0.00    +0.000 A 
ATOM     12  C   UNL     1       0.554  10.774  20.316  0.00  0.00    +0.000 A 
ATOM     13  C   UNL     1       1.300   9.865  19.551  0.00  0.00    +0.000 A 
ATOM     14  C   UNL     1       1.473   8.530  19.987  0.00  0.00    +0.000 A 
ATOM     15  C   UNL     1       2.154   7.350  19.482  0.00  0.00    +0.000 A 
ATOM     16  C   UNL     1       2.942   7.052  18.334  0.00  0.00    +0.000 A 
ATOM     17  C   UNL     1       3.242   8.084  17.269  0.00  0.00    +0.000 C 
ATOM     18  C   UNL     1       3.475   5.726  18.182  0.00  0.00    +0.000 A 
ATOM     19  C   UNL     1       4.300   5.389  17.093  0.00  0.00    +0.000 A 
ATOM     20  H   UNL     1       0.853   6.355  22.235  0.00  0.00    +0.000 HD
ENDROOT
BRANCH   1  21
ATOM     21  C   UNL     1       5.782   3.898  15.827  0.00  0.00    +0.000 C 
BRANCH  21  22
ATOM     22  C   UNL     1       7.087   4.602  16.063  0.00  0.00    +0.000 C 
ATOM     23  O   UNL     1       7.747   4.492  17.089  0.00  0.00    +0.000 OA
BRANCH  22  25
ATOM     24  C   UNL     1       7.019   4.821  13.731  0.00  0.00    +0.000 C 
ATOM     25  O   UNL     1       7.418   5.371  14.992  0.00  0.00    +0.000 OA
ENDBRANCH  22  25
ENDBRANCH  21  22
ENDBRANCH   1  21
TORSDOF 3
ENDMDL
MODEL 2
REMARK VINA RESULT:      -8.1      0.488      1.138
REMARK  Name = 
REMARK  6 active torsions:
REMARK  status: ('A' for Active; 'I' for Inactive)
REMARK    1  A    between atoms: C_1  and  O_2
REMARK    2  A    between atoms: O_2  and  C_3
REMARK    3  A    between atoms: C_3  and  C_5
REMARK    4  A    between atoms: C_5  and  N_6
REMARK    5  A    between atoms: C_10  and  C_11
REMARK    6  A    between atoms: C_21  and  C_22
REMARK                            x       y       z     vdW  Elec       q    Type
REMARK                         _______ _______ _______ _____ _____    ______ ____
ROOT
ATOM      1  N   UNL     1       4.819   4.216  16.949  0.00  0.00    +0.000 N 
ATOM      2  C   UNL     1       4.508   3.219  17.793  0.00  0.00    +0.000 A 
ATOM      3  C   UNL     1       3.694   3.463  18.890  0.00  0.00    +0.000 A 
ATOM      4  C   UNL     1       3.167   4.744  19.142  0.00  0.00    +0.000 A 
ATOM      5  C   UNL     1       2.385   5.027  20.294  0.00  0.00    +0.000 A 
ATOM      6  C   UNL     1       2.081   4.023  21.379  0.00  0.00    +0.000 C 
ATOM      7  C   UNL     1       1.889   6.343  20.423  0.00  0.00    +0.000 A 
ATOM      8  N   UNL     1       1.116   6.865  21.441  0.00  0.00    +0.000 N 
ATOM      9  C   UNL     1       0.821   8.183  21.225  0.00  0.00    +0.000 A 
ATOM     10  C   UNL     1       0.065   9.065  22.011  0.00  0.00    +0.000 A 
ATOM     11  C   UNL     1      -0.087  10.375  21.559  0.00  0.00    +0.000 A 
ATOM     12  C   UNL     1       0.496  10.782  20.368  0.00  0.00    +0.000 A 
ATOM     13  C   UNL     1       1.249   9.883  19.598  0.00  0.00    +0.000 A 
ATOM     14  C   UNL     1       1.425   8.544  20.022  0.00  0.00    +0.000 A 
ATOM     15  C   UNL     1       2.112   7.372  19.509  0.00  0.00    +0.000 A 
ATOM     16  C   UNL     1       2.906   7.088  18.362  0.00  0.00    +0.000 A 
ATOM     17  C   UNL     1       3.209   8.131  17.309  0.00  0.00    +0.000 C 
ATOM     18  C   UNL     1       3.444   5.765  18.200  0.00  0.00    +0.000 A 
ATOM     19  C   UNL     1       4.276   5.442  17.111  0.00  0.00    +0.000 A 
ATOM     20  H   UNL     1       0.801   6.346  22.246  0.00  0.00    +0.000 HD
ENDROOT
BRANCH   1  21
ATOM     21  C   UNL     1       5.770   3.968  15.838  0.00  0.00    +0.000 C 
BRANCH  21  22
ATOM     22  C   UNL     1       7.013   4.793  16.011  0.00  0.00    +0.000 C 
ATOM     23  O   UNL     1       7.334   5.709  15.265  0.00  0.00    +0.000 OA
BRANCH  22  25
ATOM     24  C   UNL     1       7.753   5.320  18.171  0.00  0.00    +0.000 C 
ATOM     25  O   UNL     1       7.719   4.375  17.095  0.00  0.00    +0.000 OA
ENDBRANCH  22  25
ENDBRANCH  21  22
ENDBRANCH   1  21
TORSDOF 3
ENDMDL
MODEL 3
REMARK VINA RESULT:      -7.9      1.109      1.365
REMARK  Name = 
REMARK  6 active torsions:
REMARK  status: ('A' for Active; 'I' for Inactive)
REMARK    1  A    between atoms: C_1  and  O_2
REMARK    2  A    between atoms: O_2  and  C_3
REMARK    3  A    between atoms: C_3  and  C_5
REMARK    4  A    between atoms: C_5  and  N_6
REMARK    5  A    between atoms: C_10  and  C_11
REMARK    6  A    between atoms: C_21  and  C_22
REMARK                            x       y       z     vdW  Elec       q    Type
REMARK                         _______ _______ _______ _____ _____    ______ ____
ROOT
ATOM      1  N   UNL     1       4.699   5.453  16.714  0.00  0.00    +0.000 N 
ATOM      2  C   UNL     1       4.532   4.348  17.460  0.00  0.00    +0.000 A 
ATOM      3  C   UNL     1       3.748   4.391  18.604  0.00  0.00    +0.000 A 
ATOM      4  C   UNL     1       3.102   5.575  19.006  0.00  0.00    +0.000 A 
ATOM      5  C   UNL     1       2.348   5.655  20.208  0.00  0.00    +0.000 A 
ATOM      6  C   UNL     1       2.200   4.521  21.191  0.00  0.00    +0.000 C 
ATOM      7  C   UNL     1       1.724   6.891  20.491  0.00  0.00    +0.000 A 
ATOM      8  N   UNL     1       0.948   7.222  21.583  0.00  0.00    +0.000 N 
ATOM      9  C   UNL     1       0.508   8.514  21.516  0.00  0.00    +0.000 A 
ATOM     10  C   UNL     1      -0.299   9.226  22.415  0.00  0.00    +0.000 A 
ATOM     11  C   UNL     1      -0.608  10.550  22.108  0.00  0.00    +0.000 A 
ATOM     12  C   UNL     1      -0.125  11.136  20.947  0.00  0.00    +0.000 A 
ATOM     13  C   UNL     1       0.681  10.405  20.062  0.00  0.00    +0.000 A 
ATOM     14  C   UNL     1       1.015   9.058  20.338  0.00  0.00    +0.000 A 
ATOM     15  C   UNL     1       1.796   8.023  19.681  0.00  0.00    +0.000 A 
ATOM     16  C   UNL     1       2.563   7.944  18.484  0.00  0.00    +0.000 A 
ATOM     17  C   UNL     1       2.707   9.114  17.536  0.00  0.00    +0.000 C 
ATOM     18  C   UNL     1       3.228   6.710  18.167  0.00  0.00    +0.000 A 
ATOM     19  C   UNL     1       4.039   6.589  17.022  0.00  0.00    +0.000 A 
ATOM     20  H   UNL     1       0.725   6.593  22.340  0.00  0.00    +0.000 HD
ENDROOT
BRANCH   1  21
ATOM     21  C   UNL     1       5.618   5.421  15.551  0.00  0.00    +0.000 C 
BRANCH  21  22
ATOM     22  C   UNL     1       7.049   5.410  16.009  0.00  0.00    +0.000 C 
ATOM     23  O   UNL     1       7.759   4.412  16.007  0.00  0.00    +0.000 OA
BRANCH  22  25
ATOM     24  C   UNL     1       7.685   6.739  17.830  0.00  0.00    +0.000 C 
ATOM     25  O   UNL     1       7.429   6.647  16.424  0.00  0.00    +0.000 OA
ENDBRANCH  22  25
ENDBRANCH  21  22
ENDBRANCH   1  21
TORSDOF 3
ENDMDL
MODEL 4
REMARK VINA RESULT:      -7.7      1.105      1.331
REMARK  Name = 
REMARK  6 active torsions:
REMARK  status: ('A' for Active; 'I' for Inactive)
REMARK    1  A    between atoms: C_1  and  O_2
REMARK    2  A    between atoms: O_2  and  C_3
REMARK    3  A    between atoms: C_3  and  C_5
REMARK    4  A    between atoms: C_5  and  N_6
REMARK    5  A    between atoms: C_10  and  C_11
REMARK    6  A    between atoms: C_21  and  C_22
REMARK                            x       y       z     vdW  Elec       q    Type
REMARK                         _______ _______ _______ _____ _____    ______ ____
ROOT
ATOM      1  N   UNL     1       4.469   5.892  16.647  0.00  0.00    +0.000 N 
ATOM      2  C   UNL     1       4.326   4.752  17.344  0.00  0.00    +0.000 A 
ATOM      3  C   UNL     1       3.567   4.736  18.506  0.00  0.00    +0.000 A 
ATOM      4  C   UNL     1       2.924   5.896  18.978  0.00  0.00    +0.000 A 
ATOM      5  C   UNL     1       2.196   5.914  20.198  0.00  0.00    +0.000 A 
ATOM      6  C   UNL     1       2.077   4.734  21.130  0.00  0.00    +0.000 C 
ATOM      7  C   UNL     1       1.573   7.131  20.553  0.00  0.00    +0.000 A 
ATOM      8  N   UNL     1       0.820   7.405  21.677  0.00  0.00    +0.000 N 
ATOM      9  C   UNL     1       0.370   8.696  21.680  0.00  0.00    +0.000 A 
ATOM     10  C   UNL     1      -0.420   9.359  22.630  0.00  0.00    +0.000 A 
ATOM     11  C   UNL     1      -0.743  10.695  22.393  0.00  0.00    +0.000 A 
ATOM     12  C   UNL     1      -0.289  11.337  21.250  0.00  0.00    +0.000 A 
ATOM     13  C   UNL     1       0.501  10.655  20.314  0.00  0.00    +0.000 A 
ATOM     14  C   UNL     1       0.848   9.298  20.518  0.00  0.00    +0.000 A 
ATOM     15  C   UNL     1       1.620   8.301  19.797  0.00  0.00    +0.000 A 
ATOM     16  C   UNL     1       2.360   8.283  18.580  0.00  0.00    +0.000 A 
ATOM     17  C   UNL     1       2.476   9.498  17.685  0.00  0.00    +0.000 C 
ATOM     18  C   UNL     1       3.025   7.070  18.190  0.00  0.00    +0.000 A 
ATOM     19  C   UNL     1       3.810   7.008  17.023  0.00  0.00    +0.000 A 
ATOM     20  H   UNL     1       0.617   6.739  22.408  0.00  0.00    +0.000 HD
ENDROOT
BRANCH   1  21
ATOM     21  C   UNL     1       5.363   5.921  15.464  0.00  0.00    +0.000 C 
BRANCH  21  22
ATOM     22  C   UNL     1       6.771   5.579  15.857  0.00  0.00    +0.000 C 
ATOM     23  O   UNL     1       7.480   6.296  16.552  0.00  0.00    +0.000 OA
BRANCH  22  25
ATOM     24  C   UNL     1       6.361   3.977  14.197  0.00  0.00    +0.000 C 
ATOM     25  O   UNL     1       7.138   4.381  15.330  0.00  0.00    +0.000 OA
ENDBRANCH  22  25
ENDBRANCH  21  22
ENDBRANCH   1  21
TORSDOF 3
ENDMDL
MODEL 5
REMARK VINA RESULT:      -7.2      3.669      7.507
REMARK  Name = 
REMARK  6 active torsions:
REMARK  status: ('A' for Active; 'I' for Inactive)
REMARK    1  A    between atoms: C_1  and  O_2
REMARK    2  A    between atoms: O_2  and  C_3
REMARK    3  A    between atoms: C_3  and  C_5
REMARK    4  A    between atoms: C_5  and  N_6
REMARK    5  A    between atoms: C_10  and  C_11
REMARK    6  A    between atoms: C_21  and  C_22
REMARK                            x       y       z     vdW  Elec       q    Type
REMARK                         _______ _______ _______ _____ _____    ______ ____
ROOT
ATOM      1  N   UNL     1       0.204   9.516  20.665  0.00  0.00    +0.000 N 
ATOM      2  C   UNL     1       0.067   8.574  21.613  0.00  0.00    +0.000 A 
ATOM      3  C   UNL     1       0.733   7.363  21.494  0.00  0.00    +0.000 A 
ATOM      4  C   UNL     1       1.571   7.091  20.395  0.00  0.00    +0.000 A 
ATOM      5  C   UNL     1       2.210   5.833  20.223  0.00  0.00    +0.000 A 
ATOM      6  C   UNL     1       2.026   4.657  21.150  0.00  0.00    +0.000 C 
ATOM      7  C   UNL     1       3.047   5.690  19.095  0.00  0.00    +0.000 A 
ATOM      8  N   UNL     1       3.769   4.580  18.707  0.00  0.00    +0.000 N 
ATOM      9  C   UNL     1       4.473   4.812  17.558  0.00  0.00    +0.000 A 
ATOM     10  C   UNL     1       5.323   3.953  16.847  0.00  0.00    +0.000 A 
ATOM     11  C   UNL     1       5.927   4.442  15.690  0.00  0.00    +0.000 A 
ATOM     12  C   UNL     1       5.687   5.741  15.264  0.00  0.00    +0.000 A 
ATOM     13  C   UNL     1       4.832   6.582  15.990  0.00  0.00    +0.000 A 
ATOM     14  C   UNL     1       4.202   6.123  17.171  0.00  0.00    +0.000 A 
ATOM     15  C   UNL     1       3.287   6.686  18.150  0.00  0.00    +0.000 A 
ATOM     16  C   UNL     1       2.636   7.941  18.318  0.00  0.00    +0.000 A 
ATOM     17  C   UNL     1       2.827   9.089  17.350  0.00  0.00    +0.000 C 
ATOM     18  C   UNL     1       1.762   8.124  19.444  0.00  0.00    +0.000 A 
ATOM     19  C   UNL     1       1.054   9.326  19.634  0.00  0.00    +0.000 A 
ATOM     20  H   UNL     1       3.785   3.703  19.205  0.00  0.00    +0.000 HD
ENDROOT
BRANCH   1  21
ATOM     21  C   UNL     1      -0.589  10.765  20.752  0.00  0.00    +0.000 C 
BRANCH  21  22
ATOM     22  C   UNL     1       0.026  11.716  21.738  0.00  0.00    +0.000 C 
ATOM     23  O   UNL     1       0.891  12.534  21.450  0.00  0.00    +0.000 OA
BRANCH  22  25
ATOM     24  C   UNL     1      -1.905  11.813  23.061  0.00  0.00    +0.000 C 
ATOM     25  O   UNL     1      -0.503  11.532  22.977  0.00  0.00    +0.000 OA
ENDBRANCH  22  25
ENDBRANCH  21  22
ENDBRANCH   1  21
TORSDOF 3
ENDMDL
MODEL 6
REMARK VINA RESULT:      -7.2      0.811      1.001
REMARK  Name = 
REMARK  6 active torsions:
REMARK  status: ('A' for Active; 'I' for Inactive)
REMARK    1  A    between atoms: C_1  and  O_2
REMARK    2  A    between atoms: O_2  and  C_3
REMARK    3  A    between atoms: C_3  and  C_5
REMARK    4  A    between atoms: C_5  and  N_6
REMARK    5  A    between atoms: C_10  and  C_11
REMARK    6  A    between atoms: C_21  and  C_22
REMARK                            x       y       z     vdW  Elec       q    Type
REMARK                         _______ _______ _______ _____ _____    ______ ____
ROOT
ATOM      1  N   UNL     1       5.035   4.054  17.064  0.00  0.00    +0.000 N 
ATOM      2  C   UNL     1       4.689   3.079  17.922  0.00  0.00    +0.000 A 
ATOM      3  C   UNL     1       3.833   3.353  18.979  0.00  0.00    +0.000 A 
ATOM      4  C   UNL     1       3.300   4.641  19.177  0.00  0.00    +0.000 A 
ATOM      5  C   UNL     1       2.474   4.955  20.290  0.00  0.00    +0.000 A 
ATOM      6  C   UNL     1       2.126   3.980  21.388  0.00  0.00    +0.000 C 
ATOM      7  C   UNL     1       1.977   6.275  20.366  0.00  0.00    +0.000 A 
ATOM      8  N   UNL     1       1.167   6.824  21.338  0.00  0.00    +0.000 N 
ATOM      9  C   UNL     1       0.883   8.136  21.077  0.00  0.00    +0.000 A 
ATOM     10  C   UNL     1       0.100   9.039  21.809  0.00  0.00    +0.000 A 
ATOM     11  C   UNL     1      -0.032  10.337  21.318  0.00  0.00    +0.000 A 
ATOM     12  C   UNL     1       0.598  10.712  20.140  0.00  0.00    +0.000 A 
ATOM     13  C   UNL     1       1.378   9.793  19.424  0.00  0.00    +0.000 A 
ATOM     14  C   UNL     1       1.534   8.465  19.889  0.00  0.00    +0.000 A 
ATOM     15  C   UNL     1       2.238   7.279  19.434  0.00  0.00    +0.000 A 
ATOM     16  C   UNL     1       3.075   6.964  18.327  0.00  0.00    +0.000 A 
ATOM     17  C   UNL     1       3.421   7.979  17.259  0.00  0.00    +0.000 C 
ATOM     18  C   UNL     1       3.616   5.637  18.220  0.00  0.00    +0.000 A 
ATOM     19  C   UNL     1       4.488   5.284  17.173  0.00  0.00    +0.000 A 
ATOM     20  H   UNL     1       0.819   6.326  22.144  0.00  0.00    +0.000 HD
ENDROOT
BRANCH   1  21
ATOM     21  C   UNL     1       6.027   3.775  15.998  0.00  0.00    +0.000 C 
BRANCH  21  22
ATOM     22  C   UNL     1       5.852   4.727  14.851  0.00  0.00    +0.000 C 
ATOM     23  O   UNL     1       6.265   5.880  14.851  0.00  0.00    +0.000 OA
BRANCH  22  25
ATOM     24  C   UNL     1       6.016   3.589  12.809  0.00  0.00    +0.000 C 
ATOM     25  O   UNL     1       5.175   4.133  13.833  0.00  0.00    +0.000 OA
ENDBRANCH  22  25
ENDBRANCH  21  22
ENDBRANCH   1  21
TORSDOF 3
ENDMDL
MODEL 7
REMARK VINA RESULT:      -7.1      3.678      7.384
REMARK  Name = 
REMARK  6 active torsions:
REMARK  status: ('A' for Active; 'I' for Inactive)
REMARK    1  A    between atoms: C_1  and  O_2
REMARK    2  A    between atoms: O_2  and  C_3
REMARK    3  A    between atoms: C_3  and  C_5
REMARK    4  A    between atoms: C_5  and  N_6
REMARK    5  A    between atoms: C_10  and  C_11
REMARK    6  A    between atoms: C_21  and  C_22
REMARK                            x       y       z     vdW  Elec       q    Type
REMARK                         _______ _______ _______ _____ _____    ______ ____
ROOT
ATOM      1  N   UNL     1       0.215   9.522  20.677  0.00  0.00    +0.000 N 
ATOM      2  C   UNL     1       0.069   8.579  21.622  0.00  0.00    +0.000 A 
ATOM      3  C   UNL     1       0.725   7.362  21.499  0.00  0.00    +0.000 A 
ATOM      4  C   UNL     1       1.560   7.087  20.400  0.00  0.00    +0.000 A 
ATOM      5  C   UNL     1       2.189   5.824  20.225  0.00  0.00    +0.000 A 
ATOM      6  C   UNL     1       1.995   4.647  21.148  0.00  0.00    +0.000 C 
ATOM      7  C   UNL     1       3.025   5.677  19.097  0.00  0.00    +0.000 A 
ATOM      8  N   UNL     1       3.738   4.562  18.706  0.00  0.00    +0.000 N 
ATOM      9  C   UNL     1       4.445   4.792  17.558  0.00  0.00    +0.000 A 
ATOM     10  C   UNL     1       5.288   3.927  16.845  0.00  0.00    +0.000 A 
ATOM     11  C   UNL     1       5.897   4.414  15.690  0.00  0.00    +0.000 A 
ATOM     12  C   UNL     1       5.668   5.716  15.268  0.00  0.00    +0.000 A 
ATOM     13  C   UNL     1       4.820   6.563  15.996  0.00  0.00    +0.000 A 
ATOM     14  C   UNL     1       4.185   6.106  17.175  0.00  0.00    +0.000 A 
ATOM     15  C   UNL     1       3.275   6.674  18.155  0.00  0.00    +0.000 A 
ATOM     16  C   UNL     1       2.634   7.934  18.326  0.00  0.00    +0.000 A 
ATOM     17  C   UNL     1       2.836   9.083  17.362  0.00  0.00    +0.000 C 
ATOM     18  C   UNL     1       1.761   8.121  19.452  0.00  0.00    +0.000 A 
ATOM     19  C   UNL     1       1.064   9.328  19.645  0.00  0.00    +0.000 A 
ATOM     20  H   UNL     1       3.746   3.683  19.202  0.00  0.00    +0.000 HD
ENDROOT
BRANCH   1  21
ATOM     21  C   UNL     1      -0.568  10.778  20.767  0.00  0.00    +0.000 C 
BRANCH  21  22
ATOM     22  C   UNL     1      -0.079  11.626  21.905  0.00  0.00    +0.000 C 
ATOM     23  O   UNL     1      -0.601  11.651  23.012  0.00  0.00    +0.000 OA
BRANCH  22  25
ATOM     24  C   UNL     1       0.728  13.739  21.290  0.00  0.00    +0.000 C 
ATOM     25  O   UNL     1       1.006  12.354  21.528  0.00  0.00    +0.000 OA
ENDBRANCH  22  25
ENDBRANCH  21  22
ENDBRANCH   1  21
TORSDOF 3
ENDMDL
MODEL 8
REMARK VINA RESULT:      -7.1      5.885     10.340
REMARK  Name = 
REMARK  6 active torsions:
REMARK  status: ('A' for Active; 'I' for Inactive)
REMARK    1  A    between atoms: C_1  and  O_2
REMARK    2  A    between atoms: O_2  and  C_3
REMARK    3  A    between atoms: C_3  and  C_5
REMARK    4  A    between atoms: C_5  and  N_6
REMARK    5  A    between atoms: C_10  and  C_11
REMARK    6  A    between atoms: C_21  and  C_22
REMARK                            x       y       z     vdW  Elec       q    Type
REMARK                         _______ _______ _______ _____ _____    ______ ____
ROOT
ATOM      1  N   UNL     1      -2.435  13.180  22.867  0.00  0.00    +0.000 N 
ATOM      2  C   UNL     1      -2.573  13.992  21.806  0.00  0.00    +0.000 A 
ATOM      3  C   UNL     1      -1.951  13.683  20.605  0.00  0.00    +0.000 A 
ATOM      4  C   UNL     1      -1.174  12.518  20.460  0.00  0.00    +0.000 A 
ATOM      5  C   UNL     1      -0.477  12.217  19.259  0.00  0.00    +0.000 A 
ATOM      6  C   UNL     1      -0.450  13.118  18.048  0.00  0.00    +0.000 C 
ATOM      7  C   UNL     1       0.247  11.006  19.226  0.00  0.00    +0.000 A 
ATOM      8  N   UNL     1       1.001  10.493  18.190  0.00  0.00    +0.000 N 
ATOM      9  C   UNL     1       1.558   9.288  18.518  0.00  0.00    +0.000 A 
ATOM     10  C   UNL     1       2.378   8.449  17.751  0.00  0.00    +0.000 A 
ATOM     11  C   UNL     1       2.817   7.258  18.328  0.00  0.00    +0.000 A 
ATOM     12  C   UNL     1       2.447   6.925  19.623  0.00  0.00    +0.000 A 
ATOM     13  C   UNL     1       1.627   7.780  20.373  0.00  0.00    +0.000 A 
ATOM     14  C   UNL     1       1.159   8.996  19.821  0.00  0.00    +0.000 A 
ATOM     15  C   UNL     1       0.324  10.094  20.278  0.00  0.00    +0.000 A 
ATOM     16  C   UNL     1      -0.365  10.404  21.484  0.00  0.00    +0.000 A 
ATOM     17  C   UNL     1      -0.347   9.485  22.686  0.00  0.00    +0.000 C 
ATOM     18  C   UNL     1      -1.101  11.636  21.567  0.00  0.00    +0.000 A 
ATOM     19  C   UNL     1      -1.761  12.016  22.751  0.00  0.00    +0.000 A 
ATOM     20  H   UNL     1       1.129  10.943  17.295  0.00  0.00    +0.000 HD
ENDROOT
BRANCH   1  21
ATOM     21  C   UNL     1      -3.021  13.571  24.171  0.00  0.00    +0.000 C 
BRANCH  21  22
ATOM     22  C   UNL     1      -4.369  12.936  24.358  0.00  0.00    +0.000 C 
ATOM     23  O   UNL     1      -4.545  11.854  24.903  0.00  0.00    +0.000 OA
BRANCH  22  25
ATOM     24  C   UNL     1      -6.451  12.996  23.284  0.00  0.00    +0.000 C 
ATOM     25  O   UNL     1      -5.346  13.723  23.834  0.00  0.00    +0.000 OA
ENDBRANCH  22  25
ENDBRANCH  21  22
ENDBRANCH   1  21
TORSDOF 3
ENDMDL
MODEL 9
REMARK VINA RESULT:      -6.8      3.516      7.125
REMARK  Name = 
REMARK  6 active torsions:
REMARK  status: ('A' for Active; 'I' for Inactive)
REMARK    1  A    between atoms: C_1  and  O_2
REMARK    2  A    between atoms: O_2  and  C_3
REMARK    3  A    between atoms: C_3  and  C_5
REMARK    4  A    between atoms: C_5  and  N_6
REMARK    5  A    between atoms: C_10  and  C_11
REMARK    6  A    between atoms: C_21  and  C_22
REMARK                            x       y       z     vdW  Elec       q    Type
REMARK                         _______ _______ _______ _____ _____    ______ ____
ROOT
ATOM      1  N   UNL     1       0.301   9.580  20.629  0.00  0.00    +0.000 N 
ATOM      2  C   UNL     1       0.142   8.650  21.585  0.00  0.00    +0.000 A 
ATOM      3  C   UNL     1       0.777   7.421  21.476  0.00  0.00    +0.000 A 
ATOM      4  C   UNL     1       1.606   7.119  20.378  0.00  0.00    +0.000 A 
ATOM      5  C   UNL     1       2.212   5.844  20.216  0.00  0.00    +0.000 A 
ATOM      6  C   UNL     1       2.001   4.681  21.154  0.00  0.00    +0.000 C 
ATOM      7  C   UNL     1       3.044   5.670  19.088  0.00  0.00    +0.000 A 
ATOM      8  N   UNL     1       3.737   4.539  18.709  0.00  0.00    +0.000 N 
ATOM      9  C   UNL     1       4.445   4.743  17.556  0.00  0.00    +0.000 A 
ATOM     10  C   UNL     1       5.271   3.856  16.852  0.00  0.00    +0.000 A 
ATOM     11  C   UNL     1       5.886   4.320  15.689  0.00  0.00    +0.000 A 
ATOM     12  C   UNL     1       5.677   5.620  15.253  0.00  0.00    +0.000 A 
ATOM     13  C   UNL     1       4.846   6.489  15.973  0.00  0.00    +0.000 A 
ATOM     14  C   UNL     1       4.206   6.057  17.159  0.00  0.00    +0.000 A 
ATOM     15  C   UNL     1       3.308   6.651  18.134  0.00  0.00    +0.000 A 
ATOM     16  C   UNL     1       2.688   7.924  18.292  0.00  0.00    +0.000 A 
ATOM     17  C   UNL     1       2.907   9.058  17.314  0.00  0.00    +0.000 C 
ATOM     18  C   UNL     1       1.821   8.139  19.417  0.00  0.00    +0.000 A 
ATOM     19  C   UNL     1       1.145   9.360  19.598  0.00  0.00    +0.000 A 
ATOM     20  H   UNL     1       3.732   3.666  19.215  0.00  0.00    +0.000 HD
ENDROOT
BRANCH   1  21
ATOM     21  C   UNL     1      -0.460  10.849  20.706  0.00  0.00    +0.000 C 
BRANCH  21  22
ATOM     22  C   UNL     1      -0.827  11.331  19.332  0.00  0.00    +0.000 C 
ATOM     23  O   UNL     1      -0.319  12.306  18.792  0.00  0.00    +0.000 OA
BRANCH  22  25
ATOM     24  C   UNL     1      -2.113  10.862  17.430  0.00  0.00    +0.000 C 
ATOM     25  O   UNL     1      -1.792  10.543  18.789  0.00  0.00    +0.000 OA
ENDBRANCH  22  25
ENDBRANCH  21  22
ENDBRANCH   1  21
TORSDOF 3
ENDMDL
