MODEL 1
REMARK VINA RESULT:      -7.0      0.000      0.000
REMARK  Name = 
REMARK  8 active torsions:
REMARK  status: ('A' for Active; 'I' for Inactive)
REMARK    1  A    between atoms: C_1  and  C_2
REMARK    2  A    between atoms: C_5  and  C_6
REMARK    3  A    between atoms: C_7  and  S_8
REMARK    4  A    between atoms: S_8  and  N_11
REMARK    5  A    between atoms: C_17  and  C_18
REMARK    6  A    between atoms: C_18  and  C_19
REMARK    7  A    between atoms: C_19  and  C_20
REMARK    8  A    between atoms: C_19  and  C_21
REMARK                            x       y       z     vdW  Elec       q    Type
REMARK                         _______ _______ _______ _____ _____    ______ ____
ROOT
ATOM      1  N   UNL     1       5.311   4.460  17.655  0.00  0.00    +0.000 N 
ATOM      2  C   UNL     1       4.596   3.796  16.639  0.00  0.00    +0.000 C 
ATOM      3  S   UNL     1       3.181   2.943  16.678  0.00  0.00    +0.000 S 
ATOM      4  N   UNL     1       5.298   3.959  15.496  0.00  0.00    +0.000 N 
ATOM      5  C   UNL     1       6.463   4.642  15.691  0.00  0.00    +0.000 C 
ATOM      6  O   UNL     1       7.322   4.801  14.838  0.00  0.00    +0.000 OA
ATOM      7  C   UNL     1       6.539   5.127  17.144  0.00  0.00    +0.000 C 
ATOM      8  H   UNL     1       5.049   3.536  14.616  0.00  0.00    +0.000 HD
ENDROOT
BRANCH   1   9
ATOM      9  S   UNL     1       5.097   4.368  19.320  0.00  0.00    +0.000 S 
ATOM     10  O   UNL     1       6.202   5.071  19.932  0.00  0.00    +0.000 OA
ATOM     11  O   UNL     1       4.808   2.989  19.671  0.00  0.00    +0.000 OA
BRANCH   9  18
ATOM     12  C   UNL     1       2.240   8.628  18.384  0.00  0.00    +0.000 C 
ATOM     13  C   UNL     1       2.348   7.318  19.108  0.00  0.00    +0.000 A 
ATOM     14  C   UNL     1       1.427   6.971  20.096  0.00  0.00    +0.000 A 
ATOM     15  C   UNL     1       1.551   5.765  20.791  0.00  0.00    +0.000 A 
ATOM     16  C   UNL     1       2.619   4.888  20.546  0.00  0.00    +0.000 A 
ATOM     17  C   UNL     1       2.675   3.606  21.328  0.00  0.00    +0.000 C 
ATOM     18  C   UNL     1       3.578   5.273  19.592  0.00  0.00    +0.000 A 
ATOM     19  C   UNL     1       3.417   6.457  18.848  0.00  0.00    +0.000 A 
ENDBRANCH   9  18
ENDBRANCH   1   9
BRANCH   7  20
ATOM     20  C   UNL     1       6.551   6.654  17.248  0.00  0.00    +0.000 C 
BRANCH  20  21
ATOM     21  C   UNL     1       7.859   7.403  17.601  0.00  0.00    +0.000 C 
ATOM     22  C   UNL     1       7.727   8.923  17.661  0.00  0.00    +0.000 C 
ATOM     23  C   UNL     1       8.345   6.923  18.979  0.00  0.00    +0.000 C 
ENDBRANCH  20  21
ENDBRANCH   7  20
TORSDOF 4
ENDMDL
MODEL 2
REMARK VINA RESULT:      -6.9      2.235      6.025
REMARK  Name = 
REMARK  8 active torsions:
REMARK  status: ('A' for Active; 'I' for Inactive)
REMARK    1  A    between atoms: C_1  and  C_2
REMARK    2  A    between atoms: C_5  and  C_6
REMARK    3  A    between atoms: C_7  and  S_8
REMARK    4  A    between atoms: S_8  and  N_11
REMARK    5  A    between atoms: C_17  and  C_18
REMARK    6  A    between atoms: C_18  and  C_19
REMARK    7  A    between atoms: C_19  and  C_20
REMARK    8  A    between atoms: C_19  and  C_21
REMARK                            x       y       z     vdW  Elec       q    Type
REMARK                         _______ _______ _______ _____ _____    ______ ____
ROOT
ATOM      1  N   UNL     1       3.079   5.222  18.717  0.00  0.00    +0.000 N 
ATOM      2  C   UNL     1       3.220   6.512  18.168  0.00  0.00    +0.000 C 
ATOM      3  S   UNL     1       3.928   7.031  16.768  0.00  0.00    +0.000 S 
ATOM      4  N   UNL     1       2.642   7.372  19.036  0.00  0.00    +0.000 N 
ATOM      5  C   UNL     1       2.170   6.749  20.154  0.00  0.00    +0.000 C 
ATOM      6  O   UNL     1       1.725   7.328  21.132  0.00  0.00    +0.000 OA
ATOM      7  C   UNL     1       2.334   5.230  20.005  0.00  0.00    +0.000 C 
ATOM      8  H   UNL     1       2.647   8.373  18.926  0.00  0.00    +0.000 HD
ENDROOT
BRANCH   1   9
ATOM      9  S   UNL     1       3.838   3.796  18.253  0.00  0.00    +0.000 S 
ATOM     10  O   UNL     1       2.915   3.078  17.403  0.00  0.00    +0.000 OA
ATOM     11  O   UNL     1       4.402   3.170  19.435  0.00  0.00    +0.000 OA
BRANCH   9  18
ATOM     12  C   UNL     1       6.263   3.981  13.640  0.00  0.00    +0.000 C 
ATOM     13  C   UNL     1       6.287   4.360  15.092  0.00  0.00    +0.000 A 
ATOM     14  C   UNL     1       7.435   4.906  15.668  0.00  0.00    +0.000 A 
ATOM     15  C   UNL     1       7.464   5.226  17.028  0.00  0.00    +0.000 A 
ATOM     16  C   UNL     1       6.363   4.974  17.861  0.00  0.00    +0.000 A 
ATOM     17  C   UNL     1       6.470   5.357  19.310  0.00  0.00    +0.000 C 
ATOM     18  C   UNL     1       5.231   4.366  17.286  0.00  0.00    +0.000 A 
ATOM     19  C   UNL     1       5.179   4.104  15.905  0.00  0.00    +0.000 A 
ENDBRANCH   9  18
ENDBRANCH   1   9
BRANCH   7  20
ATOM     20  C   UNL     1       0.990   4.499  19.994  0.00  0.00    +0.000 C 
BRANCH  20  21
ATOM     21  C   UNL     1       0.858   3.098  20.640  0.00  0.00    +0.000 C 
ATOM     22  C   UNL     1       1.014   1.930  19.667  0.00  0.00    +0.000 C 
ATOM     23  C   UNL     1       1.940   2.949  21.722  0.00  0.00    +0.000 C 
ENDBRANCH  20  21
ENDBRANCH   7  20
TORSDOF 4
ENDMDL
MODEL 3
REMARK VINA RESULT:      -6.7      2.297      5.316
REMARK  Name = 
REMARK  8 active torsions:
REMARK  status: ('A' for Active; 'I' for Inactive)
REMARK    1  A    between atoms: C_1  and  C_2
REMARK    2  A    between atoms: C_5  and  C_6
REMARK    3  A    between atoms: C_7  and  S_8
REMARK    4  A    between atoms: S_8  and  N_11
REMARK    5  A    between atoms: C_17  and  C_18
REMARK    6  A    between atoms: C_18  and  C_19
REMARK    7  A    between atoms: C_19  and  C_20
REMARK    8  A    between atoms: C_19  and  C_21
REMARK                            x       y       z     vdW  Elec       q    Type
REMARK                         _______ _______ _______ _____ _____    ______ ____
ROOT
ATOM      1  N   UNL     1       3.134   3.964  19.107  0.00  0.00    +0.000 N 
ATOM      2  C   UNL     1       3.164   3.323  20.361  0.00  0.00    +0.000 C 
ATOM      3  S   UNL     1       3.890   1.924  20.856  0.00  0.00    +0.000 S 
ATOM      4  N   UNL     1       2.433   4.084  21.206  0.00  0.00    +0.000 N 
ATOM      5  C   UNL     1       1.873   5.163  20.587  0.00  0.00    +0.000 C 
ATOM      6  O   UNL     1       1.071   5.921  21.109  0.00  0.00    +0.000 OA
ATOM      7  C   UNL     1       2.367   5.238  19.136  0.00  0.00    +0.000 C 
ATOM      8  H   UNL     1       2.234   3.834  22.161  0.00  0.00    +0.000 HD
ENDROOT
BRANCH   1   9
ATOM      9  S   UNL     1       3.607   3.361  17.610  0.00  0.00    +0.000 S 
ATOM     10  O   UNL     1       2.673   3.869  16.631  0.00  0.00    +0.000 OA
ATOM     11  O   UNL     1       3.843   1.935  17.743  0.00  0.00    +0.000 OA
BRANCH   9  18
ATOM     12  C   UNL     1       7.762   5.762  19.651  0.00  0.00    +0.000 C 
ATOM     13  C   UNL     1       7.088   5.245  18.414  0.00  0.00    +0.000 A 
ATOM     14  C   UNL     1       7.588   5.549  17.148  0.00  0.00    +0.000 A 
ATOM     15  C   UNL     1       6.937   5.094  15.998  0.00  0.00    +0.000 A 
ATOM     16  C   UNL     1       5.747   4.355  16.077  0.00  0.00    +0.000 A 
ATOM     17  C   UNL     1       5.115   3.893  14.795  0.00  0.00    +0.000 C 
ATOM     18  C   UNL     1       5.214   4.104  17.356  0.00  0.00    +0.000 A 
ATOM     19  C   UNL     1       5.905   4.508  18.514  0.00  0.00    +0.000 A 
ENDBRANCH   9  18
ENDBRANCH   1   9
BRANCH   7  20
ATOM     20  C   UNL     1       3.182   6.505  18.864  0.00  0.00    +0.000 C 
BRANCH  20  21
ATOM     21  C   UNL     1       2.953   7.317  17.566  0.00  0.00    +0.000 C 
ATOM     22  C   UNL     1       2.266   8.666  17.771  0.00  0.00    +0.000 C 
ATOM     23  C   UNL     1       4.315   7.585  16.905  0.00  0.00    +0.000 C 
ENDBRANCH  20  21
ENDBRANCH   7  20
TORSDOF 4
ENDMDL
MODEL 4
REMARK VINA RESULT:      -6.7      2.206      2.992
REMARK  Name = 
REMARK  8 active torsions:
REMARK  status: ('A' for Active; 'I' for Inactive)
REMARK    1  A    between atoms: C_1  and  C_2
REMARK    2  A    between atoms: C_5  and  C_6
REMARK    3  A    between atoms: C_7  and  S_8
REMARK    4  A    between atoms: S_8  and  N_11
REMARK    5  A    between atoms: C_17  and  C_18
REMARK    6  A    between atoms: C_18  and  C_19
REMARK    7  A    between atoms: C_19  and  C_20
REMARK    8  A    between atoms: C_19  and  C_21
REMARK                            x       y       z     vdW  Elec       q    Type
REMARK                         _______ _______ _______ _____ _____    ______ ____
ROOT
ATOM      1  N   UNL     1       4.095   3.727  18.312  0.00  0.00    +0.000 N 
ATOM      2  C   UNL     1       4.835   3.100  19.334  0.00  0.00    +0.000 C 
ATOM      3  S   UNL     1       4.377   2.066  20.538  0.00  0.00    +0.000 S 
ATOM      4  N   UNL     1       6.117   3.505  19.192  0.00  0.00    +0.000 N 
ATOM      5  C   UNL     1       6.274   4.402  18.177  0.00  0.00    +0.000 C 
ATOM      6  O   UNL     1       7.309   5.004  17.939  0.00  0.00    +0.000 OA
ATOM      7  C   UNL     1       4.945   4.567  17.426  0.00  0.00    +0.000 C 
ATOM      8  H   UNL     1       6.860   3.258  19.827  0.00  0.00    +0.000 HD
ENDROOT
BRANCH   1   9
ATOM      9  S   UNL     1       2.426   3.845  18.148  0.00  0.00    +0.000 S 
ATOM     10  O   UNL     1       1.844   2.765  18.913  0.00  0.00    +0.000 OA
ATOM     11  O   UNL     1       2.113   4.013  16.741  0.00  0.00    +0.000 OA
BRANCH   9  18
ATOM     12  C   UNL     1       2.135   9.038  17.767  0.00  0.00    +0.000 C 
ATOM     13  C   UNL     1       1.977   7.829  18.641  0.00  0.00    +0.000 A 
ATOM     14  C   UNL     1       1.780   7.962  20.015  0.00  0.00    +0.000 A 
ATOM     15  C   UNL     1       1.667   6.833  20.831  0.00  0.00    +0.000 A 
ATOM     16  C   UNL     1       1.786   5.538  20.303  0.00  0.00    +0.000 A 
ATOM     17  C   UNL     1       1.642   4.375  21.244  0.00  0.00    +0.000 C 
ATOM     18  C   UNL     1       2.045   5.411  18.926  0.00  0.00    +0.000 A 
ATOM     19  C   UNL     1       2.094   6.547  18.096  0.00  0.00    +0.000 A 
ENDBRANCH   9  18
ENDBRANCH   1   9
BRANCH   7  20
ATOM     20  C   UNL     1       5.039   4.104  15.971  0.00  0.00    +0.000 C 
BRANCH  20  21
ATOM     21  C   UNL     1       5.410   5.109  14.853  0.00  0.00    +0.000 C 
ATOM     22  C   UNL     1       5.311   6.578  15.260  0.00  0.00    +0.000 C 
ATOM     23  C   UNL     1       6.859   4.845  14.412  0.00  0.00    +0.000 C 
ENDBRANCH  20  21
ENDBRANCH   7  20
TORSDOF 4
ENDMDL
MODEL 5
REMARK VINA RESULT:      -6.5      1.718      3.230
REMARK  Name = 
REMARK  8 active torsions:
REMARK  status: ('A' for Active; 'I' for Inactive)
REMARK    1  A    between atoms: C_1  and  C_2
REMARK    2  A    between atoms: C_5  and  C_6
REMARK    3  A    between atoms: C_7  and  S_8
REMARK    4  A    between atoms: S_8  and  N_11
REMARK    5  A    between atoms: C_17  and  C_18
REMARK    6  A    between atoms: C_18  and  C_19
REMARK    7  A    between atoms: C_19  and  C_20
REMARK    8  A    between atoms: C_19  and  C_21
REMARK                            x       y       z     vdW  Elec       q    Type
REMARK                         _______ _______ _______ _____ _____    ______ ____
ROOT
ATOM      1  N   UNL     1       5.335   4.758  17.509  0.00  0.00    +0.000 N 
ATOM      2  C   UNL     1       6.353   5.660  17.876  0.00  0.00    +0.000 C 
ATOM      3  S   UNL     1       7.285   5.760  19.237  0.00  0.00    +0.000 S 
ATOM      4  N   UNL     1       6.483   6.539  16.858  0.00  0.00    +0.000 N 
ATOM      5  C   UNL     1       5.582   6.317  15.858  0.00  0.00    +0.000 C 
ATOM      6  O   UNL     1       5.420   7.054  14.897  0.00  0.00    +0.000 OA
ATOM      7  C   UNL     1       4.785   5.040  16.156  0.00  0.00    +0.000 C 
ATOM      8  H   UNL     1       7.101   7.334  16.874  0.00  0.00    +0.000 HD
ENDROOT
BRANCH   1   9
ATOM      9  S   UNL     1       4.531   3.637  18.469  0.00  0.00    +0.000 S 
ATOM     10  O   UNL     1       5.478   3.160  19.453  0.00  0.00    +0.000 OA
ATOM     11  O   UNL     1       3.829   2.708  17.602  0.00  0.00    +0.000 OA
BRANCH   9  18
ATOM     12  C   UNL     1       2.083   8.218  18.933  0.00  0.00    +0.000 C 
ATOM     13  C   UNL     1       2.216   6.805  19.422  0.00  0.00    +0.000 A 
ATOM     14  C   UNL     1       1.556   6.385  20.577  0.00  0.00    +0.000 A 
ATOM     15  C   UNL     1       1.709   5.078  21.048  0.00  0.00    +0.000 A 
ATOM     16  C   UNL     1       2.555   4.165  20.402  0.00  0.00    +0.000 A 
ATOM     17  C   UNL     1       2.657   2.775  20.964  0.00  0.00    +0.000 C 
ATOM     18  C   UNL     1       3.265   4.613  19.272  0.00  0.00    +0.000 A 
ATOM     19  C   UNL     1       3.061   5.908  18.762  0.00  0.00    +0.000 A 
ENDBRANCH   9  18
ENDBRANCH   1   9
BRANCH   7  20
ATOM     20  C   UNL     1       5.021   3.950  15.108  0.00  0.00    +0.000 C 
BRANCH  20  21
ATOM     21  C   UNL     1       5.564   4.318  13.706  0.00  0.00    +0.000 C 
ATOM     22  C   UNL     1       7.079   4.189  13.555  0.00  0.00    +0.000 C 
ATOM     23  C   UNL     1       4.913   3.391  12.666  0.00  0.00    +0.000 C 
ENDBRANCH  20  21
ENDBRANCH   7  20
TORSDOF 4
ENDMDL
MODEL 6
REMARK VINA RESULT:      -6.4      2.574      5.216
REMARK  Name = 
REMARK  8 active torsions:
REMARK  status: ('A' for Active; 'I' for Inactive)
REMARK    1  A    between atoms: C_1  and  C_2
REMARK    2  A    between atoms: C_5  and  C_6
REMARK    3  A    between atoms: C_7  and  S_8
REMARK    4  A    between atoms: S_8  and  N_11
REMARK    5  A    between atoms: C_17  and  C_18
REMARK    6  A    between atoms: C_18  and  C_19
REMARK    7  A    between atoms: C_19  and  C_20
REMARK    8  A    between atoms: C_19  and  C_21
REMARK                            x       y       z     vdW  Elec       q    Type
REMARK                         _______ _______ _______ _____ _____    ______ ____
ROOT
ATOM      1  N   UNL     1       2.779   3.997  19.301  0.00  0.00    +0.000 N 
ATOM      2  C   UNL     1       2.640   3.580  20.640  0.00  0.00    +0.000 C 
ATOM      3  S   UNL     1       3.025   2.157  21.386  0.00  0.00    +0.000 S 
ATOM      4  N   UNL     1       2.080   4.609  21.314  0.00  0.00    +0.000 N 
ATOM      5  C   UNL     1       1.786   5.667  20.505  0.00  0.00    +0.000 C 
ATOM      6  O   UNL     1       1.163   6.656  20.857  0.00  0.00    +0.000 OA
ATOM      7  C   UNL     1       2.314   5.395  19.090  0.00  0.00    +0.000 C 
ATOM      8  H   UNL     1       1.810   4.568  22.284  0.00  0.00    +0.000 HD
ENDROOT
BRANCH   1   9
ATOM      9  S   UNL     1       3.135   3.070  17.946  0.00  0.00    +0.000 S 
ATOM     10  O   UNL     1       2.069   3.279  16.992  0.00  0.00    +0.000 OA
ATOM     11  O   UNL     1       3.489   1.732  18.384  0.00  0.00    +0.000 OA
BRANCH   9  18
ATOM     12  C   UNL     1       6.084   4.398  13.855  0.00  0.00    +0.000 C 
ATOM     13  C   UNL     1       5.951   4.349  15.348  0.00  0.00    +0.000 A 
ATOM     14  C   UNL     1       7.040   4.638  16.172  0.00  0.00    +0.000 A 
ATOM     15  C   UNL     1       6.921   4.559  17.562  0.00  0.00    +0.000 A 
ATOM     16  C   UNL     1       5.724   4.151  18.169  0.00  0.00    +0.000 A 
ATOM     17  C   UNL     1       5.674   4.102  19.670  0.00  0.00    +0.000 C 
ATOM     18  C   UNL     1       4.648   3.802  17.332  0.00  0.00    +0.000 A 
ATOM     19  C   UNL     1       4.749   3.945  15.935  0.00  0.00    +0.000 A 
ENDBRANCH   9  18
ENDBRANCH   1   9
BRANCH   7  20
ATOM     20  C   UNL     1       3.397   6.393  18.671  0.00  0.00    +0.000 C 
BRANCH  20  21
ATOM     21  C   UNL     1       3.198   7.279  17.418  0.00  0.00    +0.000 C 
ATOM     22  C   UNL     1       2.561   8.640  17.694  0.00  0.00    +0.000 C 
ATOM     23  C   UNL     1       4.569   7.531  16.769  0.00  0.00    +0.000 C 
ENDBRANCH  20  21
ENDBRANCH   7  20
TORSDOF 4
ENDMDL
MODEL 7
REMARK VINA RESULT:      -6.4      2.070      3.396
REMARK  Name = 
REMARK  8 active torsions:
REMARK  status: ('A' for Active; 'I' for Inactive)
REMARK    1  A    between atoms: C_1  and  C_2
REMARK    2  A    between atoms: C_5  and  C_6
REMARK    3  A    between atoms: C_7  and  S_8
REMARK    4  A    between atoms: S_8  and  N_11
REMARK    5  A    between atoms: C_17  and  C_18
REMARK    6  A    between atoms: C_18  and  C_19
REMARK    7  A    between atoms: C_19  and  C_20
REMARK    8  A    between atoms: C_19  and  C_21
REMARK                            x       y       z     vdW  Elec       q    Type
REMARK                         _______ _______ _______ _____ _____    ______ ____
ROOT
ATOM      1  N   UNL     1       4.633   5.556  17.994  0.00  0.00    +0.000 N 
ATOM      2  C   UNL     1       3.631   6.535  18.146  0.00  0.00    +0.000 C 
ATOM      3  S   UNL     1       2.522   6.785  19.345  0.00  0.00    +0.000 S 
ATOM      4  N   UNL     1       3.696   7.332  17.057  0.00  0.00    +0.000 N 
ATOM      5  C   UNL     1       4.639   6.920  16.161  0.00  0.00    +0.000 C 
ATOM      6  O   UNL     1       4.795   7.402  15.050  0.00  0.00    +0.000 OA
ATOM      7  C   UNL     1       5.425   5.741  16.748  0.00  0.00    +0.000 C 
ATOM      8  H   UNL     1       3.054   8.086  16.871  0.00  0.00    +0.000 HD
ENDROOT
BRANCH   1   9
ATOM      9  S   UNL     1       4.851   4.134  18.864  0.00  0.00    +0.000 S 
ATOM     10  O   UNL     1       5.473   4.493  20.119  0.00  0.00    +0.000 OA
ATOM     11  O   UNL     1       5.458   3.148  17.989  0.00  0.00    +0.000 OA
BRANCH   9  18
ATOM     12  C   UNL     1       1.226   2.566  22.270  0.00  0.00    +0.000 C 
ATOM     13  C   UNL     1       1.578   2.824  20.834  0.00  0.00    +0.000 A 
ATOM     14  C   UNL     1       0.726   2.417  19.806  0.00  0.00    +0.000 A 
ATOM     15  C   UNL     1       1.073   2.629  18.469  0.00  0.00    +0.000 A 
ATOM     16  C   UNL     1       2.297   3.218  18.118  0.00  0.00    +0.000 A 
ATOM     17  C   UNL     1       2.591   3.421  16.659  0.00  0.00    +0.000 C 
ATOM     18  C   UNL     1       3.179   3.570  19.157  0.00  0.00    +0.000 A 
ATOM     19  C   UNL     1       2.800   3.415  20.504  0.00  0.00    +0.000 A 
ENDBRANCH   9  18
ENDBRANCH   1   9
BRANCH   7  20
ATOM     20  C   UNL     1       6.906   6.072  16.951  0.00  0.00    +0.000 C 
BRANCH  20  21
ATOM     21  C   UNL     1       7.359   6.904  18.176  0.00  0.00    +0.000 C 
ATOM     22  C   UNL     1       8.297   6.171  19.133  0.00  0.00    +0.000 C 
ATOM     23  C   UNL     1       8.093   8.159  17.675  0.00  0.00    +0.000 C 
ENDBRANCH  20  21
ENDBRANCH   7  20
TORSDOF 4
ENDMDL
MODEL 8
REMARK VINA RESULT:      -6.4      2.588      5.701
REMARK  Name = 
REMARK  8 active torsions:
REMARK  status: ('A' for Active; 'I' for Inactive)
REMARK    1  A    between atoms: C_1  and  C_2
REMARK    2  A    between atoms: C_5  and  C_6
REMARK    3  A    between atoms: C_7  and  S_8
REMARK    4  A    between atoms: S_8  and  N_11
REMARK    5  A    between atoms: C_17  and  C_18
REMARK    6  A    between atoms: C_18  and  C_19
REMARK    7  A    between atoms: C_19  and  C_20
REMARK    8  A    between atoms: C_19  and  C_21
REMARK                            x       y       z     vdW  Elec       q    Type
REMARK                         _______ _______ _______ _____ _____    ______ ____
ROOT
ATOM      1  N   UNL     1       3.462   6.030  17.660  0.00  0.00    +0.000 N 
ATOM      2  C   UNL     1       2.806   7.161  18.185  0.00  0.00    +0.000 C 
ATOM      3  S   UNL     1       2.876   8.757  17.766  0.00  0.00    +0.000 S 
ATOM      4  N   UNL     1       2.024   6.723  19.197  0.00  0.00    +0.000 N 
ATOM      5  C   UNL     1       2.155   5.384  19.419  0.00  0.00    +0.000 C 
ATOM      6  O   UNL     1       1.651   4.785  20.356  0.00  0.00    +0.000 OA
ATOM      7  C   UNL     1       3.063   4.771  18.345  0.00  0.00    +0.000 C 
ATOM      8  H   UNL     1       1.483   7.329  19.794  0.00  0.00    +0.000 HD
ENDROOT
BRANCH   1   9
ATOM      9  S   UNL     1       4.762   5.972  16.596  0.00  0.00    +0.000 S 
ATOM     10  O   UNL     1       4.527   6.972  15.579  0.00  0.00    +0.000 OA
ATOM     11  O   UNL     1       5.001   4.587  16.236  0.00  0.00    +0.000 OA
BRANCH   9  18
ATOM     12  C   UNL     1       8.443   9.501  17.690  0.00  0.00    +0.000 C 
ATOM     13  C   UNL     1       7.844   8.164  18.014  0.00  0.00    +0.000 A 
ATOM     14  C   UNL     1       8.489   7.286  18.886  0.00  0.00    +0.000 A 
ATOM     15  C   UNL     1       7.945   6.028  19.159  0.00  0.00    +0.000 A 
ATOM     16  C   UNL     1       6.762   5.595  18.540  0.00  0.00    +0.000 A 
ATOM     17  C   UNL     1       6.236   4.233  18.895  0.00  0.00    +0.000 C 
ATOM     18  C   UNL     1       6.150   6.461  17.615  0.00  0.00    +0.000 A 
ATOM     19  C   UNL     1       6.664   7.752  17.390  0.00  0.00    +0.000 A 
ENDBRANCH   9  18
ENDBRANCH   1   9
BRANCH   7  20
ATOM     20  C   UNL     1       2.327   3.751  17.473  0.00  0.00    +0.000 C 
BRANCH  20  21
ATOM     21  C   UNL     1       2.280   2.260  17.886  0.00  0.00    +0.000 C 
ATOM     22  C   UNL     1       3.469   1.792  18.724  0.00  0.00    +0.000 C 
ATOM     23  C   UNL     1       1.006   2.017  18.712  0.00  0.00    +0.000 C 
ENDBRANCH  20  21
ENDBRANCH   7  20
TORSDOF 4
ENDMDL
MODEL 9
REMARK VINA RESULT:      -6.3      2.048      5.204
REMARK  Name = 
REMARK  8 active torsions:
REMARK  status: ('A' for Active; 'I' for Inactive)
REMARK    1  A    between atoms: C_1  and  C_2
REMARK    2  A    between atoms: C_5  and  C_6
REMARK    3  A    between atoms: C_7  and  S_8
REMARK    4  A    between atoms: S_8  and  N_11
REMARK    5  A    between atoms: C_17  and  C_18
REMARK    6  A    between atoms: C_18  and  C_19
REMARK    7  A    between atoms: C_19  and  C_20
REMARK    8  A    between atoms: C_19  and  C_21
REMARK                            x       y       z     vdW  Elec       q    Type
REMARK                         _______ _______ _______ _____ _____    ______ ____
ROOT
ATOM      1  N   UNL     1       3.595   3.987  18.602  0.00  0.00    +0.000 N 
ATOM      2  C   UNL     1       3.096   2.690  18.369  0.00  0.00    +0.000 C 
ATOM      3  S   UNL     1       3.752   1.201  18.654  0.00  0.00    +0.000 S 
ATOM      4  N   UNL     1       1.873   2.836  17.813  0.00  0.00    +0.000 N 
ATOM      5  C   UNL     1       1.543   4.144  17.609  0.00  0.00    +0.000 C 
ATOM      6  O   UNL     1       0.551   4.521  17.006  0.00  0.00    +0.000 OA
ATOM      7  C   UNL     1       2.630   5.048  18.206  0.00  0.00    +0.000 C 
ATOM      8  H   UNL     1       1.307   2.069  17.486  0.00  0.00    +0.000 HD
ENDROOT
BRANCH   1   9
ATOM      9  S   UNL     1       5.161   4.453  18.999  0.00  0.00    +0.000 S 
ATOM     10  O   UNL     1       5.820   3.297  19.563  0.00  0.00    +0.000 OA
ATOM     11  O   UNL     1       5.097   5.704  19.733  0.00  0.00    +0.000 OA
BRANCH   9  18
ATOM     12  C   UNL     1       5.292   3.648  13.848  0.00  0.00    +0.000 C 
ATOM     13  C   UNL     1       5.879   4.370  15.025  0.00  0.00    +0.000 A 
ATOM     14  C   UNL     1       7.057   5.106  14.896  0.00  0.00    +0.000 A 
ATOM     15  C   UNL     1       7.618   5.750  16.003  0.00  0.00    +0.000 A 
ATOM     16  C   UNL     1       7.041   5.645  17.278  0.00  0.00    +0.000 A 
ATOM     17  C   UNL     1       7.700   6.375  18.414  0.00  0.00    +0.000 C 
ATOM     18  C   UNL     1       5.887   4.850  17.413  0.00  0.00    +0.000 A 
ATOM     19  C   UNL     1       5.288   4.257  16.287  0.00  0.00    +0.000 A 
ENDBRANCH   9  18
ENDBRANCH   1   9
BRANCH   7  20
ATOM     20  C   UNL     1       2.100   5.917  19.350  0.00  0.00    +0.000 C 
BRANCH  20  21
ATOM     21  C   UNL     1       2.357   7.443  19.355  0.00  0.00    +0.000 C 
ATOM     22  C   UNL     1       2.081   8.141  18.024  0.00  0.00    +0.000 C 
ATOM     23  C   UNL     1       1.454   8.092  20.417  0.00  0.00    +0.000 C 
ENDBRANCH  20  21
ENDBRANCH   7  20
TORSDOF 4
ENDMDL
