MODEL 1
REMARK VINA RESULT:      -8.1      0.000      0.000
REMARK  Name = 
REMARK  4 active torsions:
REMARK  status: ('A' for Active; 'I' for Inactive)
REMARK    1  A    between atoms: C_2  and  C_3
REMARK    2  A    between atoms: N_7  and  C_8
REMARK    3  A    between atoms: N_17  and  C_18
REMARK    4  A    between atoms: C_27  and  C_28
REMARK                            x       y       z     vdW  Elec       q    Type
REMARK                         _______ _______ _______ _____ _____    ______ ____
ROOT
ATOM      1  C   UNL     1       3.029   5.478  18.857  0.00  0.00    +0.000 A 
ATOM      2  C   UNL     1       2.783   4.624  19.964  0.00  0.00    +0.000 A 
ATOM      3  N   UNL     1       2.092   5.221  20.938  0.00  0.00    +0.000 NA
ATOM      4  N   UNL     1       1.880   6.450  20.453  0.00  0.00    +0.000 N 
ATOM      5  C   UNL     1       2.429   6.677  19.218  0.00  0.00    +0.000 A 
ATOM      6  C   UNL     1       2.370   8.035  18.597  0.00  0.00    +0.000 C 
ATOM      7  N   UNL     1       1.333   8.864  19.234  0.00  0.00    +0.000 N 
ATOM      8  C   UNL     1       0.275   9.197  18.379  0.00  0.00    +0.000 C 
ATOM      9  O   UNL     1       0.233   8.773  17.226  0.00  0.00    +0.000 OA
ATOM     10  N   UNL     1      -0.651  10.077  18.866  0.00  0.00    +0.000 N 
ATOM     11  C   UNL     1       1.462   8.835  20.728  0.00  0.00    +0.000 C 
ATOM     12  C   UNL     1       1.173   7.428  21.256  0.00  0.00    +0.000 C 
ATOM     13  H   UNL     1      -0.359  10.602  19.666  0.00  0.00    +0.000 HD
ENDROOT
BRANCH  10  14
ATOM     14  C   UNL     1      -1.793  10.593  18.194  0.00  0.00    +0.000 A 
ATOM     15  C   UNL     1      -2.055  10.447  16.823  0.00  0.00    +0.000 A 
ATOM     16  C   UNL     1      -3.215  10.995  16.267  0.00  0.00    +0.000 A 
ATOM     17  F   UNL     1      -3.446  10.850  14.952  0.00  0.00    +0.000 F 
ATOM     18  C   UNL     1      -4.124  11.688  17.050  0.00  0.00    +0.000 A 
ATOM     19  F   UNL     1      -5.237  12.207  16.510  0.00  0.00    +0.000 F 
ATOM     20  C   UNL     1      -3.868  11.839  18.401  0.00  0.00    +0.000 A 
ATOM     21  F   UNL     1      -4.728  12.510  19.180  0.00  0.00    +0.000 F 
ATOM     22  C   UNL     1      -2.714  11.299  18.976  0.00  0.00    +0.000 A 
ENDBRANCH  10  14
BRANCH   1  27
ATOM     23  C   UNL     1       5.135   5.376  15.789  0.00  0.00    +0.000 C 
ATOM     24  C   UNL     1       4.719   3.924  15.969  0.00  0.00    +0.000 C 
ATOM     25  C   UNL     1       3.628   3.988  17.004  0.00  0.00    +0.000 C 
ATOM     26  O   UNL     1       2.853   3.067  17.209  0.00  0.00    +0.000 OA
ATOM     27  N   UNL     1       3.747   5.202  17.692  0.00  0.00    +0.000 N 
ATOM     28  C   UNL     1       4.775   6.030  17.113  0.00  0.00    +0.000 C 
BRANCH  23  30
ATOM     29  N   UNL     1       7.689   5.638  15.238  0.00  0.00    +0.000 NA
ATOM     30  C   UNL     1       6.561   5.514  15.496  0.00  0.00    +0.000 C 
ENDBRANCH  23  30
ENDBRANCH   1  27
BRANCH  11  31
ATOM     31  C   UNL     1       0.793   9.897  21.573  0.00  0.00    +0.000 C 
ATOM     32  C   UNL     1      -0.617   9.662  22.092  0.00  0.00    +0.000 C 
ATOM     33  C   UNL     1       0.536   9.634  23.045  0.00  0.00    +0.000 C 
ENDBRANCH  11  31
TORSDOF 4
ENDMDL
MODEL 2
REMARK VINA RESULT:      -7.8      5.300      9.220
REMARK  Name = 
REMARK  4 active torsions:
REMARK  status: ('A' for Active; 'I' for Inactive)
REMARK    1  A    between atoms: C_2  and  C_3
REMARK    2  A    between atoms: N_7  and  C_8
REMARK    3  A    between atoms: N_17  and  C_18
REMARK    4  A    between atoms: C_27  and  C_28
REMARK                            x       y       z     vdW  Elec       q    Type
REMARK                         _______ _______ _______ _____ _____    ______ ____
ROOT
ATOM      1  C   UNL     1      -0.646  15.250  20.326  0.00  0.00    +0.000 A 
ATOM      2  C   UNL     1      -1.727  15.257  21.247  0.00  0.00    +0.000 A 
ATOM      3  N   UNL     1      -2.474  14.152  21.180  0.00  0.00    +0.000 NA
ATOM      4  N   UNL     1      -1.867  13.431  20.230  0.00  0.00    +0.000 N 
ATOM      5  C   UNL     1      -0.776  14.037  19.665  0.00  0.00    +0.000 A 
ATOM      6  C   UNL     1      -0.062  13.401  18.516  0.00  0.00    +0.000 C 
ATOM      7  N   UNL     1      -0.388  11.967  18.417  0.00  0.00    +0.000 N 
ATOM      8  C   UNL     1       0.705  11.125  18.653  0.00  0.00    +0.000 C 
ATOM      9  O   UNL     1       1.805  11.582  18.958  0.00  0.00    +0.000 OA
ATOM     10  N   UNL     1       0.504   9.789  18.442  0.00  0.00    +0.000 N 
ATOM     11  C   UNL     1      -1.870  11.747  18.468  0.00  0.00    +0.000 C 
ATOM     12  C   UNL     1      -2.418  12.147  19.839  0.00  0.00    +0.000 C 
ATOM     13  H   UNL     1      -0.302   9.561  17.895  0.00  0.00    +0.000 HD
ENDROOT
BRANCH  10  14
ATOM     14  C   UNL     1       1.452   8.738  18.580  0.00  0.00    +0.000 A 
ATOM     15  C   UNL     1       2.474   8.448  17.662  0.00  0.00    +0.000 A 
ATOM     16  C   UNL     1       3.354   7.389  17.901  0.00  0.00    +0.000 A 
ATOM     17  F   UNL     1       4.322   7.123  17.008  0.00  0.00    +0.000 F 
ATOM     18  C   UNL     1       3.239   6.609  19.040  0.00  0.00    +0.000 A 
ATOM     19  F   UNL     1       4.091   5.596  19.265  0.00  0.00    +0.000 F 
ATOM     20  C   UNL     1       2.231   6.886  19.946  0.00  0.00    +0.000 A 
ATOM     21  F   UNL     1       2.095   6.143  21.053  0.00  0.00    +0.000 F 
ATOM     22  C   UNL     1       1.341   7.941  19.725  0.00  0.00    +0.000 A 
ENDBRANCH  10  14
BRANCH   1  27
ATOM     23  C   UNL     1       2.202  17.645  20.236  0.00  0.00    +0.000 C 
ATOM     24  C   UNL     1       1.419  17.996  18.980  0.00  0.00    +0.000 C 
ATOM     25  C   UNL     1       0.114  17.267  19.155  0.00  0.00    +0.000 C 
ATOM     26  O   UNL     1      -0.882  17.522  18.497  0.00  0.00    +0.000 OA
ATOM     27  N   UNL     1       0.304  16.247  20.097  0.00  0.00    +0.000 N 
ATOM     28  C   UNL     1       1.625  16.308  20.671  0.00  0.00    +0.000 C 
BRANCH  23  30
ATOM     29  N   UNL     1       4.790  17.482  19.814  0.00  0.00    +0.000 NA
ATOM     30  C   UNL     1       3.640  17.548  19.986  0.00  0.00    +0.000 C 
ENDBRANCH  23  30
ENDBRANCH   1  27
BRANCH  11  31
ATOM     31  C   UNL     1      -2.465  10.441  17.989  0.00  0.00    +0.000 C 
ATOM     32  C   UNL     1      -3.658  10.462  17.046  0.00  0.00    +0.000 C 
ATOM     33  C   UNL     1      -2.319  10.037  16.534  0.00  0.00    +0.000 C 
ENDBRANCH  11  31
TORSDOF 4
ENDMDL
MODEL 3
REMARK VINA RESULT:      -7.8      0.178      1.456
REMARK  Name = 
REMARK  4 active torsions:
REMARK  status: ('A' for Active; 'I' for Inactive)
REMARK    1  A    between atoms: C_2  and  C_3
REMARK    2  A    between atoms: N_7  and  C_8
REMARK    3  A    between atoms: N_17  and  C_18
REMARK    4  A    between atoms: C_27  and  C_28
REMARK                            x       y       z     vdW  Elec       q    Type
REMARK                         _______ _______ _______ _____ _____    ______ ____
ROOT
ATOM      1  C   UNL     1       3.000   5.500  18.914  0.00  0.00    +0.000 A 
ATOM      2  C   UNL     1       2.756   4.626  20.006  0.00  0.00    +0.000 A 
ATOM      3  N   UNL     1       2.070   5.206  20.993  0.00  0.00    +0.000 NA
ATOM      4  N   UNL     1       1.859   6.444  20.532  0.00  0.00    +0.000 N 
ATOM      5  C   UNL     1       2.404   6.693  19.299  0.00  0.00    +0.000 A 
ATOM      6  C   UNL     1       2.346   8.062  18.704  0.00  0.00    +0.000 C 
ATOM      7  N   UNL     1       1.313   8.882  19.361  0.00  0.00    +0.000 N 
ATOM      8  C   UNL     1       0.253   9.233  18.516  0.00  0.00    +0.000 C 
ATOM      9  O   UNL     1       0.206   8.831  17.355  0.00  0.00    +0.000 OA
ATOM     10  N   UNL     1      -0.669  10.107  19.023  0.00  0.00    +0.000 N 
ATOM     11  C   UNL     1       1.447   8.825  20.853  0.00  0.00    +0.000 C 
ATOM     12  C   UNL     1       1.157   7.409  21.356  0.00  0.00    +0.000 C 
ATOM     13  H   UNL     1      -0.373  10.616  19.831  0.00  0.00    +0.000 HD
ENDROOT
BRANCH  10  14
ATOM     14  C   UNL     1      -1.813  10.637  18.365  0.00  0.00    +0.000 A 
ATOM     15  C   UNL     1      -2.834  11.372  18.989  0.00  0.00    +0.000 A 
ATOM     16  C   UNL     1      -3.914  11.850  18.241  0.00  0.00    +0.000 A 
ATOM     17  F   UNL     1      -4.884  12.545  18.858  0.00  0.00    +0.000 F 
ATOM     18  C   UNL     1      -4.000  11.612  16.880  0.00  0.00    +0.000 A 
ATOM     19  F   UNL     1      -5.038  12.078  16.168  0.00  0.00    +0.000 F 
ATOM     20  C   UNL     1      -3.000  10.884  16.260  0.00  0.00    +0.000 A 
ATOM     21  F   UNL     1      -3.063  10.635  14.945  0.00  0.00    +0.000 F 
ATOM     22  C   UNL     1      -1.912  10.398  16.990  0.00  0.00    +0.000 A 
ENDBRANCH  10  14
BRANCH   1  27
ATOM     23  C   UNL     1       5.113   5.443  15.851  0.00  0.00    +0.000 C 
ATOM     24  C   UNL     1       4.648   4.000  15.974  0.00  0.00    +0.000 C 
ATOM     25  C   UNL     1       3.556   4.062  17.007  0.00  0.00    +0.000 C 
ATOM     26  O   UNL     1       2.750   3.160  17.175  0.00  0.00    +0.000 OA
ATOM     27  N   UNL     1       3.713   5.244  17.741  0.00  0.00    +0.000 N 
ATOM     28  C   UNL     1       4.771   6.058  17.197  0.00  0.00    +0.000 C 
BRANCH  23  30
ATOM     29  N   UNL     1       7.678   5.624  15.313  0.00  0.00    +0.000 NA
ATOM     30  C   UNL     1       6.545   5.544  15.567  0.00  0.00    +0.000 C 
ENDBRANCH  23  30
ENDBRANCH   1  27
BRANCH  11  31
ATOM     31  C   UNL     1       0.784   9.872  21.720  0.00  0.00    +0.000 C 
ATOM     32  C   UNL     1      -0.645   9.657  22.192  0.00  0.00    +0.000 C 
ATOM     33  C   UNL     1       0.479   9.561  23.173  0.00  0.00    +0.000 C 
ENDBRANCH  11  31
TORSDOF 4
ENDMDL
MODEL 4
REMARK VINA RESULT:      -7.8      5.275      9.306
REMARK  Name = 
REMARK  4 active torsions:
REMARK  status: ('A' for Active; 'I' for Inactive)
REMARK    1  A    between atoms: C_2  and  C_3
REMARK    2  A    between atoms: N_7  and  C_8
REMARK    3  A    between atoms: N_17  and  C_18
REMARK    4  A    between atoms: C_27  and  C_28
REMARK                            x       y       z     vdW  Elec       q    Type
REMARK                         _______ _______ _______ _____ _____    ______ ____
ROOT
ATOM      1  C   UNL     1      -0.685  15.265  20.219  0.00  0.00    +0.000 A 
ATOM      2  C   UNL     1      -1.787  15.307  21.115  0.00  0.00    +0.000 A 
ATOM      3  N   UNL     1      -2.545  14.209  21.059  0.00  0.00    +0.000 NA
ATOM      4  N   UNL     1      -1.925  13.456  20.143  0.00  0.00    +0.000 N 
ATOM      5  C   UNL     1      -0.814  14.036  19.587  0.00  0.00    +0.000 A 
ATOM      6  C   UNL     1      -0.082  13.362  18.472  0.00  0.00    +0.000 C 
ATOM      7  N   UNL     1      -0.421  11.930  18.404  0.00  0.00    +0.000 N 
ATOM      8  C   UNL     1       0.657  11.083  18.686  0.00  0.00    +0.000 C 
ATOM      9  O   UNL     1       1.755  11.536  19.005  0.00  0.00    +0.000 OA
ATOM     10  N   UNL     1       0.446   9.744  18.506  0.00  0.00    +0.000 N 
ATOM     11  C   UNL     1      -1.906  11.727  18.426  0.00  0.00    +0.000 C 
ATOM     12  C   UNL     1      -2.481  12.169  19.773  0.00  0.00    +0.000 C 
ATOM     13  H   UNL     1      -0.350   9.510  17.946  0.00  0.00    +0.000 HD
ENDROOT
BRANCH  10  14
ATOM     14  C   UNL     1       1.378   8.687  18.694  0.00  0.00    +0.000 A 
ATOM     15  C   UNL     1       1.426   7.843  19.815  0.00  0.00    +0.000 A 
ATOM     16  C   UNL     1       2.387   6.831  19.893  0.00  0.00    +0.000 A 
ATOM     17  F   UNL     1       2.420   6.038  20.976  0.00  0.00    +0.000 F 
ATOM     18  C   UNL     1       3.306   6.639  18.875  0.00  0.00    +0.000 A 
ATOM     19  F   UNL     1       4.223   5.663  18.955  0.00  0.00    +0.000 F 
ATOM     20  C   UNL     1       3.268   7.471  17.770  0.00  0.00    +0.000 A 
ATOM     21  F   UNL     1       4.149   7.311  16.774  0.00  0.00    +0.000 F 
ATOM     22  C   UNL     1       2.314   8.488  17.673  0.00  0.00    +0.000 A 
ENDBRANCH  10  14
BRANCH   1  27
ATOM     23  C   UNL     1       2.156  17.668  20.168  0.00  0.00    +0.000 C 
ATOM     24  C   UNL     1       1.493  17.892  18.818  0.00  0.00    +0.000 C 
ATOM     25  C   UNL     1       0.178  17.170  18.940  0.00  0.00    +0.000 C 
ATOM     26  O   UNL     1      -0.754  17.354  18.172  0.00  0.00    +0.000 OA
ATOM     27  N   UNL     1       0.281  16.245  19.986  0.00  0.00    +0.000 N 
ATOM     28  C   UNL     1       1.543  16.372  20.671  0.00  0.00    +0.000 C 
BRANCH  23  30
ATOM     29  N   UNL     1       4.768  17.497  19.954  0.00  0.00    +0.000 NA
ATOM     30  C   UNL     1       3.611  17.563  20.062  0.00  0.00    +0.000 C 
ENDBRANCH  23  30
ENDBRANCH   1  27
BRANCH  11  31
ATOM     31  C   UNL     1      -2.505  10.415  17.968  0.00  0.00    +0.000 C 
ATOM     32  C   UNL     1      -3.718  10.425  17.051  0.00  0.00    +0.000 C 
ATOM     33  C   UNL     1      -2.387  10.002  16.513  0.00  0.00    +0.000 C 
ENDBRANCH  11  31
TORSDOF 4
ENDMDL
MODEL 5
REMARK VINA RESULT:      -7.8      5.969      9.879
REMARK  Name = 
REMARK  4 active torsions:
REMARK  status: ('A' for Active; 'I' for Inactive)
REMARK    1  A    between atoms: C_2  and  C_3
REMARK    2  A    between atoms: N_7  and  C_8
REMARK    3  A    between atoms: N_17  and  C_18
REMARK    4  A    between atoms: C_27  and  C_28
REMARK                            x       y       z     vdW  Elec       q    Type
REMARK                         _______ _______ _______ _____ _____    ______ ____
ROOT
ATOM      1  C   UNL     1      -4.359  12.915  21.999  0.00  0.00    +0.000 A 
ATOM      2  C   UNL     1      -4.402  12.647  23.393  0.00  0.00    +0.000 A 
ATOM      3  N   UNL     1      -3.282  12.081  23.849  0.00  0.00    +0.000 NA
ATOM      4  N   UNL     1      -2.515  11.999  22.755  0.00  0.00    +0.000 N 
ATOM      5  C   UNL     1      -3.105  12.465  21.610  0.00  0.00    +0.000 A 
ATOM      6  C   UNL     1      -2.414  12.337  20.291  0.00  0.00    +0.000 C 
ATOM      7  N   UNL     1      -0.971  12.097  20.470  0.00  0.00    +0.000 N 
ATOM      8  C   UNL     1      -0.166  13.141  19.999  0.00  0.00    +0.000 C 
ATOM      9  O   UNL     1      -0.661  14.164  19.531  0.00  0.00    +0.000 OA
ATOM     10  N   UNL     1       1.185  12.923  20.008  0.00  0.00    +0.000 N 
ATOM     11  C   UNL     1      -0.727  10.985  21.445  0.00  0.00    +0.000 C 
ATOM     12  C   UNL     1      -1.200  11.394  22.842  0.00  0.00    +0.000 C 
ATOM     13  H   UNL     1       1.460  11.965  20.095  0.00  0.00    +0.000 HD
ENDROOT
BRANCH  10  14
ATOM     14  C   UNL     1       2.207  13.804  19.560  0.00  0.00    +0.000 A 
ATOM     15  C   UNL     1       2.338  14.285  18.248  0.00  0.00    +0.000 A 
ATOM     16  C   UNL     1       3.385  15.152  17.918  0.00  0.00    +0.000 A 
ATOM     17  F   UNL     1       3.496  15.598  16.657  0.00  0.00    +0.000 F 
ATOM     18  C   UNL     1       4.307  15.552  18.871  0.00  0.00    +0.000 A 
ATOM     19  F   UNL     1       5.306  16.387  18.548  0.00  0.00    +0.000 F 
ATOM     20  C   UNL     1       4.186  15.075  20.164  0.00  0.00    +0.000 A 
ATOM     21  F   UNL     1       5.069  15.442  21.104  0.00  0.00    +0.000 F 
ATOM     22  C   UNL     1       3.147  14.209  20.514  0.00  0.00    +0.000 A 
ENDBRANCH  10  14
BRANCH   1  27
ATOM     23  C   UNL     1      -6.738  14.949  19.986  0.00  0.00    +0.000 C 
ATOM     24  C   UNL     1      -7.138  13.521  19.649  0.00  0.00    +0.000 C 
ATOM     25  C   UNL     1      -6.411  12.693  20.675  0.00  0.00    +0.000 C 
ATOM     26  O   UNL     1      -6.696  11.530  20.912  0.00  0.00    +0.000 OA
ATOM     27  N   UNL     1      -5.358  13.459  21.190  0.00  0.00    +0.000 N 
ATOM     28  C   UNL     1      -5.390  14.804  20.672  0.00  0.00    +0.000 C 
BRANCH  23  30
ATOM     29  N   UNL     1      -6.595  16.468  17.848  0.00  0.00    +0.000 NA
ATOM     30  C   UNL     1      -6.642  15.794  18.796  0.00  0.00    +0.000 C 
ENDBRANCH  23  30
ENDBRANCH   1  27
BRANCH  11  31
ATOM     31  C   UNL     1       0.617  10.292  21.492  0.00  0.00    +0.000 C 
ATOM     32  C   UNL     1       0.676   8.789  21.715  0.00  0.00    +0.000 C 
ATOM     33  C   UNL     1       1.017   9.351  20.371  0.00  0.00    +0.000 C 
ENDBRANCH  11  31
TORSDOF 4
ENDMDL
MODEL 6
REMARK VINA RESULT:      -7.7      4.867     10.089
REMARK  Name = 
REMARK  4 active torsions:
REMARK  status: ('A' for Active; 'I' for Inactive)
REMARK    1  A    between atoms: C_2  and  C_3
REMARK    2  A    between atoms: N_7  and  C_8
REMARK    3  A    between atoms: N_17  and  C_18
REMARK    4  A    between atoms: C_27  and  C_28
REMARK                            x       y       z     vdW  Elec       q    Type
REMARK                         _______ _______ _______ _____ _____    ______ ____
ROOT
ATOM      1  C   UNL     1      -4.614  12.917  21.263  0.00  0.00    +0.000 A 
ATOM      2  C   UNL     1      -5.883  12.412  20.873  0.00  0.00    +0.000 A 
ATOM      3  N   UNL     1      -5.843  11.741  19.720  0.00  0.00    +0.000 NA
ATOM      4  N   UNL     1      -4.551  11.799  19.376  0.00  0.00    +0.000 N 
ATOM      5  C   UNL     1      -3.762  12.503  20.248  0.00  0.00    +0.000 A 
ATOM      6  C   UNL     1      -2.320  12.748  19.940  0.00  0.00    +0.000 C 
ATOM      7  N   UNL     1      -1.832  11.814  18.911  0.00  0.00    +0.000 N 
ATOM      8  C   UNL     1      -0.856  10.924  19.378  0.00  0.00    +0.000 C 
ATOM      9  O   UNL     1      -0.506  10.927  20.557  0.00  0.00    +0.000 OA
ATOM     10  N   UNL     1      -0.262  10.123  18.443  0.00  0.00    +0.000 N 
ATOM     11  C   UNL     1      -2.754  11.782  17.730  0.00  0.00    +0.000 C 
ATOM     12  C   UNL     1      -4.110  11.197  18.133  0.00  0.00    +0.000 C 
ATOM     13  H   UNL     1      -0.377  10.419  17.494  0.00  0.00    +0.000 HD
ENDROOT
BRANCH  10  14
ATOM     14  C   UNL     1       0.767   9.164  18.652  0.00  0.00    +0.000 A 
ATOM     15  C   UNL     1       1.759   8.829  17.715  0.00  0.00    +0.000 A 
ATOM     16  C   UNL     1       2.727   7.871  18.029  0.00  0.00    +0.000 A 
ATOM     17  F   UNL     1       3.663   7.560  17.118  0.00  0.00    +0.000 F 
ATOM     18  C   UNL     1       2.730   7.236  19.260  0.00  0.00    +0.000 A 
ATOM     19  F   UNL     1       3.666   6.321  19.556  0.00  0.00    +0.000 F 
ATOM     20  C   UNL     1       1.753   7.558  20.184  0.00  0.00    +0.000 A 
ATOM     21  F   UNL     1       1.730   6.955  21.381  0.00  0.00    +0.000 F 
ATOM     22  C   UNL     1       0.776   8.514  19.890  0.00  0.00    +0.000 A 
ENDBRANCH  10  14
BRANCH   1  27
ATOM     23  C   UNL     1      -3.870  15.496  23.841  0.00  0.00    +0.000 C 
ATOM     24  C   UNL     1      -3.831  14.198  24.633  0.00  0.00    +0.000 C 
ATOM     25  C   UNL     1      -3.817  13.130  23.572  0.00  0.00    +0.000 C 
ATOM     26  O   UNL     1      -3.505  11.973  23.800  0.00  0.00    +0.000 OA
ATOM     27  N   UNL     1      -4.294  13.690  22.380  0.00  0.00    +0.000 N 
ATOM     28  C   UNL     1      -4.520  15.107  22.524  0.00  0.00    +0.000 C 
BRANCH  23  30
ATOM     29  N   UNL     1      -5.238  17.389  25.041  0.00  0.00    +0.000 NA
ATOM     30  C   UNL     1      -4.633  16.541  24.523  0.00  0.00    +0.000 C 
ENDBRANCH  23  30
ENDBRANCH   1  27
BRANCH  11  31
ATOM     31  C   UNL     1      -2.280  11.228  16.405  0.00  0.00    +0.000 C 
ATOM     32  C   UNL     1      -2.627   9.797  16.024  0.00  0.00    +0.000 C 
ATOM     33  C   UNL     1      -3.287  10.933  15.309  0.00  0.00    +0.000 C 
ENDBRANCH  11  31
TORSDOF 4
ENDMDL
MODEL 7
REMARK VINA RESULT:      -7.6      6.324      9.670
REMARK  Name = 
REMARK  4 active torsions:
REMARK  status: ('A' for Active; 'I' for Inactive)
REMARK    1  A    between atoms: C_2  and  C_3
REMARK    2  A    between atoms: N_7  and  C_8
REMARK    3  A    between atoms: N_17  and  C_18
REMARK    4  A    between atoms: C_27  and  C_28
REMARK                            x       y       z     vdW  Elec       q    Type
REMARK                         _______ _______ _______ _____ _____    ______ ____
ROOT
ATOM      1  C   UNL     1      -5.048  12.892  20.471  0.00  0.00    +0.000 A 
ATOM      2  C   UNL     1      -5.466  12.982  21.826  0.00  0.00    +0.000 A 
ATOM      3  N   UNL     1      -4.483  12.723  22.691  0.00  0.00    +0.000 NA
ATOM      4  N   UNL     1      -3.432  12.484  21.897  0.00  0.00    +0.000 N 
ATOM      5  C   UNL     1      -3.705  12.552  20.556  0.00  0.00    +0.000 A 
ATOM      6  C   UNL     1      -2.659  12.200  19.548  0.00  0.00    +0.000 C 
ATOM      7  N   UNL     1      -1.314  12.232  20.147  0.00  0.00    +0.000 N 
ATOM      8  C   UNL     1      -0.488  13.232  19.619  0.00  0.00    +0.000 C 
ATOM      9  O   UNL     1      -0.904  14.018  18.771  0.00  0.00    +0.000 OA
ATOM     10  N   UNL     1       0.816  13.229  20.032  0.00  0.00    +0.000 N 
ATOM     11  C   UNL     1      -1.275  11.452  21.427  0.00  0.00    +0.000 C 
ATOM     12  C   UNL     1      -2.155  12.124  22.483  0.00  0.00    +0.000 C 
ATOM     13  H   UNL     1       1.126  12.376  20.454  0.00  0.00    +0.000 HD
ENDROOT
BRANCH  10  14
ATOM     14  C   UNL     1       1.855  14.110  19.627  0.00  0.00    +0.000 A 
ATOM     15  C   UNL     1       2.922  13.765  18.782  0.00  0.00    +0.000 A 
ATOM     16  C   UNL     1       3.890  14.716  18.446  0.00  0.00    +0.000 A 
ATOM     17  F   UNL     1       4.906  14.365  17.641  0.00  0.00    +0.000 F 
ATOM     18  C   UNL     1       3.818  16.010  18.934  0.00  0.00    +0.000 A 
ATOM     19  F   UNL     1       4.748  16.919  18.603  0.00  0.00    +0.000 F 
ATOM     20  C   UNL     1       2.772  16.355  19.771  0.00  0.00    +0.000 A 
ATOM     21  F   UNL     1       2.682  17.599  20.262  0.00  0.00    +0.000 F 
ATOM     22  C   UNL     1       1.794  15.419  20.119  0.00  0.00    +0.000 A 
ENDBRANCH  10  14
BRANCH   1  27
ATOM     23  C   UNL     1      -7.198  13.948  17.622  0.00  0.00    +0.000 C 
ATOM     24  C   UNL     1      -6.697  12.580  17.186  0.00  0.00    +0.000 C 
ATOM     25  C   UNL     1      -6.088  12.004  18.436  0.00  0.00    +0.000 C 
ATOM     26  O   UNL     1      -5.833  10.817  18.563  0.00  0.00    +0.000 OA
ATOM     27  N   UNL     1      -5.813  13.059  19.316  0.00  0.00    +0.000 N 
ATOM     28  C   UNL     1      -6.306  14.311  18.798  0.00  0.00    +0.000 C 
BRANCH  23  30
ATOM     29  N   UNL     1      -7.018  15.755  15.725  0.00  0.00    +0.000 NA
ATOM     30  C   UNL     1      -7.102  14.943  16.555  0.00  0.00    +0.000 C 
ENDBRANCH  23  30
ENDBRANCH   1  27
BRANCH  11  31
ATOM     31  C   UNL     1       0.048  11.003  22.007  0.00  0.00    +0.000 C 
ATOM     32  C   UNL     1       0.141   9.652  22.700  0.00  0.00    +0.000 C 
ATOM     33  C   UNL     1       0.795   9.847  21.369  0.00  0.00    +0.000 C 
ENDBRANCH  11  31
TORSDOF 4
ENDMDL
MODEL 8
REMARK VINA RESULT:      -7.6      4.938     10.205
REMARK  Name = 
REMARK  4 active torsions:
REMARK  status: ('A' for Active; 'I' for Inactive)
REMARK    1  A    between atoms: C_2  and  C_3
REMARK    2  A    between atoms: N_7  and  C_8
REMARK    3  A    between atoms: N_17  and  C_18
REMARK    4  A    between atoms: C_27  and  C_28
REMARK                            x       y       z     vdW  Elec       q    Type
REMARK                         _______ _______ _______ _____ _____    ______ ____
ROOT
ATOM      1  C   UNL     1      -4.399  13.167  21.416  0.00  0.00    +0.000 A 
ATOM      2  C   UNL     1      -5.693  12.722  21.034  0.00  0.00    +0.000 A 
ATOM      3  N   UNL     1      -5.688  12.025  19.896  0.00  0.00    +0.000 NA
ATOM      4  N   UNL     1      -4.394  12.008  19.554  0.00  0.00    +0.000 N 
ATOM      5  C   UNL     1      -3.569  12.687  20.412  0.00  0.00    +0.000 A 
ATOM      6  C   UNL     1      -2.116  12.848  20.103  0.00  0.00    +0.000 C 
ATOM      7  N   UNL     1      -1.677  11.867  19.096  0.00  0.00    +0.000 N 
ATOM      8  C   UNL     1      -0.751  10.937  19.584  0.00  0.00    +0.000 C 
ATOM      9  O   UNL     1      -0.402  10.946  20.763  0.00  0.00    +0.000 OA
ATOM     10  N   UNL     1      -0.199  10.085  18.667  0.00  0.00    +0.000 N 
ATOM     11  C   UNL     1      -2.598  11.859  17.913  0.00  0.00    +0.000 C 
ATOM     12  C   UNL     1      -3.983  11.356  18.326  0.00  0.00    +0.000 C 
ATOM     13  H   UNL     1      -0.296  10.367  17.712  0.00  0.00    +0.000 HD
ENDROOT
BRANCH  10  14
ATOM     14  C   UNL     1       0.778   9.078  18.899  0.00  0.00    +0.000 A 
ATOM     15  C   UNL     1       0.873   8.300  20.064  0.00  0.00    +0.000 A 
ATOM     16  C   UNL     1       1.875   7.333  20.184  0.00  0.00    +0.000 A 
ATOM     17  F   UNL     1       1.953   6.603  21.308  0.00  0.00    +0.000 F 
ATOM     18  C   UNL     1       2.788   7.122  19.164  0.00  0.00    +0.000 A 
ATOM     19  F   UNL     1       3.745   6.188  19.285  0.00  0.00    +0.000 F 
ATOM     20  C   UNL     1       2.703   7.889  18.017  0.00  0.00    +0.000 A 
ATOM     21  F   UNL     1       3.579   7.709  17.018  0.00  0.00    +0.000 F 
ATOM     22  C   UNL     1       1.708   8.861  17.877  0.00  0.00    +0.000 A 
ENDBRANCH  10  14
BRANCH   1  27
ATOM     23  C   UNL     1      -3.612  15.759  23.969  0.00  0.00    +0.000 C 
ATOM     24  C   UNL     1      -3.434  14.457  24.735  0.00  0.00    +0.000 C 
ATOM     25  C   UNL     1      -3.439  13.404  23.660  0.00  0.00    +0.000 C 
ATOM     26  O   UNL     1      -3.040  12.265  23.845  0.00  0.00    +0.000 OA
ATOM     27  N   UNL     1      -4.040  13.947  22.517  0.00  0.00    +0.000 N 
ATOM     28  C   UNL     1      -4.339  15.345  22.700  0.00  0.00    +0.000 C 
BRANCH  23  30
ATOM     29  N   UNL     1      -4.972  17.555  25.320  0.00  0.00    +0.000 NA
ATOM     30  C   UNL     1      -4.381  16.748  24.725  0.00  0.00    +0.000 C 
ENDBRANCH  23  30
ENDBRANCH   1  27
BRANCH  11  31
ATOM     31  C   UNL     1      -2.152  11.252  16.601  0.00  0.00    +0.000 C 
ATOM     32  C   UNL     1      -2.570   9.832  16.253  0.00  0.00    +0.000 C 
ATOM     33  C   UNL     1      -3.173  10.982  15.512  0.00  0.00    +0.000 C 
ENDBRANCH  11  31
TORSDOF 4
ENDMDL
MODEL 9
REMARK VINA RESULT:      -7.6      6.509      9.865
REMARK  Name = 
REMARK  4 active torsions:
REMARK  status: ('A' for Active; 'I' for Inactive)
REMARK    1  A    between atoms: C_2  and  C_3
REMARK    2  A    between atoms: N_7  and  C_8
REMARK    3  A    between atoms: N_17  and  C_18
REMARK    4  A    between atoms: C_27  and  C_28
REMARK                            x       y       z     vdW  Elec       q    Type
REMARK                         _______ _______ _______ _____ _____    ______ ____
ROOT
ATOM      1  C   UNL     1      -5.253  12.940  20.525  0.00  0.00    +0.000 A 
ATOM      2  C   UNL     1      -5.739  13.008  21.857  0.00  0.00    +0.000 A 
ATOM      3  N   UNL     1      -4.798  12.752  22.768  0.00  0.00    +0.000 NA
ATOM      4  N   UNL     1      -3.706  12.534  22.026  0.00  0.00    +0.000 N 
ATOM      5  C   UNL     1      -3.912  12.614  20.673  0.00  0.00    +0.000 A 
ATOM      6  C   UNL     1      -2.812  12.287  19.716  0.00  0.00    +0.000 C 
ATOM      7  N   UNL     1      -1.499  12.328  20.382  0.00  0.00    +0.000 N 
ATOM      8  C   UNL     1      -0.660  13.344  19.908  0.00  0.00    +0.000 C 
ATOM      9  O   UNL     1      -1.043  14.135  19.048  0.00  0.00    +0.000 OA
ATOM     10  N   UNL     1       0.621  13.352  20.386  0.00  0.00    +0.000 N 
ATOM     11  C   UNL     1      -1.515  11.534  21.653  0.00  0.00    +0.000 C 
ATOM     12  C   UNL     1      -2.455  12.183  22.671  0.00  0.00    +0.000 C 
ATOM     13  H   UNL     1       0.921  12.498  20.813  0.00  0.00    +0.000 HD
ENDROOT
BRANCH  10  14
ATOM     14  C   UNL     1       1.668  14.250  20.043  0.00  0.00    +0.000 A 
ATOM     15  C   UNL     1       1.780  15.571  20.506  0.00  0.00    +0.000 A 
ATOM     16  C   UNL     1       2.857  16.368  20.105  0.00  0.00    +0.000 A 
ATOM     17  F   UNL     1       2.944  17.631  20.554  0.00  0.00    +0.000 F 
ATOM     18  C   UNL     1       3.830  15.876  19.250  0.00  0.00    +0.000 A 
ATOM     19  F   UNL     1       4.863  16.645  18.874  0.00  0.00    +0.000 F 
ATOM     20  C   UNL     1       3.721  14.577  18.787  0.00  0.00    +0.000 A 
ATOM     21  F   UNL     1       4.646  14.079  17.954  0.00  0.00    +0.000 F 
ATOM     22  C   UNL     1       2.653  13.765  19.176  0.00  0.00    +0.000 A 
ENDBRANCH  10  14
BRANCH   1  27
ATOM     23  C   UNL     1      -7.271  14.003  17.584  0.00  0.00    +0.000 C 
ATOM     24  C   UNL     1      -6.728  12.648  17.156  0.00  0.00    +0.000 C 
ATOM     25  C   UNL     1      -6.175  12.064  18.428  0.00  0.00    +0.000 C 
ATOM     26  O   UNL     1      -5.909  10.879  18.553  0.00  0.00    +0.000 OA
ATOM     27  N   UNL     1      -5.961  13.111  19.334  0.00  0.00    +0.000 N 
ATOM     28  C   UNL     1      -6.446  14.362  18.808  0.00  0.00    +0.000 C 
BRANCH  23  30
ATOM     29  N   UNL     1      -7.041  15.837  15.718  0.00  0.00    +0.000 NA
ATOM     30  C   UNL     1      -7.136  15.013  16.535  0.00  0.00    +0.000 C 
ENDBRANCH  23  30
ENDBRANCH   1  27
BRANCH  11  31
ATOM     31  C   UNL     1      -0.217  11.094  22.295  0.00  0.00    +0.000 C 
ATOM     32  C   UNL     1      -0.120   9.707  22.911  0.00  0.00    +0.000 C 
ATOM     33  C   UNL     1       0.613  10.005  21.641  0.00  0.00    +0.000 C 
ENDBRANCH  11  31
TORSDOF 4
ENDMDL
