MODEL 1
REMARK VINA RESULT:      -5.8      0.000      0.000
REMARK  Name = 
REMARK  9 active torsions:
REMARK  status: ('A' for Active; 'I' for Inactive)
REMARK    1  A    between atoms: C_1  and  O_2
REMARK    2  A    between atoms: O_2  and  C_3
REMARK    3  A    between atoms: C_6  and  C_7
REMARK    4  A    between atoms: C_8  and  C_9
REMARK    5  A    between atoms: C_11  and  N_12
REMARK    6  A    between atoms: C_16  and  C_17
REMARK    7  A    between atoms: C_19  and  O_20
REMARK    8  A    between atoms: C_23  and  O_24
REMARK    9  A    between atoms: O_24  and  C_25
REMARK                            x       y       z     vdW  Elec       q    Type
REMARK                         _______ _______ _______ _____ _____    ______ ____
ROOT
ATOM      1  C   UNL     1      -0.370  10.778  20.441  0.00  0.00    +0.000 C 
ATOM      2  C   UNL     1      -0.521  10.580  21.931  0.00  0.00    +0.000 C 
ATOM      3  C   UNL     1       0.133   9.618  22.602  0.00  0.00    +0.000 C 
ATOM      4  O   UNL     1       1.036   8.766  21.965  0.00  0.00    +0.000 OA
ATOM      5  C   UNL     1       1.169   8.813  20.594  0.00  0.00    +0.000 A 
ATOM      6  C   UNL     1       2.056   7.924  19.993  0.00  0.00    +0.000 A 
ATOM      7  C   UNL     1       2.194   7.956  18.606  0.00  0.00    +0.000 A 
ATOM      8  C   UNL     1       3.184   7.089  17.898  0.00  0.00    +0.000 C 
ATOM      9  N   UNL     1       1.474   8.789  17.819  0.00  0.00    +0.000 NA
ATOM     10  C   UNL     1       0.640   9.626  18.442  0.00  0.00    +0.000 A 
ATOM     11  C   UNL     1       0.471   9.718  19.811  0.00  0.00    +0.000 A 
ENDROOT
BRANCH   1  15
ATOM     12  C   UNL     1       1.161  14.758  19.645  0.00  0.00    +0.000 A 
ATOM     13  C   UNL     1      -0.141  14.394  19.268  0.00  0.00    +0.000 A 
ATOM     14  C   UNL     1      -0.643  13.128  19.547  0.00  0.00    +0.000 A 
ATOM     15  C   UNL     1       0.176  12.169  20.140  0.00  0.00    +0.000 A 
ATOM     16  C   UNL     1       1.508  12.504  20.429  0.00  0.00    +0.000 A 
ATOM     17  C   UNL     1       2.012  13.788  20.196  0.00  0.00    +0.000 A 
BRANCH  12  19
ATOM     18  C   UNL     1       1.179  16.974  20.455  0.00  0.00    +0.000 C 
ATOM     19  O   UNL     1       1.609  16.040  19.462  0.00  0.00    +0.000 OA
ENDBRANCH  12  19
BRANCH  17  20
ATOM     20  O   UNL     1       3.318  13.889  20.587  0.00  0.00    +0.000 OA
ATOM     21  C   UNL     1       3.626  14.486  21.834  0.00  0.00    +0.000 C 
ENDBRANCH  17  20
ENDBRANCH   1  15
BRANCH   3  22
ATOM     22  N   UNL     1      -0.005   9.366  23.947  0.00  0.00    +0.000 N 
ATOM     23  H   UNL     1      -0.750   8.721  24.204  0.00  0.00    +0.000 HD
ATOM     24  H   UNL     1      -0.011  10.222  24.495  0.00  0.00    +0.000 HD
ENDBRANCH   3  22
BRANCH   2  25
ATOM     25  C   UNL     1      -1.490  11.552  22.585  0.00  0.00    +0.000 C 
ATOM     26  N   UNL     1      -2.295  12.357  23.129  0.00  0.00    +0.000 NA
ENDBRANCH   2  25
BRANCH  10  27
ATOM     27  O   UNL     1      -0.050  10.424  17.590  0.00  0.00    +0.000 OA
ATOM     28  H   UNL     1       0.688  10.943  17.215  0.00  0.00    +0.000 HD
ENDBRANCH  10  27
TORSDOF 6
ENDMDL
MODEL 2
REMARK VINA RESULT:      -5.8      5.071      7.822
REMARK  Name = 
REMARK  9 active torsions:
REMARK  status: ('A' for Active; 'I' for Inactive)
REMARK    1  A    between atoms: C_1  and  O_2
REMARK    2  A    between atoms: O_2  and  C_3
REMARK    3  A    between atoms: C_6  and  C_7
REMARK    4  A    between atoms: C_8  and  C_9
REMARK    5  A    between atoms: C_11  and  N_12
REMARK    6  A    between atoms: C_16  and  C_17
REMARK    7  A    between atoms: C_19  and  O_20
REMARK    8  A    between atoms: C_23  and  O_24
REMARK    9  A    between atoms: O_24  and  C_25
REMARK                            x       y       z     vdW  Elec       q    Type
REMARK                         _______ _______ _______ _____ _____    ______ ____
ROOT
ATOM      1  C   UNL     1       2.338   6.137  18.338  0.00  0.00    +0.000 C 
ATOM      2  C   UNL     1       2.175   7.460  19.049  0.00  0.00    +0.000 C 
ATOM      3  C   UNL     1       1.942   7.547  20.368  0.00  0.00    +0.000 C 
ATOM      4  O   UNL     1       1.883   6.412  21.178  0.00  0.00    +0.000 OA
ATOM      5  C   UNL     1       1.929   5.161  20.604  0.00  0.00    +0.000 A 
ATOM      6  C   UNL     1       1.834   4.053  21.443  0.00  0.00    +0.000 A 
ATOM      7  C   UNL     1       1.871   2.781  20.874  0.00  0.00    +0.000 A 
ATOM      8  C   UNL     1       1.856   1.546  21.716  0.00  0.00    +0.000 C 
ATOM      9  N   UNL     1       1.958   2.580  19.538  0.00  0.00    +0.000 NA
ATOM     10  C   UNL     1       2.052   3.672  18.776  0.00  0.00    +0.000 A 
ATOM     11  C   UNL     1       2.084   4.975  19.241  0.00  0.00    +0.000 A 
ENDROOT
BRANCH   1  15
ATOM     12  C   UNL     1       6.272   5.936  16.520  0.00  0.00    +0.000 A 
ATOM     13  C   UNL     1       5.163   6.411  15.800  0.00  0.00    +0.000 A 
ATOM     14  C   UNL     1       3.908   6.503  16.390  0.00  0.00    +0.000 A 
ATOM     15  C   UNL     1       3.715   6.044  17.691  0.00  0.00    +0.000 A 
ATOM     16  C   UNL     1       4.802   5.480  18.377  0.00  0.00    +0.000 A 
ATOM     17  C   UNL     1       6.081   5.425  17.812  0.00  0.00    +0.000 A 
BRANCH  12  19
ATOM     18  C   UNL     1       7.658   5.183  14.766  0.00  0.00    +0.000 C 
ATOM     19  O   UNL     1       7.524   5.951  15.964  0.00  0.00    +0.000 OA
ENDBRANCH  12  19
BRANCH  17  20
ATOM     20  O   UNL     1       6.983   4.867  18.675  0.00  0.00    +0.000 OA
ATOM     21  C   UNL     1       7.846   5.710  19.418  0.00  0.00    +0.000 C 
ENDBRANCH  17  20
ENDBRANCH   1  15
BRANCH   3  22
ATOM     22  N   UNL     1       1.740   8.722  21.054  0.00  0.00    +0.000 N 
ATOM     23  H   UNL     1       0.845   8.809  21.532  0.00  0.00    +0.000 HD
ATOM     24  H   UNL     1       1.972   9.535  20.490  0.00  0.00    +0.000 HD
ENDBRANCH   3  22
BRANCH   2  25
ATOM     25  C   UNL     1       2.279   8.667  18.131  0.00  0.00    +0.000 C 
ATOM     26  N   UNL     1       2.365   9.668  17.369  0.00  0.00    +0.000 NA
ENDBRANCH   2  25
BRANCH  10  27
ATOM     27  O   UNL     1       2.129   3.393  17.451  0.00  0.00    +0.000 OA
ATOM     28  H   UNL     1       1.760   4.221  17.086  0.00  0.00    +0.000 HD
ENDBRANCH  10  27
TORSDOF 6
ENDMDL
MODEL 3
REMARK VINA RESULT:      -5.8      3.608      6.362
REMARK  Name = 
REMARK  9 active torsions:
REMARK  status: ('A' for Active; 'I' for Inactive)
REMARK    1  A    between atoms: C_1  and  O_2
REMARK    2  A    between atoms: O_2  and  C_3
REMARK    3  A    between atoms: C_6  and  C_7
REMARK    4  A    between atoms: C_8  and  C_9
REMARK    5  A    between atoms: C_11  and  N_12
REMARK    6  A    between atoms: C_16  and  C_17
REMARK    7  A    between atoms: C_19  and  O_20
REMARK    8  A    between atoms: C_23  and  O_24
REMARK    9  A    between atoms: O_24  and  C_25
REMARK                            x       y       z     vdW  Elec       q    Type
REMARK                         _______ _______ _______ _____ _____    ______ ____
ROOT
ATOM      1  C   UNL     1      -2.566  13.700  22.035  0.00  0.00    +0.000 C 
ATOM      2  C   UNL     1      -2.594  14.408  23.370  0.00  0.00    +0.000 C 
ATOM      3  C   UNL     1      -3.701  14.474  24.129  0.00  0.00    +0.000 C 
ATOM      4  O   UNL     1      -4.888  13.846  23.749  0.00  0.00    +0.000 OA
ATOM      5  C   UNL     1      -4.982  13.256  22.508  0.00  0.00    +0.000 A 
ATOM      6  C   UNL     1      -6.194  12.669  22.154  0.00  0.00    +0.000 A 
ATOM      7  C   UNL     1      -6.304  12.076  20.897  0.00  0.00    +0.000 A 
ATOM      8  C   UNL     1      -7.546  11.357  20.477  0.00  0.00    +0.000 C 
ATOM      9  N   UNL     1      -5.295  12.080  19.995  0.00  0.00    +0.000 NA
ATOM     10  C   UNL     1      -4.151  12.651  20.382  0.00  0.00    +0.000 A 
ATOM     11  C   UNL     1      -3.916  13.214  21.624  0.00  0.00    +0.000 A 
ENDROOT
BRANCH   1  15
ATOM     12  C   UNL     1       0.286  10.431  22.045  0.00  0.00    +0.000 A 
ATOM     13  C   UNL     1      -0.774  10.472  22.966  0.00  0.00    +0.000 A 
ATOM     14  C   UNL     1      -1.705  11.504  22.946  0.00  0.00    +0.000 A 
ATOM     15  C   UNL     1      -1.551  12.564  22.055  0.00  0.00    +0.000 A 
ATOM     16  C   UNL     1      -0.437  12.572  21.200  0.00  0.00    +0.000 A 
ATOM     17  C   UNL     1       0.482  11.516  21.178  0.00  0.00    +0.000 A 
BRANCH  12  19
ATOM     18  C   UNL     1       0.682   8.265  21.199  0.00  0.00    +0.000 C 
ATOM     19  O   UNL     1       1.134   9.357  22.004  0.00  0.00    +0.000 OA
ENDBRANCH  12  19
BRANCH  17  20
ATOM     20  O   UNL     1       1.460  11.727  20.246  0.00  0.00    +0.000 OA
ATOM     21  C   UNL     1       1.232  11.341  18.902  0.00  0.00    +0.000 C 
ENDBRANCH  17  20
ENDBRANCH   1  15
BRANCH   3  22
ATOM     22  N   UNL     1      -3.791  15.143  25.326  0.00  0.00    +0.000 N 
ATOM     23  H   UNL     1      -3.435  16.098  25.330  0.00  0.00    +0.000 HD
ATOM     24  H   UNL     1      -3.444  14.585  26.101  0.00  0.00    +0.000 HD
ENDBRANCH   3  22
BRANCH   2  25
ATOM     25  C   UNL     1      -1.271  15.048  23.754  0.00  0.00    +0.000 C 
ATOM     26  N   UNL     1      -0.172  15.578  24.075  0.00  0.00    +0.000 NA
ENDBRANCH   2  25
BRANCH  10  27
ATOM     27  O   UNL     1      -3.190  12.622  19.427  0.00  0.00    +0.000 OA
ATOM     28  H   UNL     1      -2.426  12.346  19.969  0.00  0.00    +0.000 HD
ENDBRANCH  10  27
TORSDOF 6
ENDMDL
MODEL 4
REMARK VINA RESULT:      -5.8      0.895      1.863
REMARK  Name = 
REMARK  9 active torsions:
REMARK  status: ('A' for Active; 'I' for Inactive)
REMARK    1  A    between atoms: C_1  and  O_2
REMARK    2  A    between atoms: O_2  and  C_3
REMARK    3  A    between atoms: C_6  and  C_7
REMARK    4  A    between atoms: C_8  and  C_9
REMARK    5  A    between atoms: C_11  and  N_12
REMARK    6  A    between atoms: C_16  and  C_17
REMARK    7  A    between atoms: C_19  and  O_20
REMARK    8  A    between atoms: C_23  and  O_24
REMARK    9  A    between atoms: O_24  and  C_25
REMARK                            x       y       z     vdW  Elec       q    Type
REMARK                         _______ _______ _______ _____ _____    ______ ____
ROOT
ATOM      1  C   UNL     1      -0.173  10.859  20.454  0.00  0.00    +0.000 C 
ATOM      2  C   UNL     1      -0.402  10.649  21.932  0.00  0.00    +0.000 C 
ATOM      3  C   UNL     1       0.135   9.620  22.608  0.00  0.00    +0.000 C 
ATOM      4  O   UNL     1       0.984   8.701  21.989  0.00  0.00    +0.000 OA
ATOM      5  C   UNL     1       1.176   8.760  20.626  0.00  0.00    +0.000 A 
ATOM      6  C   UNL     1       2.004   7.805  20.042  0.00  0.00    +0.000 A 
ATOM      7  C   UNL     1       2.201   7.848  18.662  0.00  0.00    +0.000 A 
ATOM      8  C   UNL     1       3.138   6.907  17.975  0.00  0.00    +0.000 C 
ATOM      9  N   UNL     1       1.591   8.756  17.865  0.00  0.00    +0.000 NA
ATOM     10  C   UNL     1       0.811   9.654  18.472  0.00  0.00    +0.000 A 
ATOM     11  C   UNL     1       0.595   9.737  19.836  0.00  0.00    +0.000 A 
ENDROOT
BRANCH   1  15
ATOM     12  C   UNL     1       1.787  14.651  19.681  0.00  0.00    +0.000 A 
ATOM     13  C   UNL     1       2.438  13.629  20.392  0.00  0.00    +0.000 A 
ATOM     14  C   UNL     1       1.822  12.404  20.616  0.00  0.00    +0.000 A 
ATOM     15  C   UNL     1       0.507  12.199  20.203  0.00  0.00    +0.000 A 
ATOM     16  C   UNL     1      -0.177  13.254  19.578  0.00  0.00    +0.000 A 
ATOM     17  C   UNL     1       0.447  14.477  19.305  0.00  0.00    +0.000 A 
BRANCH  12  19
ATOM     18  C   UNL     1       3.141  15.798  18.125  0.00  0.00    +0.000 C 
ATOM     19  O   UNL     1       2.441  15.814  19.373  0.00  0.00    +0.000 OA
ENDBRANCH  12  19
BRANCH  17  20
ATOM     20  O   UNL     1      -0.401  15.335  18.662  0.00  0.00    +0.000 OA
ATOM     21  C   UNL     1      -0.932  16.443  19.367  0.00  0.00    +0.000 C 
ENDBRANCH  17  20
ENDBRANCH   1  15
BRANCH   3  22
ATOM     22  N   UNL     1      -0.079   9.360  23.941  0.00  0.00    +0.000 N 
ATOM     23  H   UNL     1       0.262   8.461  24.278  0.00  0.00    +0.000 HD
ATOM     24  H   UNL     1      -1.038   9.551  24.216  0.00  0.00    +0.000 HD
ENDBRANCH   3  22
BRANCH   2  25
ATOM     25  C   UNL     1      -1.306  11.693  22.568  0.00  0.00    +0.000 C 
ATOM     26  N   UNL     1      -2.055  12.559  23.096  0.00  0.00    +0.000 NA
ENDBRANCH   2  25
BRANCH  10  27
ATOM     27  O   UNL     1       0.230  10.525  17.611  0.00  0.00    +0.000 OA
ATOM     28  H   UNL     1       1.030  10.944  17.235  0.00  0.00    +0.000 HD
ENDBRANCH  10  27
TORSDOF 6
ENDMDL
MODEL 5
REMARK VINA RESULT:      -5.7      2.820      5.924
REMARK  Name = 
REMARK  9 active torsions:
REMARK  status: ('A' for Active; 'I' for Inactive)
REMARK    1  A    between atoms: C_1  and  O_2
REMARK    2  A    between atoms: O_2  and  C_3
REMARK    3  A    between atoms: C_6  and  C_7
REMARK    4  A    between atoms: C_8  and  C_9
REMARK    5  A    between atoms: C_11  and  N_12
REMARK    6  A    between atoms: C_16  and  C_17
REMARK    7  A    between atoms: C_19  and  O_20
REMARK    8  A    between atoms: C_23  and  O_24
REMARK    9  A    between atoms: O_24  and  C_25
REMARK                            x       y       z     vdW  Elec       q    Type
REMARK                         _______ _______ _______ _____ _____    ______ ____
ROOT
ATOM      1  C   UNL     1      -0.276  12.008  18.651  0.00  0.00    +0.000 C 
ATOM      2  C   UNL     1       0.126  13.096  19.619  0.00  0.00    +0.000 C 
ATOM      3  C   UNL     1      -0.766  13.755  20.377  0.00  0.00    +0.000 C 
ATOM      4  O   UNL     1      -2.126  13.438  20.350  0.00  0.00    +0.000 OA
ATOM      5  C   UNL     1      -2.595  12.524  19.433  0.00  0.00    +0.000 A 
ATOM      6  C   UNL     1      -3.962  12.259  19.417  0.00  0.00    +0.000 A 
ATOM      7  C   UNL     1      -4.452  11.341  18.488  0.00  0.00    +0.000 A 
ATOM      8  C   UNL     1      -5.894  10.946  18.463  0.00  0.00    +0.000 C 
ATOM      9  N   UNL     1      -3.659  10.727  17.579  0.00  0.00    +0.000 NA
ATOM     10  C   UNL     1      -2.355  11.010  17.637  0.00  0.00    +0.000 A 
ATOM     11  C   UNL     1      -1.759  11.856  18.554  0.00  0.00    +0.000 A 
ENDROOT
BRANCH   1  15
ATOM     12  C   UNL     1       1.680   8.290  19.731  0.00  0.00    +0.000 A 
ATOM     13  C   UNL     1       1.851   8.856  18.458  0.00  0.00    +0.000 A 
ATOM     14  C   UNL     1       1.247  10.062  18.119  0.00  0.00    +0.000 A 
ATOM     15  C   UNL     1       0.392  10.690  19.022  0.00  0.00    +0.000 A 
ATOM     16  C   UNL     1       0.145  10.075  20.259  0.00  0.00    +0.000 A 
ATOM     17  C   UNL     1       0.783   8.885  20.630  0.00  0.00    +0.000 A 
BRANCH  12  19
ATOM     18  C   UNL     1       2.558   6.214  19.036  0.00  0.00    +0.000 C 
ATOM     19  O   UNL     1       2.364   7.159  20.091  0.00  0.00    +0.000 OA
ENDBRANCH  12  19
BRANCH  17  20
ATOM     20  O   UNL     1       0.414   8.495  21.888  0.00  0.00    +0.000 OA
ATOM     21  C   UNL     1      -0.313   9.392  22.708  0.00  0.00    +0.000 C 
ENDBRANCH  17  20
ENDBRANCH   1  15
BRANCH   3  22
ATOM     22  N   UNL     1      -0.458  14.782  21.237  0.00  0.00    +0.000 N 
ATOM     23  H   UNL     1      -0.245  14.510  22.195  0.00  0.00    +0.000 HD
ATOM     24  H   UNL     1      -1.131  15.542  21.178  0.00  0.00    +0.000 HD
ENDBRANCH   3  22
BRANCH   2  25
ATOM     25  C   UNL     1       1.618  13.384  19.635  0.00  0.00    +0.000 C 
ATOM     26  N   UNL     1       2.857  13.622  19.650  0.00  0.00    +0.000 NA
ENDBRANCH   2  25
BRANCH  10  27
ATOM     27  O   UNL     1      -1.627  10.363  16.694  0.00  0.00    +0.000 OA
ATOM     28  H   UNL     1      -2.347  10.061  16.107  0.00  0.00    +0.000 HD
ENDBRANCH  10  27
TORSDOF 6
ENDMDL
MODEL 6
REMARK VINA RESULT:      -5.7      2.838      5.519
REMARK  Name = 
REMARK  9 active torsions:
REMARK  status: ('A' for Active; 'I' for Inactive)
REMARK    1  A    between atoms: C_1  and  O_2
REMARK    2  A    between atoms: O_2  and  C_3
REMARK    3  A    between atoms: C_6  and  C_7
REMARK    4  A    between atoms: C_8  and  C_9
REMARK    5  A    between atoms: C_11  and  N_12
REMARK    6  A    between atoms: C_16  and  C_17
REMARK    7  A    between atoms: C_19  and  O_20
REMARK    8  A    between atoms: C_23  and  O_24
REMARK    9  A    between atoms: O_24  and  C_25
REMARK                            x       y       z     vdW  Elec       q    Type
REMARK                         _______ _______ _______ _____ _____    ______ ____
ROOT
ATOM      1  C   UNL     1      -0.997  12.533  18.880  0.00  0.00    +0.000 C 
ATOM      2  C   UNL     1      -0.672  11.146  18.377  0.00  0.00    +0.000 C 
ATOM      3  C   UNL     1       0.587  10.734  18.156  0.00  0.00    +0.000 C 
ATOM      4  O   UNL     1       1.684  11.553  18.428  0.00  0.00    +0.000 OA
ATOM      5  C   UNL     1       1.481  12.863  18.803  0.00  0.00    +0.000 A 
ATOM      6  C   UNL     1       2.601  13.657  19.033  0.00  0.00    +0.000 A 
ATOM      7  C   UNL     1       2.410  14.987  19.405  0.00  0.00    +0.000 A 
ATOM      8  C   UNL     1       3.561  15.878  19.746  0.00  0.00    +0.000 C 
ATOM      9  N   UNL     1       1.182  15.546  19.515  0.00  0.00    +0.000 NA
ATOM     10  C   UNL     1       0.139  14.744  19.289  0.00  0.00    +0.000 A 
ATOM     11  C   UNL     1       0.216  13.399  18.973  0.00  0.00    +0.000 A 
ENDROOT
BRANCH   1  15
ATOM     12  C   UNL     1      -3.106  12.262  22.661  0.00  0.00    +0.000 A 
ATOM     13  C   UNL     1      -3.670  12.930  21.563  0.00  0.00    +0.000 A 
ATOM     14  C   UNL     1      -3.008  12.994  20.342  0.00  0.00    +0.000 A 
ATOM     15  C   UNL     1      -1.728  12.458  20.215  0.00  0.00    +0.000 A 
ATOM     16  C   UNL     1      -1.125  11.875  21.341  0.00  0.00    +0.000 A 
ATOM     17  C   UNL     1      -1.799  11.763  22.563  0.00  0.00    +0.000 A 
BRANCH  12  19
ATOM     18  C   UNL     1      -4.931  12.991  23.967  0.00  0.00    +0.000 C 
ATOM     19  O   UNL     1      -3.812  12.112  23.826  0.00  0.00    +0.000 OA
ENDBRANCH  12  19
BRANCH  17  20
ATOM     20  O   UNL     1      -1.029  11.132  23.499  0.00  0.00    +0.000 OA
ATOM     21  C   UNL     1      -0.433   9.886  23.183  0.00  0.00    +0.000 C 
ENDBRANCH  17  20
ENDBRANCH   1  15
BRANCH   3  22
ATOM     22  N   UNL     1       0.933   9.500  17.656  0.00  0.00    +0.000 N 
ATOM     23  H   UNL     1       1.660   9.499  16.942  0.00  0.00    +0.000 HD
ATOM     24  H   UNL     1       0.117   8.953  17.396  0.00  0.00    +0.000 HD
ENDBRANCH   3  22
BRANCH   2  25
ATOM     25  C   UNL     1      -1.897  10.281  18.126  0.00  0.00    +0.000 C 
ATOM     26  N   UNL     1      -2.912   9.562  17.919  0.00  0.00    +0.000 NA
ENDBRANCH   2  25
BRANCH  10  27
ATOM     27  O   UNL     1      -1.055  15.374  19.411  0.00  0.00    +0.000 OA
ATOM     28  H   UNL     1      -0.747  16.267  19.661  0.00  0.00    +0.000 HD
ENDBRANCH  10  27
TORSDOF 6
ENDMDL
MODEL 7
REMARK VINA RESULT:      -5.6      3.431      6.854
REMARK  Name = 
REMARK  9 active torsions:
REMARK  status: ('A' for Active; 'I' for Inactive)
REMARK    1  A    between atoms: C_1  and  O_2
REMARK    2  A    between atoms: O_2  and  C_3
REMARK    3  A    between atoms: C_6  and  C_7
REMARK    4  A    between atoms: C_8  and  C_9
REMARK    5  A    between atoms: C_11  and  N_12
REMARK    6  A    between atoms: C_16  and  C_17
REMARK    7  A    between atoms: C_19  and  O_20
REMARK    8  A    between atoms: C_23  and  O_24
REMARK    9  A    between atoms: O_24  and  C_25
REMARK                            x       y       z     vdW  Elec       q    Type
REMARK                         _______ _______ _______ _____ _____    ______ ____
ROOT
ATOM      1  C   UNL     1      -2.244  13.378  22.042  0.00  0.00    +0.000 C 
ATOM      2  C   UNL     1      -1.481  14.188  23.063  0.00  0.00    +0.000 C 
ATOM      3  C   UNL     1      -2.036  14.612  24.211  0.00  0.00    +0.000 C 
ATOM      4  O   UNL     1      -3.349  14.285  24.553  0.00  0.00    +0.000 OA
ATOM      5  C   UNL     1      -4.149  13.628  23.644  0.00  0.00    +0.000 A 
ATOM      6  C   UNL     1      -5.462  13.349  24.012  0.00  0.00    +0.000 A 
ATOM      7  C   UNL     1      -6.285  12.691  23.097  0.00  0.00    +0.000 A 
ATOM      8  C   UNL     1      -7.680  12.287  23.449  0.00  0.00    +0.000 C 
ATOM      9  N   UNL     1      -5.869  12.347  21.856  0.00  0.00    +0.000 NA
ATOM     10  C   UNL     1      -4.600  12.632  21.552  0.00  0.00    +0.000 A 
ATOM     11  C   UNL     1      -3.685  13.226  22.402  0.00  0.00    +0.000 A 
ENDROOT
BRANCH   1  15
ATOM     12  C   UNL     1      -0.417   9.490  21.437  0.00  0.00    +0.000 A 
ATOM     13  C   UNL     1      -0.770   9.933  22.722  0.00  0.00    +0.000 A 
ATOM     14  C   UNL     1      -1.381  11.167  22.915  0.00  0.00    +0.000 A 
ATOM     15  C   UNL     1      -1.580  12.022  21.833  0.00  0.00    +0.000 A 
ATOM     16  C   UNL     1      -1.140  11.619  20.562  0.00  0.00    +0.000 A 
ATOM     17  C   UNL     1      -0.565  10.361  20.347  0.00  0.00    +0.000 A 
BRANCH  12  19
ATOM     18  C   UNL     1       1.514   8.155  21.200  0.00  0.00    +0.000 C 
ATOM     19  O   UNL     1       0.087   8.231  21.246  0.00  0.00    +0.000 OA
ENDBRANCH  12  19
BRANCH  17  20
ATOM     20  O   UNL     1      -0.247  10.178  19.030  0.00  0.00    +0.000 OA
ATOM     21  C   UNL     1      -1.241  10.380  18.041  0.00  0.00    +0.000 C 
ENDBRANCH  17  20
ENDBRANCH   1  15
BRANCH   3  22
ATOM     22  N   UNL     1      -1.401  15.390  25.150  0.00  0.00    +0.000 N 
ATOM     23  H   UNL     1      -2.008  15.893  25.794  0.00  0.00    +0.000 HD
ATOM     24  H   UNL     1      -0.685  15.979  24.734  0.00  0.00    +0.000 HD
ENDBRANCH   3  22
BRANCH   2  25
ATOM     25  C   UNL     1      -0.047  14.492  22.660  0.00  0.00    +0.000 C 
ATOM     26  N   UNL     1       1.142  14.744  22.325  0.00  0.00    +0.000 NA
ENDBRANCH   2  25
BRANCH  10  27
ATOM     27  O   UNL     1      -4.258  12.264  20.293  0.00  0.00    +0.000 OA
ATOM     28  H   UNL     1      -3.855  13.098  19.980  0.00  0.00    +0.000 HD
ENDBRANCH  10  27
TORSDOF 6
ENDMDL
MODEL 8
REMARK VINA RESULT:      -5.6      7.631      9.876
REMARK  Name = 
REMARK  9 active torsions:
REMARK  status: ('A' for Active; 'I' for Inactive)
REMARK    1  A    between atoms: C_1  and  O_2
REMARK    2  A    between atoms: O_2  and  C_3
REMARK    3  A    between atoms: C_6  and  C_7
REMARK    4  A    between atoms: C_8  and  C_9
REMARK    5  A    between atoms: C_11  and  N_12
REMARK    6  A    between atoms: C_16  and  C_17
REMARK    7  A    between atoms: C_19  and  O_20
REMARK    8  A    between atoms: C_23  and  O_24
REMARK    9  A    between atoms: O_24  and  C_25
REMARK                            x       y       z     vdW  Elec       q    Type
REMARK                         _______ _______ _______ _____ _____    ______ ____
ROOT
ATOM      1  C   UNL     1      10.563  14.052  19.904  0.00  0.00    +0.000 C 
ATOM      2  C   UNL     1      10.979  14.914  18.735  0.00  0.00    +0.000 C 
ATOM      3  C   UNL     1      10.862  14.508  17.460  0.00  0.00    +0.000 C 
ATOM      4  O   UNL     1      10.299  13.273  17.134  0.00  0.00    +0.000 OA
ATOM      5  C   UNL     1       9.976  12.384  18.136  0.00  0.00    +0.000 A 
ATOM      6  C   UNL     1       9.446  11.150  17.767  0.00  0.00    +0.000 A 
ATOM      7  C   UNL     1       9.123  10.238  18.771  0.00  0.00    +0.000 A 
ATOM      8  C   UNL     1       8.477   8.926  18.459  0.00  0.00    +0.000 C 
ATOM      9  N   UNL     1       9.336  10.489  20.084  0.00  0.00    +0.000 NA
ATOM     10  C   UNL     1       9.841  11.688  20.387  0.00  0.00    +0.000 A 
ATOM     11  C   UNL     1      10.141  12.685  19.477  0.00  0.00    +0.000 A 
ENDROOT
BRANCH   1  15
ATOM     12  C   UNL     1       7.478  16.075  22.188  0.00  0.00    +0.000 A 
ATOM     13  C   UNL     1       8.708  15.732  22.774  0.00  0.00    +0.000 A 
ATOM     14  C   UNL     1       9.708  15.109  22.036  0.00  0.00    +0.000 A 
ATOM     15  C   UNL     1       9.471  14.741  20.713  0.00  0.00    +0.000 A 
ATOM     16  C   UNL     1       8.208  14.998  20.156  0.00  0.00    +0.000 A 
ATOM     17  C   UNL     1       7.208  15.666  20.874  0.00  0.00    +0.000 A 
BRANCH  12  19
ATOM     18  C   UNL     1       6.943  17.163  24.211  0.00  0.00    +0.000 C 
ATOM     19  O   UNL     1       6.542  16.783  22.892  0.00  0.00    +0.000 OA
ENDBRANCH  12  19
BRANCH  17  20
ATOM     20  O   UNL     1       6.081  15.832  20.118  0.00  0.00    +0.000 OA
ATOM     21  C   UNL     1       6.073  16.803  19.087  0.00  0.00    +0.000 C 
ENDBRANCH  17  20
ENDBRANCH   1  15
BRANCH   3  22
ATOM     22  N   UNL     1      11.268  15.234  16.365  0.00  0.00    +0.000 N 
ATOM     23  H   UNL     1      11.191  14.761  15.466  0.00  0.00    +0.000 HD
ATOM     24  H   UNL     1      12.174  15.668  16.511  0.00  0.00    +0.000 HD
ENDBRANCH   3  22
BRANCH   2  25
ATOM     25  C   UNL     1      11.556  16.261  19.139  0.00  0.00    +0.000 C 
ATOM     26  N   UNL     1      12.035  17.378  19.476  0.00  0.00    +0.000 NA
ENDBRANCH   2  25
BRANCH  10  27
ATOM     27  O   UNL     1      10.032  11.865  21.718  0.00  0.00    +0.000 OA
ATOM     28  H   UNL     1       9.598  11.058  22.057  0.00  0.00    +0.000 HD
ENDBRANCH  10  27
TORSDOF 6
ENDMDL
MODEL 9
REMARK VINA RESULT:      -5.6      7.534      9.878
REMARK  Name = 
REMARK  9 active torsions:
REMARK  status: ('A' for Active; 'I' for Inactive)
REMARK    1  A    between atoms: C_1  and  O_2
REMARK    2  A    between atoms: O_2  and  C_3
REMARK    3  A    between atoms: C_6  and  C_7
REMARK    4  A    between atoms: C_8  and  C_9
REMARK    5  A    between atoms: C_11  and  N_12
REMARK    6  A    between atoms: C_16  and  C_17
REMARK    7  A    between atoms: C_19  and  O_20
REMARK    8  A    between atoms: C_23  and  O_24
REMARK    9  A    between atoms: O_24  and  C_25
REMARK                            x       y       z     vdW  Elec       q    Type
REMARK                         _______ _______ _______ _____ _____    ______ ____
ROOT
ATOM      1  C   UNL     1      10.514  14.040  19.956  0.00  0.00    +0.000 C 
ATOM      2  C   UNL     1      10.901  14.931  18.799  0.00  0.00    +0.000 C 
ATOM      3  C   UNL     1      10.775  14.548  17.518  0.00  0.00    +0.000 C 
ATOM      4  O   UNL     1      10.227  13.311  17.174  0.00  0.00    +0.000 OA
ATOM      5  C   UNL     1       9.931  12.398  18.162  0.00  0.00    +0.000 A 
ATOM      6  C   UNL     1       9.417  11.163  17.775  0.00  0.00    +0.000 A 
ATOM      7  C   UNL     1       9.120  10.225  18.765  0.00  0.00    +0.000 A 
ATOM      8  C   UNL     1       8.492   8.910  18.434  0.00  0.00    +0.000 C 
ATOM      9  N   UNL     1       9.346  10.454  20.080  0.00  0.00    +0.000 NA
ATOM     10  C   UNL     1       9.835  11.655  20.401  0.00  0.00    +0.000 A 
ATOM     11  C   UNL     1      10.108  12.675  19.507  0.00  0.00    +0.000 A 
ENDROOT
BRANCH   1  15
ATOM     12  C   UNL     1       7.381  15.843  22.355  0.00  0.00    +0.000 A 
ATOM     13  C   UNL     1       7.172  15.536  21.001  0.00  0.00    +0.000 A 
ATOM     14  C   UNL     1       8.165  14.933  20.238  0.00  0.00    +0.000 A 
ATOM     15  C   UNL     1       9.421  14.695  20.792  0.00  0.00    +0.000 A 
ATOM     16  C   UNL     1       9.660  15.090  22.118  0.00  0.00    +0.000 A 
ATOM     17  C   UNL     1       8.655  15.656  22.911  0.00  0.00    +0.000 A 
BRANCH  12  19
ATOM     18  C   UNL     1       5.433  15.358  23.594  0.00  0.00    +0.000 C 
ATOM     19  O   UNL     1       6.362  16.338  23.125  0.00  0.00    +0.000 OA
ENDBRANCH  12  19
BRANCH  17  20
ATOM     20  O   UNL     1       9.110  15.927  24.171  0.00  0.00    +0.000 OA
ATOM     21  C   UNL     1       8.929  14.965  25.196  0.00  0.00    +0.000 C 
ENDBRANCH  17  20
ENDBRANCH   1  15
BRANCH   3  22
ATOM     22  N   UNL     1      11.155  15.302  16.433  0.00  0.00    +0.000 N 
ATOM     23  H   UNL     1      11.609  16.189  16.645  0.00  0.00    +0.000 HD
ATOM     24  H   UNL     1      10.407  15.390  15.750  0.00  0.00    +0.000 HD
ENDBRANCH   3  22
BRANCH   2  25
ATOM     25  C   UNL     1      11.462  16.279  19.223  0.00  0.00    +0.000 C 
ATOM     26  N   UNL     1      11.926  17.398  19.575  0.00  0.00    +0.000 NA
ENDBRANCH   2  25
BRANCH  10  27
ATOM     27  O   UNL     1      10.041  11.809  21.732  0.00  0.00    +0.000 OA
ATOM     28  H   UNL     1      10.998  11.617  21.775  0.00  0.00    +0.000 HD
ENDBRANCH  10  27
TORSDOF 6
ENDMDL
