MODEL 1
REMARK VINA RESULT:      -7.5      0.000      0.000
REMARK  Name = 
REMARK  18 active torsions:
REMARK  status: ('A' for Active; 'I' for Inactive)
REMARK    1  A    between atoms: C_1  and  O_2
REMARK    2  A    between atoms: O_2  and  C_3
REMARK    3  A    between atoms: C_3  and  C_5
REMARK    4  A    between atoms: C_5  and  C_6
REMARK    5  A    between atoms: C_5  and  N_10
REMARK    6  A    between atoms: C_6  and  C_7
REMARK    7  A    between atoms: C_7  and  C_8
REMARK    8  A    between atoms: C_7  and  C_9
REMARK    9  A    between atoms: C_11  and  O_13
REMARK   10  A    between atoms: O_13  and  C_14
REMARK   11  A    between atoms: C_20  and  C_21
REMARK   12  A    between atoms: C_21  and  C_22
REMARK   13  A    between atoms: C_24  and  C_25
REMARK   14  A    between atoms: C_25  and  C_26
REMARK   15  A    between atoms: C_27  and  C_28
REMARK   16  A    between atoms: C_27  and  C_29
REMARK   17  A    between atoms: C_30  and  O_31
REMARK   18  A    between atoms: O_31  and  C_32
REMARK                            x       y       z     vdW  Elec       q    Type
REMARK                         _______ _______ _______ _____ _____    ______ ____
ROOT
ATOM      1  C   UNL     1       2.534   6.470  18.889  0.00  0.00    +0.000 C 
ATOM      2  C   UNL     1       1.726   5.206  19.222  0.00  0.00    +0.000 C 
ATOM      3  C   UNL     1       1.707   4.238  18.055  0.00  0.00    +0.000 C 
ATOM      4  C   UNL     1       3.109   3.933  17.606  0.00  0.00    +0.000 C 
ATOM      5  C   UNL     1       3.804   2.697  18.127  0.00  0.00    +0.000 C 
ATOM      6  O   UNL     1       3.155   2.730  16.846  0.00  0.00    +0.000 OA
ATOM      7  C   UNL     1       3.900   5.157  17.149  0.00  0.00    +0.000 C 
ATOM      8  C   UNL     1       3.990   6.113  18.400  0.00  0.00    +0.000 C 
ENDROOT
BRANCH   7   9
ATOM      9  C   UNL     1       5.157   5.050  16.247  0.00  0.00    +0.000 C 
ATOM     10  C   UNL     1       5.887   6.343  15.961  0.00  0.00    +0.000 C 
ATOM     11  O   UNL     1       6.099   3.984  16.422  0.00  0.00    +0.000 OA
ATOM     12  C   UNL     1       5.268   3.863  15.259  0.00  0.00    +0.000 C 
BRANCH  12  13
ATOM     13  C   UNL     1       5.872   3.948  13.899  0.00  0.00    +0.000 C 
BRANCH  13  14
ATOM     14  C   UNL     1       4.881   3.945  12.772  0.00  0.00    +0.000 C 
ATOM     15  C   UNL     1       4.799   3.097  11.727  0.00  0.00    +0.000 C 
ATOM     16  C   UNL     1       5.742   1.950  11.453  0.00  0.00    +0.000 C 
ATOM     17  C   UNL     1       3.716   3.257  10.691  0.00  0.00    +0.000 C 
ENDBRANCH  13  14
ENDBRANCH  12  13
ENDBRANCH   7   9
BRANCH   8  18
ATOM     18  O   UNL     1       4.632   5.510  19.540  0.00  0.00    +0.000 OA
ATOM     19  C   UNL     1       6.040   5.401  19.473  0.00  0.00    +0.000 C 
ENDBRANCH   8  18
BRANCH   1  20
ATOM     20  O   UNL     1       2.627   7.289  20.085  0.00  0.00    +0.000 OA
BRANCH  20  22
ATOM     21  N   UNL     1       1.572   9.209  19.930  0.00  0.00    +0.000 N 
ATOM     22  C   UNL     1       1.524   7.970  20.478  0.00  0.00    +0.000 C 
ATOM     23  O   UNL     1       0.610   7.512  21.142  0.00  0.00    +0.000 OA
ATOM     24  H   UNL     1       2.427   9.424  19.429  0.00  0.00    +0.000 HD
BRANCH  21  25
ATOM     25  C   UNL     1       0.442  10.126  19.756  0.00  0.00    +0.000 C 
BRANCH  25  26
ATOM     26  C   UNL     1       1.008  11.540  19.997  0.00  0.00    +0.000 C 
ATOM     27  O   UNL     1       1.341  11.954  21.104  0.00  0.00    +0.000 OA
BRANCH  26  29
ATOM     28  C   UNL     1       2.428  12.868  18.646  0.00  0.00    +0.000 C 
ATOM     29  O   UNL     1       1.149  12.240  18.837  0.00  0.00    +0.000 OA
ENDBRANCH  26  29
ENDBRANCH  25  26
BRANCH  25  30
ATOM     30  C   UNL     1      -0.095  10.067  18.313  0.00  0.00    +0.000 C 
BRANCH  30  31
ATOM     31  C   UNL     1      -1.628  10.113  18.152  0.00  0.00    +0.000 C 
ATOM     32  C   UNL     1      -2.214  11.471  18.546  0.00  0.00    +0.000 C 
ATOM     33  C   UNL     1      -2.017   9.766  16.719  0.00  0.00    +0.000 C 
ENDBRANCH  30  31
ENDBRANCH  25  30
ENDBRANCH  21  25
ENDBRANCH  20  22
ENDBRANCH   1  20
TORSDOF 11
ENDMDL
MODEL 2
REMARK VINA RESULT:      -7.2      2.937      9.943
REMARK  Name = 
REMARK  18 active torsions:
REMARK  status: ('A' for Active; 'I' for Inactive)
REMARK    1  A    between atoms: C_1  and  O_2
REMARK    2  A    between atoms: O_2  and  C_3
REMARK    3  A    between atoms: C_3  and  C_5
REMARK    4  A    between atoms: C_5  and  C_6
REMARK    5  A    between atoms: C_5  and  N_10
REMARK    6  A    between atoms: C_6  and  C_7
REMARK    7  A    between atoms: C_7  and  C_8
REMARK    8  A    between atoms: C_7  and  C_9
REMARK    9  A    between atoms: C_11  and  O_13
REMARK   10  A    between atoms: O_13  and  C_14
REMARK   11  A    between atoms: C_20  and  C_21
REMARK   12  A    between atoms: C_21  and  C_22
REMARK   13  A    between atoms: C_24  and  C_25
REMARK   14  A    between atoms: C_25  and  C_26
REMARK   15  A    between atoms: C_27  and  C_28
REMARK   16  A    between atoms: C_27  and  C_29
REMARK   17  A    between atoms: C_30  and  O_31
REMARK   18  A    between atoms: O_31  and  C_32
REMARK                            x       y       z     vdW  Elec       q    Type
REMARK                         _______ _______ _______ _____ _____    ______ ____
ROOT
ATOM      1  C   UNL     1       0.902   9.280  21.035  0.00  0.00    +0.000 C 
ATOM      2  C   UNL     1      -0.119   8.992  22.147  0.00  0.00    +0.000 C 
ATOM      3  C   UNL     1      -0.244  10.164  23.101  0.00  0.00    +0.000 C 
ATOM      4  C   UNL     1      -0.549  11.426  22.341  0.00  0.00    +0.000 C 
ATOM      5  C   UNL     1      -1.982  11.879  22.198  0.00  0.00    +0.000 C 
ATOM      6  O   UNL     1      -1.103  12.420  23.197  0.00  0.00    +0.000 OA
ATOM      7  C   UNL     1       0.512  11.808  21.312  0.00  0.00    +0.000 C 
ATOM      8  C   UNL     1       0.566  10.620  20.275  0.00  0.00    +0.000 C 
ENDROOT
BRANCH   7   9
ATOM      9  C   UNL     1       0.650  13.246  20.749  0.00  0.00    +0.000 C 
ATOM     10  C   UNL     1       1.528  14.192  21.537  0.00  0.00    +0.000 C 
ATOM     11  O   UNL     1       0.826  13.471  19.344  0.00  0.00    +0.000 OA
ATOM     12  C   UNL     1      -0.476  13.805  19.845  0.00  0.00    +0.000 C 
BRANCH  12  13
ATOM     13  C   UNL     1      -0.934  15.224  19.845  0.00  0.00    +0.000 C 
BRANCH  13  14
ATOM     14  C   UNL     1      -0.360  16.067  18.744  0.00  0.00    +0.000 C 
ATOM     15  C   UNL     1      -0.797  17.256  18.281  0.00  0.00    +0.000 C 
ATOM     16  C   UNL     1      -2.015  17.996  18.777  0.00  0.00    +0.000 C 
ATOM     17  C   UNL     1      -0.072  17.955  17.159  0.00  0.00    +0.000 C 
ENDBRANCH  13  14
ENDBRANCH  12  13
ENDBRANCH   7   9
BRANCH   8  18
ATOM     18  O   UNL     1      -0.692  10.373  19.617  0.00  0.00    +0.000 OA
ATOM     19  C   UNL     1      -0.683  10.474  18.207  0.00  0.00    +0.000 C 
ENDBRANCH   8  18
BRANCH   1  20
ATOM     20  O   UNL     1       0.875   8.181  20.086  0.00  0.00    +0.000 OA
BRANCH  20  22
ATOM     21  N   UNL     1       2.482   6.687  20.003  0.00  0.00    +0.000 N 
ATOM     22  C   UNL     1       2.031   7.847  19.465  0.00  0.00    +0.000 C 
ATOM     23  O   UNL     1       2.530   8.446  18.528  0.00  0.00    +0.000 OA
ATOM     24  H   UNL     1       1.951   6.346  20.797  0.00  0.00    +0.000 HD
BRANCH  21  25
ATOM     25  C   UNL     1       3.449   5.767  19.398  0.00  0.00    +0.000 C 
BRANCH  25  26
ATOM     26  C   UNL     1       3.244   4.414  20.108  0.00  0.00    +0.000 C 
ATOM     27  O   UNL     1       3.888   3.404  19.836  0.00  0.00    +0.000 OA
BRANCH  26  29
ATOM     28  C   UNL     1       1.886   3.232  21.646  0.00  0.00    +0.000 C 
ATOM     29  O   UNL     1       2.318   4.493  21.104  0.00  0.00    +0.000 OA
ENDBRANCH  26  29
ENDBRANCH  25  26
BRANCH  25  30
ATOM     30  C   UNL     1       3.152   5.567  17.899  0.00  0.00    +0.000 C 
BRANCH  30  31
ATOM     31  C   UNL     1       4.365   5.631  16.947  0.00  0.00    +0.000 C 
ATOM     32  C   UNL     1       5.570   6.322  17.587  0.00  0.00    +0.000 C 
ATOM     33  C   UNL     1       4.745   4.227  16.486  0.00  0.00    +0.000 C 
ENDBRANCH  30  31
ENDBRANCH  25  30
ENDBRANCH  21  25
ENDBRANCH  20  22
ENDBRANCH   1  20
TORSDOF 11
ENDMDL
MODEL 3
REMARK VINA RESULT:      -7.1      2.553      9.350
REMARK  Name = 
REMARK  18 active torsions:
REMARK  status: ('A' for Active; 'I' for Inactive)
REMARK    1  A    between atoms: C_1  and  O_2
REMARK    2  A    between atoms: O_2  and  C_3
REMARK    3  A    between atoms: C_3  and  C_5
REMARK    4  A    between atoms: C_5  and  C_6
REMARK    5  A    between atoms: C_5  and  N_10
REMARK    6  A    between atoms: C_6  and  C_7
REMARK    7  A    between atoms: C_7  and  C_8
REMARK    8  A    between atoms: C_7  and  C_9
REMARK    9  A    between atoms: C_11  and  O_13
REMARK   10  A    between atoms: O_13  and  C_14
REMARK   11  A    between atoms: C_20  and  C_21
REMARK   12  A    between atoms: C_21  and  C_22
REMARK   13  A    between atoms: C_24  and  C_25
REMARK   14  A    between atoms: C_25  and  C_26
REMARK   15  A    between atoms: C_27  and  C_28
REMARK   16  A    between atoms: C_27  and  C_29
REMARK   17  A    between atoms: C_30  and  O_31
REMARK   18  A    between atoms: O_31  and  C_32
REMARK                            x       y       z     vdW  Elec       q    Type
REMARK                         _______ _______ _______ _____ _____    ______ ____
ROOT
ATOM      1  C   UNL     1       1.009   9.149  20.891  0.00  0.00    +0.000 C 
ATOM      2  C   UNL     1       0.010   8.752  21.989  0.00  0.00    +0.000 C 
ATOM      3  C   UNL     1      -0.123   9.841  23.036  0.00  0.00    +0.000 C 
ATOM      4  C   UNL     1      -0.464  11.153  22.384  0.00  0.00    +0.000 C 
ATOM      5  C   UNL     1      -1.908  11.587  22.297  0.00  0.00    +0.000 C 
ATOM      6  O   UNL     1      -1.024  12.064  23.324  0.00  0.00    +0.000 OA
ATOM      7  C   UNL     1       0.575  11.638  21.375  0.00  0.00    +0.000 C 
ATOM      8  C   UNL     1       0.636  10.538  20.245  0.00  0.00    +0.000 C 
ENDROOT
BRANCH   7   9
ATOM      9  C   UNL     1       0.677  13.119  20.927  0.00  0.00    +0.000 C 
ATOM     10  C   UNL     1      -0.484  13.656  20.121  0.00  0.00    +0.000 C 
ATOM     11  O   UNL     1       1.156  14.127  21.827  0.00  0.00    +0.000 OA
ATOM     12  C   UNL     1       2.079  13.762  20.792  0.00  0.00    +0.000 C 
BRANCH  12  13
ATOM     13  C   UNL     1       2.455  14.756  19.745  0.00  0.00    +0.000 C 
BRANCH  13  14
ATOM     14  C   UNL     1       3.675  14.394  18.948  0.00  0.00    +0.000 C 
ATOM     15  C   UNL     1       4.723  15.174  18.617  0.00  0.00    +0.000 C 
ATOM     16  C   UNL     1       4.877  16.633  18.970  0.00  0.00    +0.000 C 
ATOM     17  C   UNL     1       5.867  14.618  17.807  0.00  0.00    +0.000 C 
ENDBRANCH  13  14
ENDBRANCH  12  13
ENDBRANCH   7   9
BRANCH   8  18
ATOM     18  O   UNL     1      -0.627  10.319  19.586  0.00  0.00    +0.000 OA
ATOM     19  C   UNL     1      -0.631  10.496  18.184  0.00  0.00    +0.000 C 
ENDBRANCH   8  18
BRANCH   1  20
ATOM     20  O   UNL     1       0.989   8.129  19.857  0.00  0.00    +0.000 OA
BRANCH  20  22
ATOM     21  N   UNL     1       2.567   6.603  19.914  0.00  0.00    +0.000 N 
ATOM     22  C   UNL     1       2.170   7.751  19.312  0.00  0.00    +0.000 C 
ATOM     23  O   UNL     1       2.730   8.307  18.383  0.00  0.00    +0.000 OA
ATOM     24  H   UNL     1       1.987   6.301  20.689  0.00  0.00    +0.000 HD
BRANCH  21  25
ATOM     25  C   UNL     1       3.546   5.644  19.395  0.00  0.00    +0.000 C 
BRANCH  25  26
ATOM     26  C   UNL     1       3.172   4.283  20.016  0.00  0.00    +0.000 C 
ATOM     27  O   UNL     1       3.608   3.211  19.606  0.00  0.00    +0.000 OA
BRANCH  26  29
ATOM     28  C   UNL     1       1.934   3.190  21.712  0.00  0.00    +0.000 C 
ATOM     29  O   UNL     1       2.357   4.420  21.099  0.00  0.00    +0.000 OA
ENDBRANCH  26  29
ENDBRANCH  25  26
BRANCH  25  30
ATOM     30  C   UNL     1       3.430   5.516  17.864  0.00  0.00    +0.000 C 
BRANCH  30  31
ATOM     31  C   UNL     1       4.756   5.372  17.088  0.00  0.00    +0.000 C 
ATOM     32  C   UNL     1       4.834   4.057  16.309  0.00  0.00    +0.000 C 
ATOM     33  C   UNL     1       4.944   6.556  16.145  0.00  0.00    +0.000 C 
ENDBRANCH  30  31
ENDBRANCH  25  30
ENDBRANCH  21  25
ENDBRANCH  20  22
ENDBRANCH   1  20
TORSDOF 11
ENDMDL
MODEL 4
REMARK VINA RESULT:      -7.1      0.959      1.319
REMARK  Name = 
REMARK  18 active torsions:
REMARK  status: ('A' for Active; 'I' for Inactive)
REMARK    1  A    between atoms: C_1  and  O_2
REMARK    2  A    between atoms: O_2  and  C_3
REMARK    3  A    between atoms: C_3  and  C_5
REMARK    4  A    between atoms: C_5  and  C_6
REMARK    5  A    between atoms: C_5  and  N_10
REMARK    6  A    between atoms: C_6  and  C_7
REMARK    7  A    between atoms: C_7  and  C_8
REMARK    8  A    between atoms: C_7  and  C_9
REMARK    9  A    between atoms: C_11  and  O_13
REMARK   10  A    between atoms: O_13  and  C_14
REMARK   11  A    between atoms: C_20  and  C_21
REMARK   12  A    between atoms: C_21  and  C_22
REMARK   13  A    between atoms: C_24  and  C_25
REMARK   14  A    between atoms: C_25  and  C_26
REMARK   15  A    between atoms: C_27  and  C_28
REMARK   16  A    between atoms: C_27  and  C_29
REMARK   17  A    between atoms: C_30  and  O_31
REMARK   18  A    between atoms: O_31  and  C_32
REMARK                            x       y       z     vdW  Elec       q    Type
REMARK                         _______ _______ _______ _____ _____    ______ ____
ROOT
ATOM      1  C   UNL     1       2.486   6.524  19.104  0.00  0.00    +0.000 C 
ATOM      2  C   UNL     1       1.708   5.217  19.320  0.00  0.00    +0.000 C 
ATOM      3  C   UNL     1       1.669   4.381  18.055  0.00  0.00    +0.000 C 
ATOM      4  C   UNL     1       3.062   4.153  17.536  0.00  0.00    +0.000 C 
ATOM      5  C   UNL     1       3.792   2.881  17.899  0.00  0.00    +0.000 C 
ATOM      6  O   UNL     1       3.104   3.040  16.648  0.00  0.00    +0.000 OA
ATOM      7  C   UNL     1       3.820   5.433  17.193  0.00  0.00    +0.000 C 
ATOM      8  C   UNL     1       3.933   6.250  18.538  0.00  0.00    +0.000 C 
ENDROOT
BRANCH   7   9
ATOM      9  C   UNL     1       5.050   5.449  16.250  0.00  0.00    +0.000 C 
ATOM     10  C   UNL     1       5.216   6.679  15.386  0.00  0.00    +0.000 C 
ATOM     11  O   UNL     1       6.331   4.995  16.706  0.00  0.00    +0.000 OA
ATOM     12  C   UNL     1       5.666   4.101  15.804  0.00  0.00    +0.000 C 
BRANCH  12  13
ATOM     13  C   UNL     1       6.241   3.839  14.453  0.00  0.00    +0.000 C 
BRANCH  13  14
ATOM     14  C   UNL     1       5.224   3.656  13.364  0.00  0.00    +0.000 C 
ATOM     15  C   UNL     1       5.409   3.195  12.111  0.00  0.00    +0.000 C 
ATOM     16  C   UNL     1       6.732   2.776  11.517  0.00  0.00    +0.000 C 
ATOM     17  C   UNL     1       4.247   3.078  11.157  0.00  0.00    +0.000 C 
ENDBRANCH  13  14
ENDBRANCH  12  13
ENDBRANCH   7   9
BRANCH   8  18
ATOM     18  O   UNL     1       4.618   5.539  19.588  0.00  0.00    +0.000 OA
ATOM     19  C   UNL     1       6.026   5.481  19.479  0.00  0.00    +0.000 C 
ENDBRANCH   8  18
BRANCH   1  20
ATOM     20  O   UNL     1       2.602   7.210  20.379  0.00  0.00    +0.000 OA
BRANCH  20  22
ATOM     21  N   UNL     1       1.261   8.894  19.949  0.00  0.00    +0.000 N 
ATOM     22  C   UNL     1       1.529   7.900  20.831  0.00  0.00    +0.000 C 
ATOM     23  O   UNL     1       0.872   7.619  21.819  0.00  0.00    +0.000 OA
ATOM     24  H   UNL     1       1.934   8.996  19.198  0.00  0.00    +0.000 HD
BRANCH  21  25
ATOM     25  C   UNL     1      -0.005   9.621  19.818  0.00  0.00    +0.000 C 
BRANCH  25  26
ATOM     26  C   UNL     1       0.131  10.867  20.716  0.00  0.00    +0.000 C 
ATOM     27  O   UNL     1       1.136  11.572  20.744  0.00  0.00    +0.000 OA
BRANCH  26  29
ATOM     28  C   UNL     1      -0.870  11.095  22.849  0.00  0.00    +0.000 C 
ATOM     29  O   UNL     1      -1.009  11.121  21.418  0.00  0.00    +0.000 OA
ENDBRANCH  26  29
ENDBRANCH  25  26
BRANCH  25  30
ATOM     30  C   UNL     1      -0.216  10.100  18.369  0.00  0.00    +0.000 C 
BRANCH  30  31
ATOM     31  C   UNL     1      -1.657  10.489  17.980  0.00  0.00    +0.000 C 
ATOM     32  C   UNL     1      -1.859  12.004  17.934  0.00  0.00    +0.000 C 
ATOM     33  C   UNL     1      -2.025   9.865  16.637  0.00  0.00    +0.000 C 
ENDBRANCH  30  31
ENDBRANCH  25  30
ENDBRANCH  21  25
ENDBRANCH  20  22
ENDBRANCH   1  20
TORSDOF 11
ENDMDL
MODEL 5
REMARK VINA RESULT:      -7.0      1.883      2.714
REMARK  Name = 
REMARK  18 active torsions:
REMARK  status: ('A' for Active; 'I' for Inactive)
REMARK    1  A    between atoms: C_1  and  O_2
REMARK    2  A    between atoms: O_2  and  C_3
REMARK    3  A    between atoms: C_3  and  C_5
REMARK    4  A    between atoms: C_5  and  C_6
REMARK    5  A    between atoms: C_5  and  N_10
REMARK    6  A    between atoms: C_6  and  C_7
REMARK    7  A    between atoms: C_7  and  C_8
REMARK    8  A    between atoms: C_7  and  C_9
REMARK    9  A    between atoms: C_11  and  O_13
REMARK   10  A    between atoms: O_13  and  C_14
REMARK   11  A    between atoms: C_20  and  C_21
REMARK   12  A    between atoms: C_21  and  C_22
REMARK   13  A    between atoms: C_24  and  C_25
REMARK   14  A    between atoms: C_25  and  C_26
REMARK   15  A    between atoms: C_27  and  C_28
REMARK   16  A    between atoms: C_27  and  C_29
REMARK   17  A    between atoms: C_30  and  O_31
REMARK   18  A    between atoms: O_31  and  C_32
REMARK                            x       y       z     vdW  Elec       q    Type
REMARK                         _______ _______ _______ _____ _____    ______ ____
ROOT
ATOM      1  C   UNL     1       3.055   7.145  17.640  0.00  0.00    +0.000 C 
ATOM      2  C   UNL     1       2.751   6.484  18.993  0.00  0.00    +0.000 C 
ATOM      3  C   UNL     1       2.920   4.978  18.924  0.00  0.00    +0.000 C 
ATOM      4  C   UNL     1       4.285   4.630  18.397  0.00  0.00    +0.000 C 
ATOM      5  C   UNL     1       5.402   4.329  19.369  0.00  0.00    +0.000 C 
ATOM      6  O   UNL     1       4.639   3.292  18.732  0.00  0.00    +0.000 OA
ATOM      7  C   UNL     1       4.573   5.169  16.998  0.00  0.00    +0.000 C 
ATOM      8  C   UNL     1       4.483   6.740  17.107  0.00  0.00    +0.000 C 
ENDROOT
BRANCH   7   9
ATOM      9  C   UNL     1       5.685   4.584  16.089  0.00  0.00    +0.000 C 
ATOM     10  C   UNL     1       7.108   4.918  16.475  0.00  0.00    +0.000 C 
ATOM     11  O   UNL     1       5.610   3.234  15.613  0.00  0.00    +0.000 OA
ATOM     12  C   UNL     1       5.341   4.234  14.621  0.00  0.00    +0.000 C 
BRANCH  12  13
ATOM     13  C   UNL     1       6.271   4.412  13.469  0.00  0.00    +0.000 C 
BRANCH  13  14
ATOM     14  C   UNL     1       6.488   3.177  12.644  0.00  0.00    +0.000 C 
ATOM     15  C   UNL     1       5.669   2.626  11.726  0.00  0.00    +0.000 C 
ATOM     16  C   UNL     1       4.302   3.143  11.346  0.00  0.00    +0.000 C 
ATOM     17  C   UNL     1       6.073   1.373  10.990  0.00  0.00    +0.000 C 
ENDBRANCH  13  14
ENDBRANCH  12  13
ENDBRANCH   7   9
BRANCH   8  18
ATOM     18  O   UNL     1       5.412   7.306  18.053  0.00  0.00    +0.000 OA
ATOM     19  C   UNL     1       6.566   7.908  17.503  0.00  0.00    +0.000 C 
ENDBRANCH   8  18
BRANCH   1  20
ATOM     20  O   UNL     1       3.007   8.587  17.808  0.00  0.00    +0.000 OA
BRANCH  20  22
ATOM     21  N   UNL     1       1.888  10.025  19.033  0.00  0.00    +0.000 N 
ATOM     22  C   UNL     1       1.797   9.168  17.986  0.00  0.00    +0.000 C 
ATOM     23  O   UNL     1       0.822   9.005  17.273  0.00  0.00    +0.000 OA
ATOM     24  H   UNL     1       2.772  10.007  19.528  0.00  0.00    +0.000 HD
BRANCH  21  25
ATOM     25  C   UNL     1       0.974  11.132  19.331  0.00  0.00    +0.000 C 
BRANCH  25  26
ATOM     26  C   UNL     1       0.364  10.814  20.711  0.00  0.00    +0.000 C 
ATOM     27  O   UNL     1      -0.819  10.995  20.983  0.00  0.00    +0.000 OA
BRANCH  26  29
ATOM     28  C   UNL     1       0.734   9.342  22.528  0.00  0.00    +0.000 C 
ATOM     29  O   UNL     1       1.274  10.256  21.557  0.00  0.00    +0.000 OA
ENDBRANCH  26  29
ENDBRANCH  25  26
BRANCH  25  30
ATOM     30  C   UNL     1       1.743  12.462  19.446  0.00  0.00    +0.000 C 
BRANCH  30  31
ATOM     31  C   UNL     1       1.222  13.630  18.582  0.00  0.00    +0.000 C 
ATOM     32  C   UNL     1      -0.297  13.588  18.404  0.00  0.00    +0.000 C 
ATOM     33  C   UNL     1       1.647  14.963  19.191  0.00  0.00    +0.000 C 
ENDBRANCH  30  31
ENDBRANCH  25  30
ENDBRANCH  21  25
ENDBRANCH  20  22
ENDBRANCH   1  20
TORSDOF 11
ENDMDL
MODEL 6
REMARK VINA RESULT:      -7.0      3.401     10.688
REMARK  Name = 
REMARK  18 active torsions:
REMARK  status: ('A' for Active; 'I' for Inactive)
REMARK    1  A    between atoms: C_1  and  O_2
REMARK    2  A    between atoms: O_2  and  C_3
REMARK    3  A    between atoms: C_3  and  C_5
REMARK    4  A    between atoms: C_5  and  C_6
REMARK    5  A    between atoms: C_5  and  N_10
REMARK    6  A    between atoms: C_6  and  C_7
REMARK    7  A    between atoms: C_7  and  C_8
REMARK    8  A    between atoms: C_7  and  C_9
REMARK    9  A    between atoms: C_11  and  O_13
REMARK   10  A    between atoms: O_13  and  C_14
REMARK   11  A    between atoms: C_20  and  C_21
REMARK   12  A    between atoms: C_21  and  C_22
REMARK   13  A    between atoms: C_24  and  C_25
REMARK   14  A    between atoms: C_25  and  C_26
REMARK   15  A    between atoms: C_27  and  C_28
REMARK   16  A    between atoms: C_27  and  C_29
REMARK   17  A    between atoms: C_30  and  O_31
REMARK   18  A    between atoms: O_31  and  C_32
REMARK                            x       y       z     vdW  Elec       q    Type
REMARK                         _______ _______ _______ _____ _____    ______ ____
ROOT
ATOM      1  C   UNL     1       0.679   9.764  19.376  0.00  0.00    +0.000 C 
ATOM      2  C   UNL     1      -0.228  10.025  18.163  0.00  0.00    +0.000 C 
ATOM      3  C   UNL     1      -1.645  10.355  18.593  0.00  0.00    +0.000 C 
ATOM      4  C   UNL     1      -1.641  11.494  19.575  0.00  0.00    +0.000 C 
ATOM      5  C   UNL     1      -1.868  12.903  19.079  0.00  0.00    +0.000 C 
ATOM      6  O   UNL     1      -2.921  12.112  19.651  0.00  0.00    +0.000 OA
ATOM      7  C   UNL     1      -0.848  11.218  20.850  0.00  0.00    +0.000 C 
ATOM      8  C   UNL     1       0.642  10.967  20.395  0.00  0.00    +0.000 C 
ENDROOT
BRANCH   7   9
ATOM      9  C   UNL     1      -1.062  12.023  22.158  0.00  0.00    +0.000 C 
ATOM     10  C   UNL     1      -1.915  11.363  23.218  0.00  0.00    +0.000 C 
ATOM     11  O   UNL     1       0.024  12.729  22.773  0.00  0.00    +0.000 OA
ATOM     12  C   UNL     1      -0.937  13.566  22.114  0.00  0.00    +0.000 C 
BRANCH  12  13
ATOM     13  C   UNL     1      -1.778  14.506  22.910  0.00  0.00    +0.000 C 
BRANCH  13  14
ATOM     14  C   UNL     1      -1.174  14.934  24.215  0.00  0.00    +0.000 C 
ATOM     15  C   UNL     1      -1.718  15.700  25.181  0.00  0.00    +0.000 C 
ATOM     16  C   UNL     1      -3.089  16.331  25.133  0.00  0.00    +0.000 C 
ATOM     17  C   UNL     1      -0.945  16.017  26.436  0.00  0.00    +0.000 C 
ENDBRANCH  13  14
ENDBRANCH  12  13
ENDBRANCH   7   9
BRANCH   8  18
ATOM     18  O   UNL     1       1.222  12.079  19.685  0.00  0.00    +0.000 OA
ATOM     19  C   UNL     1       2.208  12.813  20.384  0.00  0.00    +0.000 C 
ENDBRANCH   8  18
BRANCH   1  20
ATOM     20  O   UNL     1       2.041   9.588  18.905  0.00  0.00    +0.000 OA
BRANCH  20  22
ATOM     21  N   UNL     1       2.385   7.453  19.286  0.00  0.00    +0.000 N 
ATOM     22  C   UNL     1       2.368   8.409  18.325  0.00  0.00    +0.000 C 
ATOM     23  O   UNL     1       2.535   8.231  17.130  0.00  0.00    +0.000 OA
ATOM     24  H   UNL     1       2.252   7.792  20.232  0.00  0.00    +0.000 HD
BRANCH  21  25
ATOM     25  C   UNL     1       2.298   6.006  19.073  0.00  0.00    +0.000 C 
BRANCH  25  26
ATOM     26  C   UNL     1       3.720   5.552  18.684  0.00  0.00    +0.000 C 
ATOM     27  O   UNL     1       4.668   5.560  19.464  0.00  0.00    +0.000 OA
BRANCH  26  29
ATOM     28  C   UNL     1       4.218   3.726  17.261  0.00  0.00    +0.000 C 
ATOM     29  O   UNL     1       3.778   5.088  17.404  0.00  0.00    +0.000 OA
ENDBRANCH  26  29
ENDBRANCH  25  26
BRANCH  25  30
ATOM     30  C   UNL     1       1.907   5.282  20.376  0.00  0.00    +0.000 C 
BRANCH  30  31
ATOM     31  C   UNL     1       1.974   3.741  20.348  0.00  0.00    +0.000 C 
ATOM     32  C   UNL     1       1.968   3.133  21.752  0.00  0.00    +0.000 C 
ATOM     33  C   UNL     1       0.818   3.181  19.524  0.00  0.00    +0.000 C 
ENDBRANCH  30  31
ENDBRANCH  25  30
ENDBRANCH  21  25
ENDBRANCH  20  22
ENDBRANCH   1  20
TORSDOF 11
ENDMDL
MODEL 7
REMARK VINA RESULT:      -7.0      2.611      9.380
REMARK  Name = 
REMARK  18 active torsions:
REMARK  status: ('A' for Active; 'I' for Inactive)
REMARK    1  A    between atoms: C_1  and  O_2
REMARK    2  A    between atoms: O_2  and  C_3
REMARK    3  A    between atoms: C_3  and  C_5
REMARK    4  A    between atoms: C_5  and  C_6
REMARK    5  A    between atoms: C_5  and  N_10
REMARK    6  A    between atoms: C_6  and  C_7
REMARK    7  A    between atoms: C_7  and  C_8
REMARK    8  A    between atoms: C_7  and  C_9
REMARK    9  A    between atoms: C_11  and  O_13
REMARK   10  A    between atoms: O_13  and  C_14
REMARK   11  A    between atoms: C_20  and  C_21
REMARK   12  A    between atoms: C_21  and  C_22
REMARK   13  A    between atoms: C_24  and  C_25
REMARK   14  A    between atoms: C_25  and  C_26
REMARK   15  A    between atoms: C_27  and  C_28
REMARK   16  A    between atoms: C_27  and  C_29
REMARK   17  A    between atoms: C_30  and  O_31
REMARK   18  A    between atoms: O_31  and  C_32
REMARK                            x       y       z     vdW  Elec       q    Type
REMARK                         _______ _______ _______ _____ _____    ______ ____
ROOT
ATOM      1  C   UNL     1       0.953   9.603  20.543  0.00  0.00    +0.000 C 
ATOM      2  C   UNL     1       0.115   8.986  21.673  0.00  0.00    +0.000 C 
ATOM      3  C   UNL     1      -0.022   9.940  22.844  0.00  0.00    +0.000 C 
ATOM      4  C   UNL     1      -0.555  11.266  22.378  0.00  0.00    +0.000 C 
ATOM      5  C   UNL     1      -2.037  11.545  22.469  0.00  0.00    +0.000 C 
ATOM      6  O   UNL     1      -1.107  12.007  23.461  0.00  0.00    +0.000 OA
ATOM      7  C   UNL     1       0.322  11.965  21.343  0.00  0.00    +0.000 C 
ATOM      8  C   UNL     1       0.380  11.002  20.094  0.00  0.00    +0.000 C 
ENDROOT
BRANCH   7   9
ATOM      9  C   UNL     1       0.230  13.486  21.059  0.00  0.00    +0.000 C 
ATOM     10  C   UNL     1      -0.857  13.925  20.104  0.00  0.00    +0.000 C 
ATOM     11  O   UNL     1       0.362  14.441  22.121  0.00  0.00    +0.000 OA
ATOM     12  C   UNL     1       1.496  14.358  21.246  0.00  0.00    +0.000 C 
BRANCH  12  13
ATOM     13  C   UNL     1       1.858  15.519  20.383  0.00  0.00    +0.000 C 
BRANCH  13  14
ATOM     14  C   UNL     1       3.157  15.371  19.646  0.00  0.00    +0.000 C 
ATOM     15  C   UNL     1       3.456  14.535  18.632  0.00  0.00    +0.000 C 
ATOM     16  C   UNL     1       2.518  13.520  18.025  0.00  0.00    +0.000 C 
ATOM     17  C   UNL     1       4.832  14.540  18.014  0.00  0.00    +0.000 C 
ENDBRANCH  13  14
ENDBRANCH  12  13
ENDBRANCH   7   9
BRANCH   8  18
ATOM     18  O   UNL     1      -0.914  10.714  19.529  0.00  0.00    +0.000 OA
ATOM     19  C   UNL     1      -1.058  10.975  18.148  0.00  0.00    +0.000 C 
ENDBRANCH   8  18
BRANCH   1  20
ATOM     20  O   UNL     1       0.932   8.700  19.405  0.00  0.00    +0.000 OA
BRANCH  20  22
ATOM     21  N   UNL     1       2.292   7.003  19.711  0.00  0.00    +0.000 N 
ATOM     22  C   UNL     1       2.103   8.147  19.008  0.00  0.00    +0.000 C 
ATOM     23  O   UNL     1       2.817   8.568  18.114  0.00  0.00    +0.000 OA
ATOM     24  H   UNL     1       1.607   6.826  20.437  0.00  0.00    +0.000 HD
BRANCH  21  25
ATOM     25  C   UNL     1       3.189   5.901  19.351  0.00  0.00    +0.000 C 
BRANCH  25  26
ATOM     26  C   UNL     1       2.741   4.698  20.205  0.00  0.00    +0.000 C 
ATOM     27  O   UNL     1       2.258   4.811  21.328  0.00  0.00    +0.000 OA
BRANCH  26  29
ATOM     28  C   UNL     1       3.989   2.699  19.977  0.00  0.00    +0.000 C 
ATOM     29  O   UNL     1       2.887   3.516  19.544  0.00  0.00    +0.000 OA
ENDBRANCH  26  29
ENDBRANCH  25  26
BRANCH  25  30
ATOM     30  C   UNL     1       3.020   5.519  17.867  0.00  0.00    +0.000 C 
BRANCH  30  31
ATOM     31  C   UNL     1       4.302   5.536  17.008  0.00  0.00    +0.000 C 
ATOM     32  C   UNL     1       5.501   6.113  17.763  0.00  0.00    +0.000 C 
ATOM     33  C   UNL     1       4.618   4.130  16.509  0.00  0.00    +0.000 C 
ENDBRANCH  30  31
ENDBRANCH  25  30
ENDBRANCH  21  25
ENDBRANCH  20  22
ENDBRANCH   1  20
TORSDOF 11
ENDMDL
MODEL 8
REMARK VINA RESULT:      -7.0      3.195      9.145
REMARK  Name = 
REMARK  18 active torsions:
REMARK  status: ('A' for Active; 'I' for Inactive)
REMARK    1  A    between atoms: C_1  and  O_2
REMARK    2  A    between atoms: O_2  and  C_3
REMARK    3  A    between atoms: C_3  and  C_5
REMARK    4  A    between atoms: C_5  and  C_6
REMARK    5  A    between atoms: C_5  and  N_10
REMARK    6  A    between atoms: C_6  and  C_7
REMARK    7  A    between atoms: C_7  and  C_8
REMARK    8  A    between atoms: C_7  and  C_9
REMARK    9  A    between atoms: C_11  and  O_13
REMARK   10  A    between atoms: O_13  and  C_14
REMARK   11  A    between atoms: C_20  and  C_21
REMARK   12  A    between atoms: C_21  and  C_22
REMARK   13  A    between atoms: C_24  and  C_25
REMARK   14  A    between atoms: C_25  and  C_26
REMARK   15  A    between atoms: C_27  and  C_28
REMARK   16  A    between atoms: C_27  and  C_29
REMARK   17  A    between atoms: C_30  and  O_31
REMARK   18  A    between atoms: O_31  and  C_32
REMARK                            x       y       z     vdW  Elec       q    Type
REMARK                         _______ _______ _______ _____ _____    ______ ____
ROOT
ATOM      1  C   UNL     1       1.196   9.153  20.024  0.00  0.00    +0.000 C 
ATOM      2  C   UNL     1       0.482   8.510  21.223  0.00  0.00    +0.000 C 
ATOM      3  C   UNL     1       0.540   9.404  22.447  0.00  0.00    +0.000 C 
ATOM      4  C   UNL     1       0.012  10.773  22.119  0.00  0.00    +0.000 C 
ATOM      5  C   UNL     1      -1.432  11.103  22.416  0.00  0.00    +0.000 C 
ATOM      6  O   UNL     1      -0.362  11.476  23.299  0.00  0.00    +0.000 OA
ATOM      7  C   UNL     1       0.780  11.492  21.012  0.00  0.00    +0.000 C 
ATOM      8  C   UNL     1       0.633  10.596  19.723  0.00  0.00    +0.000 C 
ENDROOT
BRANCH   7   9
ATOM      9  C   UNL     1       0.721  13.029  20.817  0.00  0.00    +0.000 C 
ATOM     10  C   UNL     1      -0.454  13.558  20.026  0.00  0.00    +0.000 C 
ATOM     11  O   UNL     1       1.023  13.919  21.899  0.00  0.00    +0.000 OA
ATOM     12  C   UNL     1       2.037  13.841  20.888  0.00  0.00    +0.000 C 
BRANCH  12  13
ATOM     13  C   UNL     1       2.341  15.033  20.044  0.00  0.00    +0.000 C 
BRANCH  13  14
ATOM     14  C   UNL     1       3.369  14.797  18.976  0.00  0.00    +0.000 C 
ATOM     15  C   UNL     1       4.664  15.171  18.960  0.00  0.00    +0.000 C 
ATOM     16  C   UNL     1       5.364  15.957  20.042  0.00  0.00    +0.000 C 
ATOM     17  C   UNL     1       5.546  14.832  17.785  0.00  0.00    +0.000 C 
ENDBRANCH  13  14
ENDBRANCH  12  13
ENDBRANCH   7   9
BRANCH   8  18
ATOM     18  O   UNL     1      -0.735  10.388  19.318  0.00  0.00    +0.000 OA
ATOM     19  C   UNL     1      -1.026  10.656  17.961  0.00  0.00    +0.000 C 
ENDBRANCH   8  18
BRANCH   1  20
ATOM     20  O   UNL     1       0.988   8.314  18.857  0.00  0.00    +0.000 OA
BRANCH  20  22
ATOM     21  N   UNL     1       2.393   6.658  18.533  0.00  0.00    +0.000 N 
ATOM     22  C   UNL     1       2.076   7.921  18.153  0.00  0.00    +0.000 C 
ATOM     23  O   UNL     1       2.619   8.565  17.272  0.00  0.00    +0.000 OA
ATOM     24  H   UNL     1       1.846   6.291  19.303  0.00  0.00    +0.000 HD
BRANCH  21  25
ATOM     25  C   UNL     1       3.221   5.709  17.784  0.00  0.00    +0.000 C 
BRANCH  25  26
ATOM     26  C   UNL     1       4.683   6.090  18.094  0.00  0.00    +0.000 C 
ATOM     27  O   UNL     1       5.340   6.861  17.402  0.00  0.00    +0.000 OA
BRANCH  26  29
ATOM     28  C   UNL     1       6.552   5.353  19.347  0.00  0.00    +0.000 C 
ATOM     29  O   UNL     1       5.127   5.521  19.250  0.00  0.00    +0.000 OA
ENDBRANCH  26  29
ENDBRANCH  25  26
BRANCH  25  30
ATOM     30  C   UNL     1       2.989   4.268  18.281  0.00  0.00    +0.000 C 
BRANCH  30  31
ATOM     31  C   UNL     1       1.674   4.013  19.045  0.00  0.00    +0.000 C 
ATOM     32  C   UNL     1       1.009   2.697  18.637  0.00  0.00    +0.000 C 
ATOM     33  C   UNL     1       1.929   4.031  20.550  0.00  0.00    +0.000 C 
ENDBRANCH  30  31
ENDBRANCH  25  30
ENDBRANCH  21  25
ENDBRANCH  20  22
ENDBRANCH   1  20
TORSDOF 11
ENDMDL
MODEL 9
REMARK VINA RESULT:      -6.9      1.690      2.779
REMARK  Name = 
REMARK  18 active torsions:
REMARK  status: ('A' for Active; 'I' for Inactive)
REMARK    1  A    between atoms: C_1  and  O_2
REMARK    2  A    between atoms: O_2  and  C_3
REMARK    3  A    between atoms: C_3  and  C_5
REMARK    4  A    between atoms: C_5  and  C_6
REMARK    5  A    between atoms: C_5  and  N_10
REMARK    6  A    between atoms: C_6  and  C_7
REMARK    7  A    between atoms: C_7  and  C_8
REMARK    8  A    between atoms: C_7  and  C_9
REMARK    9  A    between atoms: C_11  and  O_13
REMARK   10  A    between atoms: O_13  and  C_14
REMARK   11  A    between atoms: C_20  and  C_21
REMARK   12  A    between atoms: C_21  and  C_22
REMARK   13  A    between atoms: C_24  and  C_25
REMARK   14  A    between atoms: C_25  and  C_26
REMARK   15  A    between atoms: C_27  and  C_28
REMARK   16  A    between atoms: C_27  and  C_29
REMARK   17  A    between atoms: C_30  and  O_31
REMARK   18  A    between atoms: O_31  and  C_32
REMARK                            x       y       z     vdW  Elec       q    Type
REMARK                         _______ _______ _______ _____ _____    ______ ____
ROOT
ATOM      1  C   UNL     1       3.039   7.092  17.716  0.00  0.00    +0.000 C 
ATOM      2  C   UNL     1       2.799   6.471  19.101  0.00  0.00    +0.000 C 
ATOM      3  C   UNL     1       2.998   4.968  19.076  0.00  0.00    +0.000 C 
ATOM      4  C   UNL     1       4.350   4.629  18.511  0.00  0.00    +0.000 C 
ATOM      5  C   UNL     1       5.508   4.384  19.449  0.00  0.00    +0.000 C 
ATOM      6  O   UNL     1       4.744   3.311  18.876  0.00  0.00    +0.000 OA
ATOM      7  C   UNL     1       4.574   5.127  17.085  0.00  0.00    +0.000 C 
ATOM      8  C   UNL     1       4.456   6.698  17.144  0.00  0.00    +0.000 C 
ENDROOT
BRANCH   7   9
ATOM      9  C   UNL     1       5.665   4.534  16.155  0.00  0.00    +0.000 C 
ATOM     10  C   UNL     1       7.099   4.756  16.579  0.00  0.00    +0.000 C 
ATOM     11  O   UNL     1       5.518   3.222  15.594  0.00  0.00    +0.000 OA
ATOM     12  C   UNL     1       5.325   4.296  14.663  0.00  0.00    +0.000 C 
BRANCH  12  13
ATOM     13  C   UNL     1       6.283   4.489  13.537  0.00  0.00    +0.000 C 
BRANCH  13  14
ATOM     14  C   UNL     1       6.527   3.262  12.707  0.00  0.00    +0.000 C 
ATOM     15  C   UNL     1       5.717   2.693  11.792  0.00  0.00    +0.000 C 
ATOM     16  C   UNL     1       4.336   3.175  11.422  0.00  0.00    +0.000 C 
ATOM     17  C   UNL     1       6.149   1.453  11.050  0.00  0.00    +0.000 C 
ENDBRANCH  13  14
ENDBRANCH  12  13
ENDBRANCH   7   9
BRANCH   8  18
ATOM     18  O   UNL     1       5.405   7.314  18.035  0.00  0.00    +0.000 OA
ATOM     19  C   UNL     1       6.573   7.834  17.432  0.00  0.00    +0.000 C 
ENDBRANCH   8  18
BRANCH   1  20
ATOM     20  O   UNL     1       2.967   8.537  17.838  0.00  0.00    +0.000 OA
BRANCH  20  22
ATOM     21  N   UNL     1       1.794  10.005  18.976  0.00  0.00    +0.000 N 
ATOM     22  C   UNL     1       1.744   9.106  17.962  0.00  0.00    +0.000 C 
ATOM     23  O   UNL     1       0.791   8.900  17.230  0.00  0.00    +0.000 OA
ATOM     24  H   UNL     1       2.665  10.020  19.494  0.00  0.00    +0.000 HD
BRANCH  21  25
ATOM     25  C   UNL     1       0.857  11.108  19.206  0.00  0.00    +0.000 C 
BRANCH  25  26
ATOM     26  C   UNL     1      -0.397  10.469  19.836  0.00  0.00    +0.000 C 
ATOM     27  O   UNL     1      -0.370   9.808  20.870  0.00  0.00    +0.000 OA
BRANCH  26  29
ATOM     28  C   UNL     1      -1.376  11.769  18.116  0.00  0.00    +0.000 C 
ATOM     29  O   UNL     1      -1.531  10.778  19.147  0.00  0.00    +0.000 OA
ENDBRANCH  26  29
ENDBRANCH  25  26
BRANCH  25  30
ATOM     30  C   UNL     1       1.436  12.117  20.217  0.00  0.00    +0.000 C 
BRANCH  30  31
ATOM     31  C   UNL     1       2.144  13.351  19.620  0.00  0.00    +0.000 C 
ATOM     32  C   UNL     1       2.177  13.321  18.091  0.00  0.00    +0.000 C 
ATOM     33  C   UNL     1       1.472  14.630  20.109  0.00  0.00    +0.000 C 
ENDBRANCH  30  31
ENDBRANCH  25  30
ENDBRANCH  21  25
ENDBRANCH  20  22
ENDBRANCH   1  20
TORSDOF 11
ENDMDL
