MODEL 1
REMARK VINA RESULT:      -7.0      0.000      0.000
REMARK  Name = 
REMARK  1 active torsions:
REMARK  status: ('A' for Active; 'I' for Inactive)
REMARK    1  A    between atoms: C_4  and  C_5
REMARK                            x       y       z     vdW  Elec       q    Type
REMARK                         _______ _______ _______ _____ _____    ______ ____
ROOT
ATOM      1  S   UNL     1       7.562   5.760  19.041  0.00  0.00    +0.000 S 
ATOM      2  C   UNL     1       6.305   5.055  18.192  0.00  0.00    +0.000 A 
ATOM      3  O   UNL     1       5.219   4.738  18.952  0.00  0.00    +0.000 OA
ATOM      4  C   UNL     1       4.084   4.109  18.399  0.00  0.00    +0.000 A 
ATOM      5  C   UNL     1       3.996   3.803  17.100  0.00  0.00    +0.000 A 
ATOM      6  C   UNL     1       5.108   4.136  16.221  0.00  0.00    +0.000 A 
ATOM      7  C   UNL     1       5.023   3.847  14.853  0.00  0.00    +0.000 A 
ATOM      8  C   UNL     1       6.069   4.184  13.996  0.00  0.00    +0.000 A 
ATOM      9  C   UNL     1       7.206   4.807  14.501  0.00  0.00    +0.000 A 
ATOM     10  C   UNL     1       7.302   5.092  15.865  0.00  0.00    +0.000 A 
ATOM     11  C   UNL     1       6.251   4.759  16.737  0.00  0.00    +0.000 A 
ENDROOT
BRANCH   4  12
ATOM     12  C   UNL     1       3.023   3.879  19.330  0.00  0.00    +0.000 A 
ATOM     13  C   UNL     1       1.805   4.541  19.415  0.00  0.00    +0.000 A 
ATOM     14  C   UNL     1       0.955   4.040  20.444  0.00  0.00    +0.000 A 
ATOM     15  C   UNL     1       1.553   3.023  21.150  0.00  0.00    +0.000 A 
ATOM     16  S   UNL     1       3.122   2.685  20.577  0.00  0.00    +0.000 S 
ENDBRANCH   4  12
TORSDOF 1
ENDMDL
MODEL 2
REMARK VINA RESULT:      -7.0      1.868      5.852
REMARK  Name = 
REMARK  1 active torsions:
REMARK  status: ('A' for Active; 'I' for Inactive)
REMARK    1  A    between atoms: C_4  and  C_5
REMARK                            x       y       z     vdW  Elec       q    Type
REMARK                         _______ _______ _______ _____ _____    ______ ____
ROOT
ATOM      1  S   UNL     1       2.433   7.534  18.636  0.00  0.00    +0.000 S 
ATOM      2  C   UNL     1       2.889   5.950  18.349  0.00  0.00    +0.000 A 
ATOM      3  O   UNL     1       3.818   5.800  17.364  0.00  0.00    +0.000 OA
ATOM      4  C   UNL     1       4.289   4.529  16.974  0.00  0.00    +0.000 A 
ATOM      5  C   UNL     1       3.868   3.400  17.555  0.00  0.00    +0.000 A 
ATOM      6  C   UNL     1       2.894   3.484  18.634  0.00  0.00    +0.000 A 
ATOM      7  C   UNL     1       2.462   2.314  19.272  0.00  0.00    +0.000 A 
ATOM      8  C   UNL     1       1.549   2.382  20.324  0.00  0.00    +0.000 A 
ATOM      9  C   UNL     1       1.062   3.616  20.740  0.00  0.00    +0.000 A 
ATOM     10  C   UNL     1       1.483   4.787  20.104  0.00  0.00    +0.000 A 
ATOM     11  C   UNL     1       2.404   4.730  19.045  0.00  0.00    +0.000 A 
ENDROOT
BRANCH   4  12
ATOM     12  C   UNL     1       5.287   4.556  15.949  0.00  0.00    +0.000 A 
ATOM     13  C   UNL     1       5.220   3.996  14.680  0.00  0.00    +0.000 A 
ATOM     14  C   UNL     1       6.383   4.236  13.891  0.00  0.00    +0.000 A 
ATOM     15  C   UNL     1       7.332   4.948  14.584  0.00  0.00    +0.000 A 
ATOM     16  S   UNL     1       6.824   5.317  16.168  0.00  0.00    +0.000 S 
ENDBRANCH   4  12
TORSDOF 1
ENDMDL
MODEL 3
REMARK VINA RESULT:      -7.0      0.815      1.087
REMARK  Name = 
REMARK  1 active torsions:
REMARK  status: ('A' for Active; 'I' for Inactive)
REMARK    1  A    between atoms: C_4  and  C_5
REMARK                            x       y       z     vdW  Elec       q    Type
REMARK                         _______ _______ _______ _____ _____    ______ ____
ROOT
ATOM      1  S   UNL     1       7.695   5.776  19.112  0.00  0.00    +0.000 S 
ATOM      2  C   UNL     1       6.443   5.003  18.315  0.00  0.00    +0.000 A 
ATOM      3  O   UNL     1       5.425   4.596  19.124  0.00  0.00    +0.000 OA
ATOM      4  C   UNL     1       4.307   3.901  18.618  0.00  0.00    +0.000 A 
ATOM      5  C   UNL     1       4.168   3.617  17.319  0.00  0.00    +0.000 A 
ATOM      6  C   UNL     1       5.205   4.044  16.390  0.00  0.00    +0.000 A 
ATOM      7  C   UNL     1       5.064   3.778  15.021  0.00  0.00    +0.000 A 
ATOM      8  C   UNL     1       6.036   4.203  14.117  0.00  0.00    +0.000 A 
ATOM      9  C   UNL     1       7.154   4.893  14.575  0.00  0.00    +0.000 A 
ATOM     10  C   UNL     1       7.305   5.157  15.939  0.00  0.00    +0.000 A 
ATOM     11  C   UNL     1       6.330   4.734  16.858  0.00  0.00    +0.000 A 
ENDROOT
BRANCH   4  12
ATOM     12  C   UNL     1       3.317   3.579  19.599  0.00  0.00    +0.000 A 
ATOM     13  C   UNL     1       3.422   2.680  20.651  0.00  0.00    +0.000 A 
ATOM     14  C   UNL     1       2.255   2.620  21.468  0.00  0.00    +0.000 A 
ATOM     15  C   UNL     1       1.265   3.453  21.005  0.00  0.00    +0.000 A 
ATOM     16  S   UNL     1       1.741   4.291  19.599  0.00  0.00    +0.000 S 
ENDBRANCH   4  12
TORSDOF 1
ENDMDL
MODEL 4
REMARK VINA RESULT:      -6.5      3.416      4.264
REMARK  Name = 
REMARK  1 active torsions:
REMARK  status: ('A' for Active; 'I' for Inactive)
REMARK    1  A    between atoms: C_4  and  C_5
REMARK                            x       y       z     vdW  Elec       q    Type
REMARK                         _______ _______ _______ _____ _____    ______ ____
ROOT
ATOM      1  S   UNL     1       2.192   3.156  19.096  0.00  0.00    +0.000 S 
ATOM      2  C   UNL     1       2.748   4.633  18.541  0.00  0.00    +0.000 A 
ATOM      3  O   UNL     1       2.173   5.714  19.140  0.00  0.00    +0.000 OA
ATOM      4  C   UNL     1       2.505   7.033  18.768  0.00  0.00    +0.000 A 
ATOM      5  C   UNL     1       3.411   7.305  17.823  0.00  0.00    +0.000 A 
ATOM      6  C   UNL     1       4.086   6.200  17.157  0.00  0.00    +0.000 A 
ATOM      7  C   UNL     1       5.058   6.465  16.183  0.00  0.00    +0.000 A 
ATOM      8  C   UNL     1       5.731   5.418  15.556  0.00  0.00    +0.000 A 
ATOM      9  C   UNL     1       5.434   4.102  15.895  0.00  0.00    +0.000 A 
ATOM     10  C   UNL     1       4.462   3.828  16.860  0.00  0.00    +0.000 A 
ATOM     11  C   UNL     1       3.780   4.877  17.500  0.00  0.00    +0.000 A 
ENDROOT
BRANCH   4  12
ATOM     12  C   UNL     1       1.833   8.047  19.521  0.00  0.00    +0.000 A 
ATOM     13  C   UNL     1       1.499   8.026  20.869  0.00  0.00    +0.000 A 
ATOM     14  C   UNL     1       0.859   9.219  21.315  0.00  0.00    +0.000 A 
ATOM     15  C   UNL     1       0.684  10.118  20.291  0.00  0.00    +0.000 A 
ATOM     16  S   UNL     1       1.283   9.524  18.810  0.00  0.00    +0.000 S 
ENDBRANCH   4  12
TORSDOF 1
ENDMDL
MODEL 5
REMARK VINA RESULT:      -6.4      3.403      4.232
REMARK  Name = 
REMARK  1 active torsions:
REMARK  status: ('A' for Active; 'I' for Inactive)
REMARK    1  A    between atoms: C_4  and  C_5
REMARK                            x       y       z     vdW  Elec       q    Type
REMARK                         _______ _______ _______ _____ _____    ______ ____
ROOT
ATOM      1  S   UNL     1       1.915   3.307  18.272  0.00  0.00    +0.000 S 
ATOM      2  C   UNL     1       2.740   4.720  17.927  0.00  0.00    +0.000 A 
ATOM      3  O   UNL     1       2.153   5.850  18.413  0.00  0.00    +0.000 OA
ATOM      4  C   UNL     1       2.702   7.130  18.185  0.00  0.00    +0.000 A 
ATOM      5  C   UNL     1       3.834   7.311  17.496  0.00  0.00    +0.000 A 
ATOM      6  C   UNL     1       4.531   6.147  16.968  0.00  0.00    +0.000 A 
ATOM      7  C   UNL     1       5.732   6.316  16.267  0.00  0.00    +0.000 A 
ATOM      8  C   UNL     1       6.424   5.209  15.778  0.00  0.00    +0.000 A 
ATOM      9  C   UNL     1       5.917   3.929  15.983  0.00  0.00    +0.000 A 
ATOM     10  C   UNL     1       4.717   3.753  16.675  0.00  0.00    +0.000 A 
ATOM     11  C   UNL     1       4.014   4.862  17.174  0.00  0.00    +0.000 A 
ENDROOT
BRANCH   4  12
ATOM     12  C   UNL     1       1.977   8.201  18.795  0.00  0.00    +0.000 A 
ATOM     13  C   UNL     1       1.535   9.377  18.203  0.00  0.00    +0.000 A 
ATOM     14  C   UNL     1       0.810  10.224  19.090  0.00  0.00    +0.000 A 
ATOM     15  C   UNL     1       0.738   9.695  20.356  0.00  0.00    +0.000 A 
ATOM     16  S   UNL     1       1.542   8.196  20.469  0.00  0.00    +0.000 S 
ENDBRANCH   4  12
TORSDOF 1
ENDMDL
MODEL 6
REMARK VINA RESULT:      -6.4      3.012      3.769
REMARK  Name = 
REMARK  1 active torsions:
REMARK  status: ('A' for Active; 'I' for Inactive)
REMARK    1  A    between atoms: C_4  and  C_5
REMARK                            x       y       z     vdW  Elec       q    Type
REMARK                         _______ _______ _______ _____ _____    ______ ____
ROOT
ATOM      1  S   UNL     1       2.559   2.655  17.832  0.00  0.00    +0.000 S 
ATOM      2  C   UNL     1       3.243   4.163  17.591  0.00  0.00    +0.000 A 
ATOM      3  O   UNL     1       2.625   5.176  18.261  0.00  0.00    +0.000 OA
ATOM      4  C   UNL     1       3.055   6.515  18.144  0.00  0.00    +0.000 A 
ATOM      5  C   UNL     1       4.100   6.868  17.388  0.00  0.00    +0.000 A 
ATOM      6  C   UNL     1       4.826   5.835  16.664  0.00  0.00    +0.000 A 
ATOM      7  C   UNL     1       5.940   6.183  15.888  0.00  0.00    +0.000 A 
ATOM      8  C   UNL     1       6.660   5.201  15.209  0.00  0.00    +0.000 A 
ATOM      9  C   UNL     1       6.270   3.869  15.299  0.00  0.00    +0.000 A 
ATOM     10  C   UNL     1       5.156   3.514  16.066  0.00  0.00    +0.000 A 
ATOM     11  C   UNL     1       4.425   4.496  16.755  0.00  0.00    +0.000 A 
ENDROOT
BRANCH   4  12
ATOM     12  C   UNL     1       2.316   7.445  18.941  0.00  0.00    +0.000 A 
ATOM     13  C   UNL     1       1.916   7.305  20.263  0.00  0.00    +0.000 A 
ATOM     14  C   UNL     1       1.218   8.440  20.770  0.00  0.00    +0.000 A 
ATOM     15  C   UNL     1       1.068   9.415  19.814  0.00  0.00    +0.000 A 
ATOM     16  S   UNL     1       1.758   8.961  18.323  0.00  0.00    +0.000 S 
ENDBRANCH   4  12
TORSDOF 1
ENDMDL
MODEL 7
REMARK VINA RESULT:      -6.3      2.220      5.852
REMARK  Name = 
REMARK  1 active torsions:
REMARK  status: ('A' for Active; 'I' for Inactive)
REMARK    1  A    between atoms: C_4  and  C_5
REMARK                            x       y       z     vdW  Elec       q    Type
REMARK                         _______ _______ _______ _____ _____    ______ ____
ROOT
ATOM      1  S   UNL     1       2.525   7.474  18.671  0.00  0.00    +0.000 S 
ATOM      2  C   UNL     1       2.958   5.909  18.269  0.00  0.00    +0.000 A 
ATOM      3  O   UNL     1       3.941   5.820  17.328  0.00  0.00    +0.000 OA
ATOM      4  C   UNL     1       4.403   4.575  16.853  0.00  0.00    +0.000 A 
ATOM      5  C   UNL     1       3.922   3.412  17.305  0.00  0.00    +0.000 A 
ATOM      6  C   UNL     1       2.887   3.429  18.330  0.00  0.00    +0.000 A 
ATOM      7  C   UNL     1       2.390   2.220  18.835  0.00  0.00    +0.000 A 
ATOM      8  C   UNL     1       1.418   2.221  19.834  0.00  0.00    +0.000 A 
ATOM      9  C   UNL     1       0.937   3.428  20.332  0.00  0.00    +0.000 A 
ATOM     10  C   UNL     1       1.423   4.638  19.829  0.00  0.00    +0.000 A 
ATOM     11  C   UNL     1       2.404   4.647  18.823  0.00  0.00    +0.000 A 
ENDROOT
BRANCH   4  12
ATOM     12  C   UNL     1       5.460   4.664  15.894  0.00  0.00    +0.000 A 
ATOM     13  C   UNL     1       6.713   5.240  16.057  0.00  0.00    +0.000 A 
ATOM     14  C   UNL     1       7.545   5.129  14.905  0.00  0.00    +0.000 A 
ATOM     15  C   UNL     1       6.901   4.497  13.869  0.00  0.00    +0.000 A 
ATOM     16  S   UNL     1       5.310   4.049  14.284  0.00  0.00    +0.000 S 
ENDBRANCH   4  12
TORSDOF 1
ENDMDL
MODEL 8
REMARK VINA RESULT:      -6.3      1.108      1.174
REMARK  Name = 
REMARK  1 active torsions:
REMARK  status: ('A' for Active; 'I' for Inactive)
REMARK    1  A    between atoms: C_4  and  C_5
REMARK                            x       y       z     vdW  Elec       q    Type
REMARK                         _______ _______ _______ _____ _____    ______ ____
ROOT
ATOM      1  S   UNL     1       7.445   6.811  18.018  0.00  0.00    +0.000 S 
ATOM      2  C   UNL     1       6.284   5.790  17.378  0.00  0.00    +0.000 A 
ATOM      3  O   UNL     1       5.228   5.548  18.204  0.00  0.00    +0.000 OA
ATOM      4  C   UNL     1       4.176   4.684  17.832  0.00  0.00    +0.000 A 
ATOM      5  C   UNL     1       4.142   4.067  16.646  0.00  0.00    +0.000 A 
ATOM      6  C   UNL     1       5.225   4.299  15.700  0.00  0.00    +0.000 A 
ATOM      7  C   UNL     1       5.192   3.682  14.442  0.00  0.00    +0.000 A 
ATOM      8  C   UNL     1       6.209   3.915  13.517  0.00  0.00    +0.000 A 
ATOM      9  C   UNL     1       7.263   4.761  13.845  0.00  0.00    +0.000 A 
ATOM     10  C   UNL     1       7.306   5.375  15.099  0.00  0.00    +0.000 A 
ATOM     11  C   UNL     1       6.285   5.149  16.038  0.00  0.00    +0.000 A 
ENDROOT
BRANCH   4  12
ATOM     12  C   UNL     1       3.133   4.570  18.803  0.00  0.00    +0.000 A 
ATOM     13  C   UNL     1       3.055   5.183  20.047  0.00  0.00    +0.000 A 
ATOM     14  C   UNL     1       1.858   4.880  20.758  0.00  0.00    +0.000 A 
ATOM     15  C   UNL     1       1.054   4.013  20.057  0.00  0.00    +0.000 A 
ATOM     16  S   UNL     1       1.744   3.569  18.563  0.00  0.00    +0.000 S 
ENDBRANCH   4  12
TORSDOF 1
ENDMDL
MODEL 9
REMARK VINA RESULT:      -6.2      3.205      6.122
REMARK  Name = 
REMARK  1 active torsions:
REMARK  status: ('A' for Active; 'I' for Inactive)
REMARK    1  A    between atoms: C_4  and  C_5
REMARK                            x       y       z     vdW  Elec       q    Type
REMARK                         _______ _______ _______ _____ _____    ______ ____
ROOT
ATOM      1  S   UNL     1       2.280   4.816  20.994  0.00  0.00    +0.000 S 
ATOM      2  C   UNL     1       2.594   5.894  19.754  0.00  0.00    +0.000 A 
ATOM      3  O   UNL     1       3.412   5.408  18.778  0.00  0.00    +0.000 OA
ATOM      4  C   UNL     1       3.804   6.197  17.676  0.00  0.00    +0.000 A 
ATOM      5  C   UNL     1       3.385   7.457  17.513  0.00  0.00    +0.000 A 
ATOM      6  C   UNL     1       2.488   8.035  18.503  0.00  0.00    +0.000 A 
ATOM      7  C   UNL     1       2.017   9.344  18.334  0.00  0.00    +0.000 A 
ATOM      8  C   UNL     1       1.138   9.901  19.260  0.00  0.00    +0.000 A 
ATOM      9  C   UNL     1       0.726   9.156  20.360  0.00  0.00    +0.000 A 
ATOM     10  C   UNL     1       1.195   7.852  20.539  0.00  0.00    +0.000 A 
ATOM     11  C   UNL     1       2.080   7.281  19.610  0.00  0.00    +0.000 A 
ENDROOT
BRANCH   4  12
ATOM     12  C   UNL     1       4.636   5.520  16.730  0.00  0.00    +0.000 A 
ATOM     13  C   UNL     1       5.288   6.060  15.630  0.00  0.00    +0.000 A 
ATOM     14  C   UNL     1       6.068   5.110  14.907  0.00  0.00    +0.000 A 
ATOM     15  C   UNL     1       5.971   3.852  15.451  0.00  0.00    +0.000 A 
ATOM     16  S   UNL     1       4.947   3.821  16.813  0.00  0.00    +0.000 S 
ENDBRANCH   4  12
TORSDOF 1
ENDMDL
