MODEL 1
REMARK VINA RESULT:      -7.5      0.000      0.000
REMARK  Name = 
REMARK  6 active torsions:
REMARK  status: ('A' for Active; 'I' for Inactive)
REMARK    1  A    between atoms: C_1  and  C_2
REMARK    2  A    between atoms: N_4  and  C_5
REMARK    3  A    between atoms: C_11  and  C_12
REMARK    4  A    between atoms: N_18  and  S_19
REMARK    5  A    between atoms: S_19  and  C_22
REMARK    6  A    between atoms: C_25  and  C_26
REMARK                            x       y       z     vdW  Elec       q    Type
REMARK                         _______ _______ _______ _____ _____    ______ ____
ROOT
ATOM      1  C   UNL     1       0.444   7.223  20.643  0.00  0.00    +0.000 C 
ATOM      2  C   UNL     1       1.785   7.896  20.342  0.00  0.00    +0.000 C 
ATOM      3  C   UNL     1       1.556   9.423  20.216  0.00  0.00    +0.000 C 
ATOM      4  N   UNL     1       0.833   9.696  18.959  0.00  0.00    +0.000 N 
ATOM      5  C   UNL     1       1.659   9.367  17.788  0.00  0.00    +0.000 C 
ATOM      6  C   UNL     1       2.081   7.880  17.798  0.00  0.00    +0.000 C 
ATOM      7  N   UNL     1       2.524   7.340  19.131  0.00  0.00    +0.000 NA
ENDROOT
BRANCH   4   8
ATOM      8  C   UNL     1      -0.360  10.390  18.908  0.00  0.00    +0.000 A 
ATOM      9  C   UNL     1      -1.460   9.814  18.224  0.00  0.00    +0.000 A 
ATOM     10  C   UNL     1      -2.709  10.438  18.114  0.00  0.00    +0.000 A 
ATOM     11  C   UNL     1      -2.904  11.663  18.713  0.00  0.00    +0.000 A 
ATOM     12  F   UNL     1      -4.093  12.270  18.634  0.00  0.00    +0.000 F 
ATOM     13  C   UNL     1      -1.864  12.275  19.382  0.00  0.00    +0.000 A 
ATOM     14  C   UNL     1      -0.579  11.675  19.467  0.00  0.00    +0.000 A 
BRANCH  14  15
ATOM     15  C   UNL     1       0.445  12.584  20.106  0.00  0.00    +0.000 C 
ATOM     16  F   UNL     1       1.674  12.623  19.547  0.00  0.00    +0.000 F 
ATOM     17  F   UNL     1       0.034  13.887  20.116  0.00  0.00    +0.000 F 
ATOM     18  F   UNL     1       0.656  12.264  21.416  0.00  0.00    +0.000 F 
ENDBRANCH  14  15
ENDBRANCH   4   8
BRANCH   7  19
ATOM     19  S   UNL     1       2.735   5.639  19.130  0.00  0.00    +0.000 S 
ATOM     20  O   UNL     1       3.418   5.270  20.354  0.00  0.00    +0.000 OA
ATOM     21  O   UNL     1       1.476   5.017  18.755  0.00  0.00    +0.000 OA
BRANCH  19  22
ATOM     22  C   UNL     1       3.894   5.377  17.805  0.00  0.00    +0.000 A 
ATOM     23  C   UNL     1       4.852   6.367  17.556  0.00  0.00    +0.000 A 
ATOM     24  C   UNL     1       5.804   6.178  16.548  0.00  0.00    +0.000 A 
ATOM     25  C   UNL     1       5.803   4.994  15.797  0.00  0.00    +0.000 A 
ATOM     26  C   UNL     1       4.836   4.009  16.055  0.00  0.00    +0.000 A 
ATOM     27  C   UNL     1       3.883   4.195  17.062  0.00  0.00    +0.000 A 
BRANCH  25  28
ATOM     28  C   UNL     1       6.783   4.746  14.704  0.00  0.00    +0.000 C 
ATOM     29  N   UNL     1       6.519   3.732  13.826  0.00  0.00    +0.000 N 
ATOM     30  O   UNL     1       7.781   5.444  14.572  0.00  0.00    +0.000 OA
ATOM     31  H   UNL     1       5.626   3.264  13.765  0.00  0.00    +0.000 HD
ATOM     32  H   UNL     1       7.147   3.653  13.035  0.00  0.00    +0.000 HD
ENDBRANCH  25  28
ENDBRANCH  19  22
ENDBRANCH   7  19
TORSDOF 5
ENDMDL
MODEL 2
REMARK VINA RESULT:      -7.4      0.127      1.129
REMARK  Name = 
REMARK  6 active torsions:
REMARK  status: ('A' for Active; 'I' for Inactive)
REMARK    1  A    between atoms: C_1  and  C_2
REMARK    2  A    between atoms: N_4  and  C_5
REMARK    3  A    between atoms: C_11  and  C_12
REMARK    4  A    between atoms: N_18  and  S_19
REMARK    5  A    between atoms: S_19  and  C_22
REMARK    6  A    between atoms: C_25  and  C_26
REMARK                            x       y       z     vdW  Elec       q    Type
REMARK                         _______ _______ _______ _____ _____    ______ ____
ROOT
ATOM      1  C   UNL     1       0.449   7.281  20.651  0.00  0.00    +0.000 C 
ATOM      2  C   UNL     1       1.792   7.944  20.336  0.00  0.00    +0.000 C 
ATOM      3  C   UNL     1       1.572   9.472  20.203  0.00  0.00    +0.000 C 
ATOM      4  N   UNL     1       0.842   9.742  18.949  0.00  0.00    +0.000 N 
ATOM      5  C   UNL     1       1.657   9.401  17.774  0.00  0.00    +0.000 C 
ATOM      6  C   UNL     1       2.070   7.911  17.790  0.00  0.00    +0.000 C 
ATOM      7  N   UNL     1       2.519   7.376  19.123  0.00  0.00    +0.000 NA
ENDROOT
BRANCH   4   8
ATOM      8  C   UNL     1      -0.347  10.443  18.902  0.00  0.00    +0.000 A 
ATOM      9  C   UNL     1      -1.475   9.841  18.290  0.00  0.00    +0.000 A 
ATOM     10  C   UNL     1      -2.722  10.470  18.190  0.00  0.00    +0.000 A 
ATOM     11  C   UNL     1      -2.887  11.727  18.728  0.00  0.00    +0.000 A 
ATOM     12  F   UNL     1      -4.074  12.340  18.658  0.00  0.00    +0.000 F 
ATOM     13  C   UNL     1      -1.819  12.365  19.326  0.00  0.00    +0.000 A 
ATOM     14  C   UNL     1      -0.537  11.759  19.398  0.00  0.00    +0.000 A 
BRANCH  14  15
ATOM     15  C   UNL     1       0.516  12.691  19.950  0.00  0.00    +0.000 C 
ATOM     16  F   UNL     1       0.204  14.003  20.025  0.00  0.00    +0.000 F 
ATOM     17  F   UNL     1       0.876  12.354  21.224  0.00  0.00    +0.000 F 
ATOM     18  F   UNL     1       1.671  12.636  19.224  0.00  0.00    +0.000 F 
ENDBRANCH  14  15
ENDBRANCH   4   8
BRANCH   7  19
ATOM     19  S   UNL     1       2.719   5.674  19.131  0.00  0.00    +0.000 S 
ATOM     20  O   UNL     1       3.355   5.302  20.378  0.00  0.00    +0.000 OA
ATOM     21  O   UNL     1       1.470   5.059  18.711  0.00  0.00    +0.000 OA
BRANCH  19  22
ATOM     22  C   UNL     1       3.923   5.404  17.849  0.00  0.00    +0.000 A 
ATOM     23  C   UNL     1       3.939   4.160  17.204  0.00  0.00    +0.000 A 
ATOM     24  C   UNL     1       4.846   3.926  16.164  0.00  0.00    +0.000 A 
ATOM     25  C   UNL     1       5.729   4.938  15.764  0.00  0.00    +0.000 A 
ATOM     26  C   UNL     1       5.705   6.180  16.420  0.00  0.00    +0.000 A 
ATOM     27  C   UNL     1       4.800   6.418  17.459  0.00  0.00    +0.000 A 
BRANCH  25  28
ATOM     28  C   UNL     1       6.724   4.739  14.674  0.00  0.00    +0.000 C 
ATOM     29  N   UNL     1       6.474   3.765  13.749  0.00  0.00    +0.000 N 
ATOM     30  O   UNL     1       7.723   5.442  14.588  0.00  0.00    +0.000 OA
ATOM     31  H   UNL     1       5.582   3.300  13.654  0.00  0.00    +0.000 HD
ATOM     32  H   UNL     1       7.113   3.721  12.964  0.00  0.00    +0.000 HD
ENDBRANCH  25  28
ENDBRANCH  19  22
ENDBRANCH   7  19
TORSDOF 5
ENDMDL
MODEL 3
REMARK VINA RESULT:      -7.3      1.055      1.463
REMARK  Name = 
REMARK  6 active torsions:
REMARK  status: ('A' for Active; 'I' for Inactive)
REMARK    1  A    between atoms: C_1  and  C_2
REMARK    2  A    between atoms: N_4  and  C_5
REMARK    3  A    between atoms: C_11  and  C_12
REMARK    4  A    between atoms: N_18  and  S_19
REMARK    5  A    between atoms: S_19  and  C_22
REMARK    6  A    between atoms: C_25  and  C_26
REMARK                            x       y       z     vdW  Elec       q    Type
REMARK                         _______ _______ _______ _____ _____    ______ ____
ROOT
ATOM      1  C   UNL     1      -0.114   7.222  20.891  0.00  0.00    +0.000 C 
ATOM      2  C   UNL     1       1.278   7.855  20.814  0.00  0.00    +0.000 C 
ATOM      3  C   UNL     1       1.119   9.390  20.674  0.00  0.00    +0.000 C 
ATOM      4  N   UNL     1       0.612   9.695  19.322  0.00  0.00    +0.000 N 
ATOM      5  C   UNL     1       1.603   9.350  18.291  0.00  0.00    +0.000 C 
ATOM      6  C   UNL     1       1.973   7.850  18.349  0.00  0.00    +0.000 C 
ATOM      7  N   UNL     1       2.182   7.285  19.727  0.00  0.00    +0.000 NA
ENDROOT
BRANCH   4   8
ATOM      8  C   UNL     1      -0.536  10.428  19.092  0.00  0.00    +0.000 A 
ATOM      9  C   UNL     1      -1.549   9.876  18.268  0.00  0.00    +0.000 A 
ATOM     10  C   UNL     1      -2.746  10.539  17.973  0.00  0.00    +0.000 A 
ATOM     11  C   UNL     1      -2.980  11.781  18.520  0.00  0.00    +0.000 A 
ATOM     12  F   UNL     1      -4.124  12.426  18.265  0.00  0.00    +0.000 F 
ATOM     13  C   UNL     1      -2.023  12.371  19.322  0.00  0.00    +0.000 A 
ATOM     14  C   UNL     1      -0.786  11.730  19.596  0.00  0.00    +0.000 A 
BRANCH  14  15
ATOM     15  C   UNL     1       0.170  12.616  20.361  0.00  0.00    +0.000 C 
ATOM     16  F   UNL     1       0.390  12.315  21.659  0.00  0.00    +0.000 F 
ATOM     17  F   UNL     1       1.415  12.627  19.798  0.00  0.00    +0.000 F 
ATOM     18  F   UNL     1      -0.238  13.919  20.358  0.00  0.00    +0.000 F 
ENDBRANCH  14  15
ENDBRANCH   4   8
BRANCH   7  19
ATOM     19  S   UNL     1       2.339   5.578  19.738  0.00  0.00    +0.000 S 
ATOM     20  O   UNL     1       2.622   5.161  21.096  0.00  0.00    +0.000 OA
ATOM     21  O   UNL     1       1.229   5.008  18.991  0.00  0.00    +0.000 OA
BRANCH  19  22
ATOM     22  C   UNL     1       3.828   5.305  18.803  0.00  0.00    +0.000 A 
ATOM     23  C   UNL     1       3.709   4.886  17.471  0.00  0.00    +0.000 A 
ATOM     24  C   UNL     1       4.858   4.699  16.694  0.00  0.00    +0.000 A 
ATOM     25  C   UNL     1       6.123   4.941  17.246  0.00  0.00    +0.000 A 
ATOM     26  C   UNL     1       6.230   5.358  18.582  0.00  0.00    +0.000 A 
ATOM     27  C   UNL     1       5.084   5.546  19.362  0.00  0.00    +0.000 A 
BRANCH  25  28
ATOM     28  C   UNL     1       7.379   4.744  16.469  0.00  0.00    +0.000 C 
ATOM     29  N   UNL     1       7.452   5.293  15.220  0.00  0.00    +0.000 N 
ATOM     30  O   UNL     1       8.330   4.134  16.941  0.00  0.00    +0.000 OA
ATOM     31  H   UNL     1       6.789   5.968  14.867  0.00  0.00    +0.000 HD
ATOM     32  H   UNL     1       8.351   5.232  14.758  0.00  0.00    +0.000 HD
ENDBRANCH  25  28
ENDBRANCH  19  22
ENDBRANCH   7  19
TORSDOF 5
ENDMDL
MODEL 4
REMARK VINA RESULT:      -7.2      1.095      1.340
REMARK  Name = 
REMARK  6 active torsions:
REMARK  status: ('A' for Active; 'I' for Inactive)
REMARK    1  A    between atoms: C_1  and  C_2
REMARK    2  A    between atoms: N_4  and  C_5
REMARK    3  A    between atoms: C_11  and  C_12
REMARK    4  A    between atoms: N_18  and  S_19
REMARK    5  A    between atoms: S_19  and  C_22
REMARK    6  A    between atoms: C_25  and  C_26
REMARK                            x       y       z     vdW  Elec       q    Type
REMARK                         _______ _______ _______ _____ _____    ______ ____
ROOT
ATOM      1  C   UNL     1      -0.034   7.413  21.049  0.00  0.00    +0.000 C 
ATOM      2  C   UNL     1       1.335   8.066  20.841  0.00  0.00    +0.000 C 
ATOM      3  C   UNL     1       1.134   9.591  20.655  0.00  0.00    +0.000 C 
ATOM      4  N   UNL     1       0.520   9.834  19.335  0.00  0.00    +0.000 N 
ATOM      5  C   UNL     1       1.436   9.465  18.246  0.00  0.00    +0.000 C 
ATOM      6  C   UNL     1       1.839   7.975  18.332  0.00  0.00    +0.000 C 
ATOM      7  N   UNL     1       2.165   7.470  19.711  0.00  0.00    +0.000 NA
ENDROOT
BRANCH   4   8
ATOM      8  C   UNL     1      -0.657  10.536  19.167  0.00  0.00    +0.000 A 
ATOM      9  C   UNL     1      -1.674   9.985  18.347  0.00  0.00    +0.000 A 
ATOM     10  C   UNL     1      -2.900  10.619  18.112  0.00  0.00    +0.000 A 
ATOM     11  C   UNL     1      -3.158  11.830  18.717  0.00  0.00    +0.000 A 
ATOM     12  F   UNL     1      -4.329  12.446  18.518  0.00  0.00    +0.000 F 
ATOM     13  C   UNL     1      -2.200  12.418  19.516  0.00  0.00    +0.000 A 
ATOM     14  C   UNL     1      -0.935  11.808  19.731  0.00  0.00    +0.000 A 
BRANCH  14  15
ATOM     15  C   UNL     1       0.012  12.694  20.507  0.00  0.00    +0.000 C 
ATOM     16  F   UNL     1      -0.358  13.978  20.700  0.00  0.00    +0.000 F 
ATOM     17  F   UNL     1       0.243  12.213  21.765  0.00  0.00    +0.000 F 
ATOM     18  F   UNL     1       1.241  12.758  19.916  0.00  0.00    +0.000 F 
ENDBRANCH  14  15
ENDBRANCH   4   8
BRANCH   7  19
ATOM     19  S   UNL     1       2.357   5.767  19.775  0.00  0.00    +0.000 S 
ATOM     20  O   UNL     1       2.695   5.403  21.136  0.00  0.00    +0.000 OA
ATOM     21  O   UNL     1       1.235   5.150  19.088  0.00  0.00    +0.000 OA
BRANCH  19  22
ATOM     22  C   UNL     1       3.819   5.490  18.799  0.00  0.00    +0.000 A 
ATOM     23  C   UNL     1       5.064   5.533  19.441  0.00  0.00    +0.000 A 
ATOM     24  C   UNL     1       6.232   5.281  18.713  0.00  0.00    +0.000 A 
ATOM     25  C   UNL     1       6.154   4.976  17.347  0.00  0.00    +0.000 A 
ATOM     26  C   UNL     1       4.901   4.938  16.715  0.00  0.00    +0.000 A 
ATOM     27  C   UNL     1       3.731   5.189  17.439  0.00  0.00    +0.000 A 
BRANCH  25  28
ATOM     28  C   UNL     1       7.365   4.713  16.521  0.00  0.00    +0.000 C 
ATOM     29  N   UNL     1       7.382   5.191  15.241  0.00  0.00    +0.000 N 
ATOM     30  O   UNL     1       8.330   4.115  16.979  0.00  0.00    +0.000 OA
ATOM     31  H   UNL     1       6.711   5.856  14.883  0.00  0.00    +0.000 HD
ATOM     32  H   UNL     1       8.255   5.088  14.738  0.00  0.00    +0.000 HD
ENDBRANCH  25  28
ENDBRANCH  19  22
ENDBRANCH   7  19
TORSDOF 5
ENDMDL
MODEL 5
REMARK VINA RESULT:      -7.1      2.222      3.363
REMARK  Name = 
REMARK  6 active torsions:
REMARK  status: ('A' for Active; 'I' for Inactive)
REMARK    1  A    between atoms: C_1  and  C_2
REMARK    2  A    between atoms: N_4  and  C_5
REMARK    3  A    between atoms: C_11  and  C_12
REMARK    4  A    between atoms: N_18  and  S_19
REMARK    5  A    between atoms: S_19  and  C_22
REMARK    6  A    between atoms: C_25  and  C_26
REMARK                            x       y       z     vdW  Elec       q    Type
REMARK                         _______ _______ _______ _____ _____    ______ ____
ROOT
ATOM      1  C   UNL     1       4.465   7.275  17.519  0.00  0.00    +0.000 C 
ATOM      2  C   UNL     1       3.417   6.178  17.730  0.00  0.00    +0.000 C 
ATOM      3  C   UNL     1       2.018   6.839  17.816  0.00  0.00    +0.000 C 
ATOM      4  N   UNL     1       1.910   7.561  19.099  0.00  0.00    +0.000 N 
ATOM      5  C   UNL     1       1.929   6.630  20.237  0.00  0.00    +0.000 C 
ATOM      6  C   UNL     1       3.228   5.791  20.254  0.00  0.00    +0.000 C 
ATOM      7  N   UNL     1       3.677   5.263  18.919  0.00  0.00    +0.000 NA
ENDROOT
BRANCH   4   8
ATOM      8  C   UNL     1       1.591   8.902  19.188  0.00  0.00    +0.000 A 
ATOM      9  C   UNL     1       2.066   9.788  18.189  0.00  0.00    +0.000 A 
ATOM     10  C   UNL     1       1.800  11.163  18.191  0.00  0.00    +0.000 A 
ATOM     11  C   UNL     1       1.021  11.695  19.194  0.00  0.00    +0.000 A 
ATOM     12  F   UNL     1       0.741  13.004  19.208  0.00  0.00    +0.000 F 
ATOM     13  C   UNL     1       0.540  10.881  20.199  0.00  0.00    +0.000 A 
ATOM     14  C   UNL     1       0.836   9.492  20.234  0.00  0.00    +0.000 A 
BRANCH  14  15
ATOM     15  C   UNL     1       0.343   8.825  21.498  0.00  0.00    +0.000 C 
ATOM     16  F   UNL     1      -0.405   7.710  21.358  0.00  0.00    +0.000 F 
ATOM     17  F   UNL     1       1.375   8.443  22.308  0.00  0.00    +0.000 F 
ATOM     18  F   UNL     1      -0.412   9.674  22.255  0.00  0.00    +0.000 F 
ENDBRANCH  14  15
ENDBRANCH   4   8
BRANCH   7  19
ATOM     19  S   UNL     1       5.242   4.563  18.965  0.00  0.00    +0.000 S 
ATOM     20  O   UNL     1       6.146   5.523  19.565  0.00  0.00    +0.000 OA
ATOM     21  O   UNL     1       5.127   3.211  19.486  0.00  0.00    +0.000 OA
BRANCH  19  22
ATOM     22  C   UNL     1       5.686   4.454  17.246  0.00  0.00    +0.000 A 
ATOM     23  C   UNL     1       6.928   4.964  16.847  0.00  0.00    +0.000 A 
ATOM     24  C   UNL     1       7.328   4.860  15.510  0.00  0.00    +0.000 A 
ATOM     25  C   UNL     1       6.489   4.237  14.575  0.00  0.00    +0.000 A 
ATOM     26  C   UNL     1       5.246   3.732  14.986  0.00  0.00    +0.000 A 
ATOM     27  C   UNL     1       4.843   3.834  16.322  0.00  0.00    +0.000 A 
BRANCH  25  28
ATOM     28  C   UNL     1       6.857   4.113  13.137  0.00  0.00    +0.000 C 
ATOM     29  N   UNL     1       6.333   3.066  12.432  0.00  0.00    +0.000 N 
ATOM     30  O   UNL     1       7.583   4.935  12.592  0.00  0.00    +0.000 OA
ATOM     31  H   UNL     1       5.581   2.485  12.770  0.00  0.00    +0.000 HD
ATOM     32  H   UNL     1       6.517   3.065  11.435  0.00  0.00    +0.000 HD
ENDBRANCH  25  28
ENDBRANCH  19  22
ENDBRANCH   7  19
TORSDOF 5
ENDMDL
MODEL 6
REMARK VINA RESULT:      -7.0      6.579     10.299
REMARK  Name = 
REMARK  6 active torsions:
REMARK  status: ('A' for Active; 'I' for Inactive)
REMARK    1  A    between atoms: C_1  and  C_2
REMARK    2  A    between atoms: N_4  and  C_5
REMARK    3  A    between atoms: C_11  and  C_12
REMARK    4  A    between atoms: N_18  and  S_19
REMARK    5  A    between atoms: S_19  and  C_22
REMARK    6  A    between atoms: C_25  and  C_26
REMARK                            x       y       z     vdW  Elec       q    Type
REMARK                         _______ _______ _______ _____ _____    ______ ____
ROOT
ATOM      1  C   UNL     1      -1.785  14.899  20.499  0.00  0.00    +0.000 C 
ATOM      2  C   UNL     1      -0.448  14.445  21.091  0.00  0.00    +0.000 C 
ATOM      3  C   UNL     1       0.146  13.339  20.183  0.00  0.00    +0.000 C 
ATOM      4  N   UNL     1      -0.650  12.107  20.348  0.00  0.00    +0.000 N 
ATOM      5  C   UNL     1      -0.510  11.560  21.706  0.00  0.00    +0.000 C 
ATOM      6  C   UNL     1      -0.962  12.583  22.772  0.00  0.00    +0.000 C 
ATOM      7  N   UNL     1      -0.509  14.000  22.546  0.00  0.00    +0.000 NA
ENDROOT
BRANCH   4   8
ATOM      8  C   UNL     1      -1.245  11.443  19.293  0.00  0.00    +0.000 A 
ATOM      9  C   UNL     1      -2.621  11.661  19.033  0.00  0.00    +0.000 A 
ATOM     10  C   UNL     1      -3.315  11.035  17.990  0.00  0.00    +0.000 A 
ATOM     11  C   UNL     1      -2.638  10.179  17.150  0.00  0.00    +0.000 A 
ATOM     12  F   UNL     1      -3.277   9.582  16.138  0.00  0.00    +0.000 F 
ATOM     13  C   UNL     1      -1.299   9.922  17.363  0.00  0.00    +0.000 A 
ATOM     14  C   UNL     1      -0.591  10.515  18.441  0.00  0.00    +0.000 A 
BRANCH  14  15
ATOM     15  C   UNL     1       0.815   9.977  18.580  0.00  0.00    +0.000 C 
ATOM     16  F   UNL     1       1.236   9.098  17.645  0.00  0.00    +0.000 F 
ATOM     17  F   UNL     1       1.747  10.976  18.553  0.00  0.00    +0.000 F 
ATOM     18  F   UNL     1       0.998   9.346  19.776  0.00  0.00    +0.000 F 
ENDBRANCH  14  15
ENDBRANCH   4   8
BRANCH   7  19
ATOM     19  S   UNL     1      -1.246  15.120  23.615  0.00  0.00    +0.000 S 
ATOM     20  O   UNL     1      -0.636  14.964  24.920  0.00  0.00    +0.000 OA
ATOM     21  O   UNL     1      -1.300  16.416  22.960  0.00  0.00    +0.000 OA
BRANCH  19  22
ATOM     22  C   UNL     1      -2.910  14.506  23.758  0.00  0.00    +0.000 A 
ATOM     23  C   UNL     1      -3.930  15.187  23.080  0.00  0.00    +0.000 A 
ATOM     24  C   UNL     1      -5.244  14.710  23.137  0.00  0.00    +0.000 A 
ATOM     25  C   UNL     1      -5.536  13.547  23.863  0.00  0.00    +0.000 A 
ATOM     26  C   UNL     1      -4.506  12.874  24.541  0.00  0.00    +0.000 A 
ATOM     27  C   UNL     1      -3.191  13.348  24.486  0.00  0.00    +0.000 A 
BRANCH  25  28
ATOM     28  C   UNL     1      -6.918  13.003  23.971  0.00  0.00    +0.000 C 
ATOM     29  N   UNL     1      -7.838  13.729  24.675  0.00  0.00    +0.000 N 
ATOM     30  O   UNL     1      -7.234  11.955  23.424  0.00  0.00    +0.000 OA
ATOM     31  H   UNL     1      -7.690  14.683  24.970  0.00  0.00    +0.000 HD
ATOM     32  H   UNL     1      -8.791  13.388  24.645  0.00  0.00    +0.000 HD
ENDBRANCH  25  28
ENDBRANCH  19  22
ENDBRANCH   7  19
TORSDOF 5
ENDMDL
MODEL 7
REMARK VINA RESULT:      -6.9      6.450     10.304
REMARK  Name = 
REMARK  6 active torsions:
REMARK  status: ('A' for Active; 'I' for Inactive)
REMARK    1  A    between atoms: C_1  and  C_2
REMARK    2  A    between atoms: N_4  and  C_5
REMARK    3  A    between atoms: C_11  and  C_12
REMARK    4  A    between atoms: N_18  and  S_19
REMARK    5  A    between atoms: S_19  and  C_22
REMARK    6  A    between atoms: C_25  and  C_26
REMARK                            x       y       z     vdW  Elec       q    Type
REMARK                         _______ _______ _______ _____ _____    ______ ____
ROOT
ATOM      1  C   UNL     1      -1.440  14.670  20.203  0.00  0.00    +0.000 C 
ATOM      2  C   UNL     1      -0.290  14.063  21.010  0.00  0.00    +0.000 C 
ATOM      3  C   UNL     1       0.291  12.863  20.219  0.00  0.00    +0.000 C 
ATOM      4  N   UNL     1      -0.678  11.751  20.259  0.00  0.00    +0.000 N 
ATOM      5  C   UNL     1      -0.834  11.229  21.625  0.00  0.00    +0.000 C 
ATOM      6  C   UNL     1      -1.313  12.332  22.596  0.00  0.00    +0.000 C 
ATOM      7  N   UNL     1      -0.645  13.671  22.438  0.00  0.00    +0.000 NA
ENDROOT
BRANCH   4   8
ATOM      8  C   UNL     1      -1.176  11.141  19.124  0.00  0.00    +0.000 A 
ATOM      9  C   UNL     1      -2.524  11.378  18.753  0.00  0.00    +0.000 A 
ATOM     10  C   UNL     1      -3.122  10.805  17.624  0.00  0.00    +0.000 A 
ATOM     11  C   UNL     1      -2.373   9.986  16.808  0.00  0.00    +0.000 A 
ATOM     12  F   UNL     1      -2.920   9.440  15.716  0.00  0.00    +0.000 F 
ATOM     13  C   UNL     1      -1.059   9.712  17.128  0.00  0.00    +0.000 A 
ATOM     14  C   UNL     1      -0.450  10.251  18.292  0.00  0.00    +0.000 A 
BRANCH  14  15
ATOM     15  C   UNL     1       0.937   9.700  18.530  0.00  0.00    +0.000 C 
ATOM     16  F   UNL     1       1.211   9.221  19.762  0.00  0.00    +0.000 F 
ATOM     17  F   UNL     1       1.223   8.661  17.690  0.00  0.00    +0.000 F 
ATOM     18  F   UNL     1       1.901  10.635  18.285  0.00  0.00    +0.000 F 
ENDBRANCH  14  15
ENDBRANCH   4   8
BRANCH   7  19
ATOM     19  S   UNL     1      -1.390  14.907  23.364  0.00  0.00    +0.000 S 
ATOM     20  O   UNL     1      -0.905  14.803  24.725  0.00  0.00    +0.000 OA
ATOM     21  O   UNL     1      -1.299  16.156  22.626  0.00  0.00    +0.000 OA
BRANCH  19  22
ATOM     22  C   UNL     1      -3.099  14.411  23.397  0.00  0.00    +0.000 A 
ATOM     23  C   UNL     1      -3.528  13.574  24.435  0.00  0.00    +0.000 A 
ATOM     24  C   UNL     1      -4.873  13.196  24.515  0.00  0.00    +0.000 A 
ATOM     25  C   UNL     1      -5.789  13.664  23.563  0.00  0.00    +0.000 A 
ATOM     26  C   UNL     1      -5.347  14.500  22.526  0.00  0.00    +0.000 A 
ATOM     27  C   UNL     1      -4.004  14.880  22.443  0.00  0.00    +0.000 A 
BRANCH  25  28
ATOM     28  C   UNL     1      -7.228  13.282  23.592  0.00  0.00    +0.000 C 
ATOM     29  N   UNL     1      -7.803  12.867  22.423  0.00  0.00    +0.000 N 
ATOM     30  O   UNL     1      -7.874  13.309  24.631  0.00  0.00    +0.000 OA
ATOM     31  H   UNL     1      -7.277  12.633  21.594  0.00  0.00    +0.000 HD
ATOM     32  H   UNL     1      -8.751  12.516  22.493  0.00  0.00    +0.000 HD
ENDBRANCH  25  28
ENDBRANCH  19  22
ENDBRANCH   7  19
TORSDOF 5
ENDMDL
MODEL 8
REMARK VINA RESULT:      -6.6      2.397      3.567
REMARK  Name = 
REMARK  6 active torsions:
REMARK  status: ('A' for Active; 'I' for Inactive)
REMARK    1  A    between atoms: C_1  and  C_2
REMARK    2  A    between atoms: N_4  and  C_5
REMARK    3  A    between atoms: C_11  and  C_12
REMARK    4  A    between atoms: N_18  and  S_19
REMARK    5  A    between atoms: S_19  and  C_22
REMARK    6  A    between atoms: C_25  and  C_26
REMARK                            x       y       z     vdW  Elec       q    Type
REMARK                         _______ _______ _______ _____ _____    ______ ____
ROOT
ATOM      1  C   UNL     1       4.555   7.233  18.509  0.00  0.00    +0.000 C 
ATOM      2  C   UNL     1       3.552   6.122  18.187  0.00  0.00    +0.000 C 
ATOM      3  C   UNL     1       2.118   6.695  18.318  0.00  0.00    +0.000 C 
ATOM      4  N   UNL     1       1.821   6.915  19.747  0.00  0.00    +0.000 N 
ATOM      5  C   UNL     1       1.760   5.642  20.480  0.00  0.00    +0.000 C 
ATOM      6  C   UNL     1       3.092   4.866  20.370  0.00  0.00    +0.000 C 
ATOM      7  N   UNL     1       3.722   4.848  19.004  0.00  0.00    +0.000 NA
ENDROOT
BRANCH   4   8
ATOM      8  C   UNL     1       1.421   8.135  20.257  0.00  0.00    +0.000 A 
ATOM      9  C   UNL     1       1.208   8.258  21.653  0.00  0.00    +0.000 A 
ATOM     10  C   UNL     1       0.799   9.449  22.266  0.00  0.00    +0.000 A 
ATOM     11  C   UNL     1       0.613  10.574  21.493  0.00  0.00    +0.000 A 
ATOM     12  F   UNL     1       0.238  11.727  22.059  0.00  0.00    +0.000 F 
ATOM     13  C   UNL     1       0.796  10.509  20.127  0.00  0.00    +0.000 A 
ATOM     14  C   UNL     1       1.168   9.298  19.485  0.00  0.00    +0.000 A 
BRANCH  14  15
ATOM     15  C   UNL     1       1.161   9.414  17.978  0.00  0.00    +0.000 C 
ATOM     16  F   UNL     1       0.536   8.438  17.284  0.00  0.00    +0.000 F 
ATOM     17  F   UNL     1       0.561  10.567  17.559  0.00  0.00    +0.000 F 
ATOM     18  F   UNL     1       2.427   9.462  17.469  0.00  0.00    +0.000 F 
ENDBRANCH  14  15
ENDBRANCH   4   8
BRANCH   7  19
ATOM     19  S   UNL     1       5.306   4.193  19.003  0.00  0.00    +0.000 S 
ATOM     20  O   UNL     1       6.159   5.079  19.770  0.00  0.00    +0.000 OA
ATOM     21  O   UNL     1       5.220   2.776  19.314  0.00  0.00    +0.000 OA
BRANCH  19  22
ATOM     22  C   UNL     1       5.808   4.354  17.304  0.00  0.00    +0.000 A 
ATOM     23  C   UNL     1       7.057   4.927  17.031  0.00  0.00    +0.000 A 
ATOM     24  C   UNL     1       7.502   5.033  15.708  0.00  0.00    +0.000 A 
ATOM     25  C   UNL     1       6.702   4.557  14.661  0.00  0.00    +0.000 A 
ATOM     26  C   UNL     1       5.451   3.986  14.946  0.00  0.00    +0.000 A 
ATOM     27  C   UNL     1       5.003   3.878  16.267  0.00  0.00    +0.000 A 
BRANCH  25  28
ATOM     28  C   UNL     1       7.118   4.658  13.234  0.00  0.00    +0.000 C 
ATOM     29  N   UNL     1       6.581   3.768  12.347  0.00  0.00    +0.000 N 
ATOM     30  O   UNL     1       7.895   5.526  12.858  0.00  0.00    +0.000 OA
ATOM     31  H   UNL     1       5.794   3.172  12.560  0.00  0.00    +0.000 HD
ATOM     32  H   UNL     1       6.802   3.925  11.371  0.00  0.00    +0.000 HD
ENDBRANCH  25  28
ENDBRANCH  19  22
ENDBRANCH   7  19
TORSDOF 5
ENDMDL
MODEL 9
REMARK VINA RESULT:      -6.6      6.634     10.328
REMARK  Name = 
REMARK  6 active torsions:
REMARK  status: ('A' for Active; 'I' for Inactive)
REMARK    1  A    between atoms: C_1  and  C_2
REMARK    2  A    between atoms: N_4  and  C_5
REMARK    3  A    between atoms: C_11  and  C_12
REMARK    4  A    between atoms: N_18  and  S_19
REMARK    5  A    between atoms: S_19  and  C_22
REMARK    6  A    between atoms: C_25  and  C_26
REMARK                            x       y       z     vdW  Elec       q    Type
REMARK                         _______ _______ _______ _____ _____    ______ ____
ROOT
ATOM      1  C   UNL     1      -2.331  14.881  20.614  0.00  0.00    +0.000 C 
ATOM      2  C   UNL     1      -0.856  14.695  20.977  0.00  0.00    +0.000 C 
ATOM      3  C   UNL     1      -0.214  13.718  19.958  0.00  0.00    +0.000 C 
ATOM      4  N   UNL     1      -0.725  12.358  20.215  0.00  0.00    +0.000 N 
ATOM      5  C   UNL     1      -0.270  11.855  21.519  0.00  0.00    +0.000 C 
ATOM      6  C   UNL     1      -0.733  12.777  22.670  0.00  0.00    +0.000 C 
ATOM      7  N   UNL     1      -0.599  14.254  22.412  0.00  0.00    +0.000 NA
ENDROOT
BRANCH   4   8
ATOM      8  C   UNL     1      -1.343  11.587  19.249  0.00  0.00    +0.000 A 
ATOM      9  C   UNL     1      -2.729  11.765  19.012  0.00  0.00    +0.000 A 
ATOM     10  C   UNL     1      -3.446  11.033  18.058  0.00  0.00    +0.000 A 
ATOM     11  C   UNL     1      -2.784  10.104  17.286  0.00  0.00    +0.000 A 
ATOM     12  F   UNL     1      -3.446   9.404  16.358  0.00  0.00    +0.000 F 
ATOM     13  C   UNL     1      -1.436   9.881  17.482  0.00  0.00    +0.000 A 
ATOM     14  C   UNL     1      -0.704  10.586  18.474  0.00  0.00    +0.000 A 
BRANCH  14  15
ATOM     15  C   UNL     1       0.712  10.077  18.621  0.00  0.00    +0.000 C 
ATOM     16  F   UNL     1       1.184   9.269  17.647  0.00  0.00    +0.000 F 
ATOM     17  F   UNL     1       1.616  11.099  18.684  0.00  0.00    +0.000 F 
ATOM     18  F   UNL     1       0.879   9.378  19.782  0.00  0.00    +0.000 F 
ENDBRANCH  14  15
ENDBRANCH   4   8
BRANCH   7  19
ATOM     19  S   UNL     1      -1.356  15.216  23.611  0.00  0.00    +0.000 S 
ATOM     20  O   UNL     1      -0.744  14.907  24.888  0.00  0.00    +0.000 OA
ATOM     21  O   UNL     1      -1.432  16.585  23.126  0.00  0.00    +0.000 OA
BRANCH  19  22
ATOM     22  C   UNL     1      -3.009  14.561  23.670  0.00  0.00    +0.000 A 
ATOM     23  C   UNL     1      -3.171  13.173  23.770  0.00  0.00    +0.000 A 
ATOM     24  C   UNL     1      -4.456  12.626  23.858  0.00  0.00    +0.000 A 
ATOM     25  C   UNL     1      -5.577  13.467  23.857  0.00  0.00    +0.000 A 
ATOM     26  C   UNL     1      -5.402  14.856  23.755  0.00  0.00    +0.000 A 
ATOM     27  C   UNL     1      -4.120  15.408  23.667  0.00  0.00    +0.000 A 
BRANCH  25  28
ATOM     28  C   UNL     1      -6.967  12.937  23.934  0.00  0.00    +0.000 C 
ATOM     29  N   UNL     1      -7.149  11.593  23.768  0.00  0.00    +0.000 N 
ATOM     30  O   UNL     1      -7.917  13.674  24.166  0.00  0.00    +0.000 OA
ATOM     31  H   UNL     1      -6.396  10.921  23.778  0.00  0.00    +0.000 HD
ATOM     32  H   UNL     1      -8.088  11.248  23.927  0.00  0.00    +0.000 HD
ENDBRANCH  25  28
ENDBRANCH  19  22
ENDBRANCH   7  19
TORSDOF 5
ENDMDL
