MODEL 1
REMARK VINA RESULT:      -6.7      0.000      0.000
REMARK  Name = 
REMARK  5 active torsions:
REMARK  status: ('A' for Active; 'I' for Inactive)
REMARK    1  A    between atoms: C_1  and  C_2
REMARK    2  A    between atoms: C_6  and  O_7
REMARK    3  A    between atoms: O_7  and  C_8
REMARK    4  A    between atoms: C_8  and  C_9
REMARK    5  A    between atoms: C_9  and  O_11
REMARK                            x       y       z     vdW  Elec       q    Type
REMARK                         _______ _______ _______ _____ _____    ______ ____
ROOT
ATOM      1  C   UNL     1       7.468   4.872  14.029  0.00  0.00    +0.000 C 
ATOM      2  C   UNL     1       6.378   4.777  15.031  0.00  0.00    +0.000 C 
ATOM      3  C   UNL     1       5.737   3.696  15.510  0.00  0.00    +0.000 C 
ATOM      4  C   UNL     1       4.705   4.037  16.490  0.00  0.00    +0.000 A 
ATOM      5  C   UNL     1       3.860   3.170  17.173  0.00  0.00    +0.000 A 
ATOM      6  C   UNL     1       2.932   3.709  18.083  0.00  0.00    +0.000 A 
ATOM      7  C   UNL     1       2.878   5.110  18.309  0.00  0.00    +0.000 A 
ATOM      8 CL   UNL     1       1.724   5.727  19.456  0.00  0.00    +0.000 Cl
ATOM      9  C   UNL     1       3.728   5.981  17.615  0.00  0.00    +0.000 A 
ATOM     10 CL   UNL     1       3.684   7.689  17.851  0.00  0.00    +0.000 Cl
ATOM     11  C   UNL     1       4.615   5.411  16.725  0.00  0.00    +0.000 A 
ATOM     12  S   UNL     1       5.776   6.255  15.742  0.00  0.00    +0.000 S 
ATOM     13  O   UNL     1       6.782   6.821  16.613  0.00  0.00    +0.000 OA
ATOM     14  O   UNL     1       5.053   7.015  14.746  0.00  0.00    +0.000 OA
ENDROOT
BRANCH   6  15
ATOM     15  O   UNL     1       2.087   2.942  18.852  0.00  0.00    +0.000 OA
BRANCH  15  16
ATOM     16  C   UNL     1       2.641   2.269  19.980  0.00  0.00    +0.000 C 
BRANCH  16  17
ATOM     17  C   UNL     1       1.922   2.671  21.252  0.00  0.00    +0.000 C 
ATOM     18  O   UNL     1       2.455   2.739  22.347  0.00  0.00    +0.000 OA
BRANCH  17  19
ATOM     19  O   UNL     1       0.608   2.947  21.058  0.00  0.00    +0.000 OA
ATOM     20  H   UNL     1       0.481   3.867  20.740  0.00  0.00    +0.000 HD
ENDBRANCH  17  19
ENDBRANCH  16  17
ENDBRANCH  15  16
ENDBRANCH   6  15
TORSDOF 4
ENDMDL
MODEL 2
REMARK VINA RESULT:      -6.7      3.390      6.147
REMARK  Name = 
REMARK  5 active torsions:
REMARK  status: ('A' for Active; 'I' for Inactive)
REMARK    1  A    between atoms: C_1  and  C_2
REMARK    2  A    between atoms: C_6  and  O_7
REMARK    3  A    between atoms: O_7  and  C_8
REMARK    4  A    between atoms: C_8  and  C_9
REMARK    5  A    between atoms: C_9  and  O_11
REMARK                            x       y       z     vdW  Elec       q    Type
REMARK                         _______ _______ _______ _____ _____    ______ ____
ROOT
ATOM      1  C   UNL     1       1.842   2.303  21.879  0.00  0.00    +0.000 C 
ATOM      2  C   UNL     1       2.250   3.347  20.908  0.00  0.00    +0.000 C 
ATOM      3  C   UNL     1       1.905   4.646  20.841  0.00  0.00    +0.000 C 
ATOM      4  C   UNL     1       2.525   5.338  19.710  0.00  0.00    +0.000 A 
ATOM      5  C   UNL     1       2.383   6.673  19.348  0.00  0.00    +0.000 A 
ATOM      6  C   UNL     1       3.075   7.143  18.216  0.00  0.00    +0.000 A 
ATOM      7  C   UNL     1       3.916   6.271  17.475  0.00  0.00    +0.000 A 
ATOM      8 CL   UNL     1       4.764   6.903  16.093  0.00  0.00    +0.000 Cl
ATOM      9  C   UNL     1       4.053   4.926  17.841  0.00  0.00    +0.000 A 
ATOM     10 CL   UNL     1       5.053   3.832  16.960  0.00  0.00    +0.000 Cl
ATOM     11  C   UNL     1       3.349   4.505  18.950  0.00  0.00    +0.000 A 
ATOM     12  S   UNL     1       3.341   2.899  19.619  0.00  0.00    +0.000 S 
ATOM     13  O   UNL     1       4.653   2.628  20.164  0.00  0.00    +0.000 OA
ATOM     14  O   UNL     1       2.660   2.027  18.687  0.00  0.00    +0.000 OA
ENDROOT
BRANCH   6  15
ATOM     15  O   UNL     1       3.050   8.454  17.800  0.00  0.00    +0.000 OA
BRANCH  15  16
ATOM     16  C   UNL     1       1.778   9.071  17.619  0.00  0.00    +0.000 C 
BRANCH  16  17
ATOM     17  C   UNL     1       1.699  10.375  18.388  0.00  0.00    +0.000 C 
ATOM     18  O   UNL     1       1.129  10.504  19.459  0.00  0.00    +0.000 OA
BRANCH  17  19
ATOM     19  O   UNL     1       2.325  11.403  17.762  0.00  0.00    +0.000 OA
ATOM     20  H   UNL     1       2.596  12.096  18.402  0.00  0.00    +0.000 HD
ENDBRANCH  17  19
ENDBRANCH  16  17
ENDBRANCH  15  16
ENDBRANCH   6  15
TORSDOF 4
ENDMDL
MODEL 3
REMARK VINA RESULT:      -6.6      2.642      5.822
REMARK  Name = 
REMARK  5 active torsions:
REMARK  status: ('A' for Active; 'I' for Inactive)
REMARK    1  A    between atoms: C_1  and  C_2
REMARK    2  A    between atoms: C_6  and  O_7
REMARK    3  A    between atoms: O_7  and  C_8
REMARK    4  A    between atoms: C_8  and  C_9
REMARK    5  A    between atoms: C_9  and  O_11
REMARK                            x       y       z     vdW  Elec       q    Type
REMARK                         _______ _______ _______ _____ _____    ______ ____
ROOT
ATOM      1  C   UNL     1       1.361   2.360  21.967  0.00  0.00    +0.000 C 
ATOM      2  C   UNL     1       2.236   3.018  20.965  0.00  0.00    +0.000 C 
ATOM      3  C   UNL     1       3.490   2.717  20.583  0.00  0.00    +0.000 C 
ATOM      4  C   UNL     1       4.006   3.631  19.563  0.00  0.00    +0.000 A 
ATOM      5  C   UNL     1       5.256   3.608  18.955  0.00  0.00    +0.000 A 
ATOM      6  C   UNL     1       5.554   4.586  17.987  0.00  0.00    +0.000 A 
ATOM      7  C   UNL     1       4.585   5.561  17.629  0.00  0.00    +0.000 A 
ATOM      8 CL   UNL     1       4.994   6.738  16.415  0.00  0.00    +0.000 Cl
ATOM      9  C   UNL     1       3.328   5.582  18.248  0.00  0.00    +0.000 A 
ATOM     10 CL   UNL     1       2.130   6.757  17.851  0.00  0.00    +0.000 Cl
ATOM     11  C   UNL     1       3.083   4.612  19.198  0.00  0.00    +0.000 A 
ATOM     12  S   UNL     1       1.615   4.410  20.111  0.00  0.00    +0.000 S 
ATOM     13  O   UNL     1       0.569   3.996  19.202  0.00  0.00    +0.000 OA
ATOM     14  O   UNL     1       1.495   5.527  21.022  0.00  0.00    +0.000 OA
ENDROOT
BRANCH   6  15
ATOM     15  O   UNL     1       6.736   4.625  17.284  0.00  0.00    +0.000 OA
BRANCH  15  16
ATOM     16  C   UNL     1       7.951   4.662  18.028  0.00  0.00    +0.000 C 
BRANCH  16  17
ATOM     17  C   UNL     1       7.984   5.867  18.946  0.00  0.00    +0.000 C 
ATOM     18  O   UNL     1       8.027   7.022  18.556  0.00  0.00    +0.000 OA
BRANCH  17  19
ATOM     19  O   UNL     1       7.965   5.537  20.262  0.00  0.00    +0.000 OA
ATOM     20  H   UNL     1       8.231   4.602  20.397  0.00  0.00    +0.000 HD
ENDBRANCH  17  19
ENDBRANCH  16  17
ENDBRANCH  15  16
ENDBRANCH   6  15
TORSDOF 4
ENDMDL
MODEL 4
REMARK VINA RESULT:      -6.5      3.783      5.115
REMARK  Name = 
REMARK  5 active torsions:
REMARK  status: ('A' for Active; 'I' for Inactive)
REMARK    1  A    between atoms: C_1  and  C_2
REMARK    2  A    between atoms: C_6  and  O_7
REMARK    3  A    between atoms: O_7  and  C_8
REMARK    4  A    between atoms: C_8  and  C_9
REMARK    5  A    between atoms: C_9  and  O_11
REMARK                            x       y       z     vdW  Elec       q    Type
REMARK                         _______ _______ _______ _____ _____    ______ ____
ROOT
ATOM      1  C   UNL     1       6.154   3.997  15.940  0.00  0.00    +0.000 C 
ATOM      2  C   UNL     1       5.219   4.811  16.755  0.00  0.00    +0.000 C 
ATOM      3  C   UNL     1       4.765   6.062  16.556  0.00  0.00    +0.000 C 
ATOM      4  C   UNL     1       3.855   6.508  17.612  0.00  0.00    +0.000 A 
ATOM      5  C   UNL     1       3.212   7.736  17.718  0.00  0.00    +0.000 A 
ATOM      6  C   UNL     1       2.368   7.963  18.821  0.00  0.00    +0.000 A 
ATOM      7  C   UNL     1       2.165   6.946  19.791  0.00  0.00    +0.000 A 
ATOM      8 CL   UNL     1       1.098   7.269  21.128  0.00  0.00    +0.000 Cl
ATOM      9  C   UNL     1       2.817   5.712  19.682  0.00  0.00    +0.000 A 
ATOM     10 CL   UNL     1       2.608   4.457  20.847  0.00  0.00    +0.000 Cl
ATOM     11  C   UNL     1       3.644   5.536  18.592  0.00  0.00    +0.000 A 
ATOM     12  S   UNL     1       4.566   4.109  18.215  0.00  0.00    +0.000 S 
ATOM     13  O   UNL     1       3.643   3.049  17.875  0.00  0.00    +0.000 OA
ATOM     14  O   UNL     1       5.614   3.978  19.203  0.00  0.00    +0.000 OA
ENDROOT
BRANCH   6  15
ATOM     15  O   UNL     1       1.641   9.118  18.998  0.00  0.00    +0.000 OA
BRANCH  15  16
ATOM     16  C   UNL     1       0.747   9.507  17.958  0.00  0.00    +0.000 C 
BRANCH  16  17
ATOM     17  C   UNL     1      -0.446  10.251  18.527  0.00  0.00    +0.000 C 
ATOM     18  O   UNL     1      -0.741  10.267  19.710  0.00  0.00    +0.000 OA
BRANCH  17  19
ATOM     19  O   UNL     1      -1.169  10.902  17.581  0.00  0.00    +0.000 OA
ATOM     20  H   UNL     1      -1.324  10.332  16.797  0.00  0.00    +0.000 HD
ENDBRANCH  17  19
ENDBRANCH  16  17
ENDBRANCH  15  16
ENDBRANCH   6  15
TORSDOF 4
ENDMDL
MODEL 5
REMARK VINA RESULT:      -6.4      2.269      6.195
REMARK  Name = 
REMARK  5 active torsions:
REMARK  status: ('A' for Active; 'I' for Inactive)
REMARK    1  A    between atoms: C_1  and  C_2
REMARK    2  A    between atoms: C_6  and  O_7
REMARK    3  A    between atoms: O_7  and  C_8
REMARK    4  A    between atoms: C_8  and  C_9
REMARK    5  A    between atoms: C_9  and  O_11
REMARK                            x       y       z     vdW  Elec       q    Type
REMARK                         _______ _______ _______ _____ _____    ______ ____
ROOT
ATOM      1  C   UNL     1       1.886   2.400  21.889  0.00  0.00    +0.000 C 
ATOM      2  C   UNL     1       2.614   3.058  20.776  0.00  0.00    +0.000 C 
ATOM      3  C   UNL     1       3.728   2.676  20.127  0.00  0.00    +0.000 C 
ATOM      4  C   UNL     1       4.130   3.624  19.087  0.00  0.00    +0.000 A 
ATOM      5  C   UNL     1       5.226   3.538  18.236  0.00  0.00    +0.000 A 
ATOM      6  C   UNL     1       5.433   4.565  17.295  0.00  0.00    +0.000 A 
ATOM      7  C   UNL     1       4.524   5.653  17.209  0.00  0.00    +0.000 A 
ATOM      8 CL   UNL     1       4.812   6.889  16.018  0.00  0.00    +0.000 Cl
ATOM      9  C   UNL     1       3.423   5.737  18.071  0.00  0.00    +0.000 A 
ATOM     10 CL   UNL     1       2.305   7.048  18.006  0.00  0.00    +0.000 Cl
ATOM     11  C   UNL     1       3.265   4.715  18.984  0.00  0.00    +0.000 A 
ATOM     12  S   UNL     1       1.992   4.571  20.162  0.00  0.00    +0.000 S 
ATOM     13  O   UNL     1       0.749   4.337  19.460  0.00  0.00    +0.000 OA
ATOM     14  O   UNL     1       2.175   5.610  21.150  0.00  0.00    +0.000 OA
ENDROOT
BRANCH   6  15
ATOM     15  O   UNL     1       6.451   4.555  16.370  0.00  0.00    +0.000 OA
BRANCH  15  16
ATOM     16  C   UNL     1       6.264   3.788  15.183  0.00  0.00    +0.000 C 
BRANCH  16  17
ATOM     17  C   UNL     1       6.906   4.475  13.993  0.00  0.00    +0.000 C 
ATOM     18  O   UNL     1       6.734   4.136  12.834  0.00  0.00    +0.000 OA
BRANCH  17  19
ATOM     19  O   UNL     1       7.705   5.514  14.343  0.00  0.00    +0.000 OA
ATOM     20  H   UNL     1       8.231   5.831  13.578  0.00  0.00    +0.000 HD
ENDBRANCH  17  19
ENDBRANCH  16  17
ENDBRANCH  15  16
ENDBRANCH   6  15
TORSDOF 4
ENDMDL
MODEL 6
REMARK VINA RESULT:      -6.4      3.731      5.239
REMARK  Name = 
REMARK  5 active torsions:
REMARK  status: ('A' for Active; 'I' for Inactive)
REMARK    1  A    between atoms: C_1  and  C_2
REMARK    2  A    between atoms: C_6  and  O_7
REMARK    3  A    between atoms: O_7  and  C_8
REMARK    4  A    between atoms: C_8  and  C_9
REMARK    5  A    between atoms: C_9  and  O_11
REMARK                            x       y       z     vdW  Elec       q    Type
REMARK                         _______ _______ _______ _____ _____    ______ ____
ROOT
ATOM      1  C   UNL     1       6.539   4.323  15.721  0.00  0.00    +0.000 C 
ATOM      2  C   UNL     1       5.535   5.026  16.557  0.00  0.00    +0.000 C 
ATOM      3  C   UNL     1       4.975   6.238  16.398  0.00  0.00    +0.000 C 
ATOM      4  C   UNL     1       4.027   6.568  17.463  0.00  0.00    +0.000 A 
ATOM      5  C   UNL     1       3.280   7.732  17.607  0.00  0.00    +0.000 A 
ATOM      6  C   UNL     1       2.417   7.848  18.713  0.00  0.00    +0.000 A 
ATOM      7  C   UNL     1       2.302   6.786  19.649  0.00  0.00    +0.000 A 
ATOM      8 CL   UNL     1       1.210   6.970  20.990  0.00  0.00    +0.000 Cl
ATOM      9  C   UNL     1       3.060   5.617  19.502  0.00  0.00    +0.000 A 
ATOM     10 CL   UNL     1       2.958   4.311  20.623  0.00  0.00    +0.000 Cl
ATOM     11  C   UNL     1       3.900   5.550  18.410  0.00  0.00    +0.000 A 
ATOM     12  S   UNL     1       4.944   4.222  17.991  0.00  0.00    +0.000 S 
ATOM     13  O   UNL     1       4.117   3.097  17.612  0.00  0.00    +0.000 OA
ATOM     14  O   UNL     1       5.998   4.150  18.979  0.00  0.00    +0.000 OA
ENDROOT
BRANCH   6  15
ATOM     15  O   UNL     1       1.593   8.929  18.924  0.00  0.00    +0.000 OA
BRANCH  15  16
ATOM     16  C   UNL     1       1.765  10.071  18.087  0.00  0.00    +0.000 C 
BRANCH  16  17
ATOM     17  C   UNL     1       1.335  11.334  18.807  0.00  0.00    +0.000 C 
ATOM     18  O   UNL     1       1.060  11.384  19.994  0.00  0.00    +0.000 OA
BRANCH  17  19
ATOM     19  O   UNL     1       1.278  12.418  17.994  0.00  0.00    +0.000 OA
ATOM     20  H   UNL     1       1.956  12.368  17.286  0.00  0.00    +0.000 HD
ENDBRANCH  17  19
ENDBRANCH  16  17
ENDBRANCH  15  16
ENDBRANCH   6  15
TORSDOF 4
ENDMDL
MODEL 7
REMARK VINA RESULT:      -6.4      3.656      4.850
REMARK  Name = 
REMARK  5 active torsions:
REMARK  status: ('A' for Active; 'I' for Inactive)
REMARK    1  A    between atoms: C_1  and  C_2
REMARK    2  A    between atoms: C_6  and  O_7
REMARK    3  A    between atoms: O_7  and  C_8
REMARK    4  A    between atoms: C_8  and  C_9
REMARK    5  A    between atoms: C_9  and  O_11
REMARK                            x       y       z     vdW  Elec       q    Type
REMARK                         _______ _______ _______ _____ _____    ______ ____
ROOT
ATOM      1  C   UNL     1       6.818   4.875  15.288  0.00  0.00    +0.000 C 
ATOM      2  C   UNL     1       5.778   5.394  16.211  0.00  0.00    +0.000 C 
ATOM      3  C   UNL     1       5.139   6.577  16.214  0.00  0.00    +0.000 C 
ATOM      4  C   UNL     1       4.182   6.701  17.315  0.00  0.00    +0.000 A 
ATOM      5  C   UNL     1       3.362   7.784  17.612  0.00  0.00    +0.000 A 
ATOM      6  C   UNL     1       2.504   7.697  18.724  0.00  0.00    +0.000 A 
ATOM      7  C   UNL     1       2.468   6.515  19.512  0.00  0.00    +0.000 A 
ATOM      8 CL   UNL     1       1.379   6.449  20.867  0.00  0.00    +0.000 Cl
ATOM      9  C   UNL     1       3.299   5.428  19.211  0.00  0.00    +0.000 A 
ATOM     10 CL   UNL     1       3.293   3.982  20.151  0.00  0.00    +0.000 Cl
ATOM     11  C   UNL     1       4.131   5.561  18.119  0.00  0.00    +0.000 A 
ATOM     12  S   UNL     1       5.255   4.371  17.527  0.00  0.00    +0.000 S 
ATOM     13  O   UNL     1       4.499   3.254  17.004  0.00  0.00    +0.000 OA
ATOM     14  O   UNL     1       6.321   4.239  18.496  0.00  0.00    +0.000 OA
ENDROOT
BRANCH   6  15
ATOM     15  O   UNL     1       1.613   8.683  19.077  0.00  0.00    +0.000 OA
BRANCH  15  16
ATOM     16  C   UNL     1       1.147   9.557  18.052  0.00  0.00    +0.000 C 
BRANCH  16  17
ATOM     17  C   UNL     1      -0.268  10.018  18.340  0.00  0.00    +0.000 C 
ATOM     18  O   UNL     1      -1.157  10.058  17.506  0.00  0.00    +0.000 OA
BRANCH  17  19
ATOM     19  O   UNL     1      -0.455  10.392  19.630  0.00  0.00    +0.000 OA
ATOM     20  H   UNL     1      -1.101   9.805  20.080  0.00  0.00    +0.000 HD
ENDBRANCH  17  19
ENDBRANCH  16  17
ENDBRANCH  15  16
ENDBRANCH   6  15
TORSDOF 4
ENDMDL
MODEL 8
REMARK VINA RESULT:      -6.3      2.525      2.943
REMARK  Name = 
REMARK  5 active torsions:
REMARK  status: ('A' for Active; 'I' for Inactive)
REMARK    1  A    between atoms: C_1  and  C_2
REMARK    2  A    between atoms: C_6  and  O_7
REMARK    3  A    between atoms: O_7  and  C_8
REMARK    4  A    between atoms: C_8  and  C_9
REMARK    5  A    between atoms: C_9  and  O_11
REMARK                            x       y       z     vdW  Elec       q    Type
REMARK                         _______ _______ _______ _____ _____    ______ ____
ROOT
ATOM      1  C   UNL     1       8.282   7.555  18.139  0.00  0.00    +0.000 C 
ATOM      2  C   UNL     1       7.238   6.504  18.231  0.00  0.00    +0.000 C 
ATOM      3  C   UNL     1       6.709   5.905  19.313  0.00  0.00    +0.000 C 
ATOM      4  C   UNL     1       5.701   4.902  18.968  0.00  0.00    +0.000 A 
ATOM      5  C   UNL     1       4.965   4.102  19.835  0.00  0.00    +0.000 A 
ATOM      6  C   UNL     1       4.036   3.195  19.292  0.00  0.00    +0.000 A 
ATOM      7  C   UNL     1       3.844   3.118  17.887  0.00  0.00    +0.000 A 
ATOM      8 CL   UNL     1       2.672   1.992  17.265  0.00  0.00    +0.000 Cl
ATOM      9  C   UNL     1       4.591   3.923  17.017  0.00  0.00    +0.000 A 
ATOM     10 CL   UNL     1       4.397   3.849  15.305  0.00  0.00    +0.000 Cl
ATOM     11  C   UNL     1       5.497   4.790  17.591  0.00  0.00    +0.000 A 
ATOM     12  S   UNL     1       6.544   5.895  16.748  0.00  0.00    +0.000 S 
ATOM     13  O   UNL     1       5.724   6.919  16.138  0.00  0.00    +0.000 OA
ATOM     14  O   UNL     1       7.532   5.121  16.030  0.00  0.00    +0.000 OA
ENDROOT
BRANCH   6  15
ATOM     15  O   UNL     1       3.218   2.396  20.056  0.00  0.00    +0.000 OA
BRANCH  15  16
ATOM     16  C   UNL     1       2.521   3.002  21.142  0.00  0.00    +0.000 C 
BRANCH  16  17
ATOM     17  C   UNL     1       1.364   3.841  20.637  0.00  0.00    +0.000 C 
ATOM     18  O   UNL     1       1.334   5.059  20.677  0.00  0.00    +0.000 OA
BRANCH  17  19
ATOM     19  O   UNL     1       0.346   3.098  20.135  0.00  0.00    +0.000 OA
ATOM     20  H   UNL     1       0.672   2.246  19.772  0.00  0.00    +0.000 HD
ENDBRANCH  17  19
ENDBRANCH  16  17
ENDBRANCH  15  16
ENDBRANCH   6  15
TORSDOF 4
ENDMDL
MODEL 9
REMARK VINA RESULT:      -6.3      0.886      1.189
REMARK  Name = 
REMARK  5 active torsions:
REMARK  status: ('A' for Active; 'I' for Inactive)
REMARK    1  A    between atoms: C_1  and  C_2
REMARK    2  A    between atoms: C_6  and  O_7
REMARK    3  A    between atoms: O_7  and  C_8
REMARK    4  A    between atoms: C_8  and  C_9
REMARK    5  A    between atoms: C_9  and  O_11
REMARK                            x       y       z     vdW  Elec       q    Type
REMARK                         _______ _______ _______ _____ _____    ______ ____
ROOT
ATOM      1  C   UNL     1       7.384   5.018  13.938  0.00  0.00    +0.000 C 
ATOM      2  C   UNL     1       6.326   4.876  14.968  0.00  0.00    +0.000 C 
ATOM      3  C   UNL     1       5.706   3.772  15.423  0.00  0.00    +0.000 C 
ATOM      4  C   UNL     1       4.702   4.067  16.446  0.00  0.00    +0.000 A 
ATOM      5  C   UNL     1       3.884   3.168  17.120  0.00  0.00    +0.000 A 
ATOM      6  C   UNL     1       2.980   3.664  18.078  0.00  0.00    +0.000 A 
ATOM      7  C   UNL     1       2.925   5.055  18.360  0.00  0.00    +0.000 A 
ATOM      8 CL   UNL     1       1.803   5.619  19.565  0.00  0.00    +0.000 Cl
ATOM      9  C   UNL     1       3.748   5.958  17.676  0.00  0.00    +0.000 A 
ATOM     10 CL   UNL     1       3.701   7.655  17.980  0.00  0.00    +0.000 Cl
ATOM     11  C   UNL     1       4.611   5.430  16.738  0.00  0.00    +0.000 A 
ATOM     12  S   UNL     1       5.737   6.320  15.754  0.00  0.00    +0.000 S 
ATOM     13  O   UNL     1       6.765   6.859  16.616  0.00  0.00    +0.000 OA
ATOM     14  O   UNL     1       4.979   7.113  14.811  0.00  0.00    +0.000 OA
ENDROOT
BRANCH   6  15
ATOM     15  O   UNL     1       2.164   2.862  18.841  0.00  0.00    +0.000 OA
BRANCH  15  16
ATOM     16  C   UNL     1       2.741   1.704  19.441  0.00  0.00    +0.000 C 
BRANCH  16  17
ATOM     17  C   UNL     1       3.681   2.094  20.565  0.00  0.00    +0.000 C 
ATOM     18  O   UNL     1       3.313   2.518  21.648  0.00  0.00    +0.000 OA
BRANCH  17  19
ATOM     19  O   UNL     1       4.990   1.928  20.249  0.00  0.00    +0.000 OA
ATOM     20  H   UNL     1       5.385   1.182  20.750  0.00  0.00    +0.000 HD
ENDBRANCH  17  19
ENDBRANCH  16  17
ENDBRANCH  15  16
ENDBRANCH   6  15
TORSDOF 4
ENDMDL
