MODEL 1
REMARK VINA RESULT:      -7.4      0.000      0.000
REMARK  Name = 
REMARK  3 active torsions:
REMARK  status: ('A' for Active; 'I' for Inactive)
REMARK    1  A    between atoms: C_1  and  N_2
REMARK    2  A    between atoms: C_4  and  C_5
REMARK    3  A    between atoms: C_12  and  C_14
REMARK                            x       y       z     vdW  Elec       q    Type
REMARK                         _______ _______ _______ _____ _____    ______ ____
ROOT
ATOM      1  C   UNL     1       1.598   7.088  19.916  0.00  0.00    +0.000 C 
ATOM      2  C   UNL     1       1.856   5.669  20.386  0.00  0.00    +0.000 C 
ATOM      3  O   UNL     1       2.696   5.080  19.388  0.00  0.00    +0.000 OA
ATOM      4  C   UNL     1       3.536   6.116  18.832  0.00  0.00    +0.000 C 
ATOM      5  C   UNL     1       3.580   5.924  17.308  0.00  0.00    +0.000 C 
ATOM      6  C   UNL     1       4.290   4.621  16.953  0.00  0.00    +0.000 C 
ATOM      7  N   UNL     1       5.640   4.631  17.517  0.00  0.00    +0.000 N 
ATOM      8  C   UNL     1       6.849   4.518  16.820  0.00  0.00    +0.000 C 
ATOM      9  O   UNL     1       7.930   4.423  17.407  0.00  0.00    +0.000 OA
ATOM     10  C   UNL     1       5.661   4.716  18.973  0.00  0.00    +0.000 C 
ATOM     11  C   UNL     1       4.946   5.981  19.443  0.00  0.00    +0.000 C 
ATOM     12  C   UNL     1       2.898   7.456  19.220  0.00  0.00    +0.000 C 
ENDROOT
BRANCH   1  16
ATOM     13  C   UNL     1      -0.932   9.972  23.161  0.00  0.00    +0.000 C 
ATOM     14  N   UNL     1       0.107   9.295  22.424  0.00  0.00    +0.000 N 
ATOM     15  C   UNL     1      -0.055   8.463  21.358  0.00  0.00    +0.000 A 
ATOM     16  C   UNL     1       1.210   8.032  21.000  0.00  0.00    +0.000 A 
ATOM     17  C   UNL     1       2.060   8.687  21.920  0.00  0.00    +0.000 A 
ATOM     18  N   UNL     1       1.392   9.456  22.783  0.00  0.00    +0.000 NA
ENDBRANCH   1  16
BRANCH   8  19
ATOM     19  C   UNL     1       6.877   4.472  15.319  0.00  0.00    +0.000 A 
ATOM     20  C   UNL     1       6.001   3.610  14.664  0.00  0.00    +0.000 A 
ATOM     21  C   UNL     1       5.980   3.612  13.272  0.00  0.00    +0.000 A 
ATOM     22  C   UNL     1       6.831   4.465  12.579  0.00  0.00    +0.000 A 
ATOM     23  C   UNL     1       7.698   5.261  13.310  0.00  0.00    +0.000 A 
ATOM     24  N   UNL     1       7.757   5.266  14.657  0.00  0.00    +0.000 NA
ENDBRANCH   8  19
TORSDOF 2
ENDMDL
MODEL 2
REMARK VINA RESULT:      -7.0      2.074      3.083
REMARK  Name = 
REMARK  3 active torsions:
REMARK  status: ('A' for Active; 'I' for Inactive)
REMARK    1  A    between atoms: C_1  and  N_2
REMARK    2  A    between atoms: C_4  and  C_5
REMARK    3  A    between atoms: C_12  and  C_14
REMARK                            x       y       z     vdW  Elec       q    Type
REMARK                         _______ _______ _______ _____ _____    ______ ____
ROOT
ATOM      1  C   UNL     1       3.143   5.435  18.894  0.00  0.00    +0.000 C 
ATOM      2  C   UNL     1       4.597   5.268  19.295  0.00  0.00    +0.000 C 
ATOM      3  O   UNL     1       5.248   4.705  18.152  0.00  0.00    +0.000 OA
ATOM      4  C   UNL     1       4.590   5.198  16.964  0.00  0.00    +0.000 C 
ATOM      5  C   UNL     1       4.427   4.021  15.990  0.00  0.00    +0.000 C 
ATOM      6  C   UNL     1       5.788   3.537  15.502  0.00  0.00    +0.000 C 
ATOM      7  N   UNL     1       6.502   4.645  14.867  0.00  0.00    +0.000 N 
ATOM      8  C   UNL     1       6.972   4.705  13.549  0.00  0.00    +0.000 C 
ATOM      9  O   UNL     1       7.664   5.645  13.149  0.00  0.00    +0.000 OA
ATOM     10  C   UNL     1       6.771   5.757  15.771  0.00  0.00    +0.000 C 
ATOM     11  C   UNL     1       5.466   6.306  16.344  0.00  0.00    +0.000 C 
ATOM     12  C   UNL     1       3.235   5.760  17.412  0.00  0.00    +0.000 C 
ENDROOT
BRANCH   1  16
ATOM     13  C   UNL     1       0.951   9.646  20.539  0.00  0.00    +0.000 C 
ATOM     14  N   UNL     1       1.438   8.295  20.410  0.00  0.00    +0.000 N 
ATOM     15  C   UNL     1       2.201   7.793  19.400  0.00  0.00    +0.000 A 
ATOM     16  C   UNL     1       2.401   6.454  19.686  0.00  0.00    +0.000 A 
ATOM     17  C   UNL     1       1.718   6.267  20.909  0.00  0.00    +0.000 A 
ATOM     18  N   UNL     1       1.135   7.385  21.352  0.00  0.00    +0.000 NA
ENDBRANCH   1  16
BRANCH   8  19
ATOM     19  C   UNL     1       6.680   3.603  12.571  0.00  0.00    +0.000 A 
ATOM     20  C   UNL     1       7.750   2.956  11.958  0.00  0.00    +0.000 A 
ATOM     21  C   UNL     1       7.484   1.893  11.101  0.00  0.00    +0.000 A 
ATOM     22  C   UNL     1       6.166   1.510  10.878  0.00  0.00    +0.000 A 
ATOM     23  C   UNL     1       5.161   2.233  11.498  0.00  0.00    +0.000 A 
ATOM     24  N   UNL     1       5.386   3.281  12.317  0.00  0.00    +0.000 NA
ENDBRANCH   8  19
TORSDOF 2
ENDMDL
MODEL 3
REMARK VINA RESULT:      -6.9      8.731      9.622
REMARK  Name = 
REMARK  3 active torsions:
REMARK  status: ('A' for Active; 'I' for Inactive)
REMARK    1  A    between atoms: C_1  and  N_2
REMARK    2  A    between atoms: C_4  and  C_5
REMARK    3  A    between atoms: C_12  and  C_14
REMARK                            x       y       z     vdW  Elec       q    Type
REMARK                         _______ _______ _______ _____ _____    ______ ____
ROOT
ATOM      1  C   UNL     1       7.573  11.981  25.445  0.00  0.00    +0.000 C 
ATOM      2  C   UNL     1       7.650  13.496  25.481  0.00  0.00    +0.000 C 
ATOM      3  O   UNL     1       8.248  13.881  24.239  0.00  0.00    +0.000 OA
ATOM      4  C   UNL     1       7.855  12.925  23.229  0.00  0.00    +0.000 C 
ATOM      5  C   UNL     1       9.092  12.597  22.379  0.00  0.00    +0.000 C 
ATOM      6  C   UNL     1       9.541  13.824  21.592  0.00  0.00    +0.000 C 
ATOM      7  N   UNL     1       8.440  14.295  20.752  0.00  0.00    +0.000 N 
ATOM      8  C   UNL     1       8.435  14.425  19.357  0.00  0.00    +0.000 C 
ATOM      9  O   UNL     1       7.489  14.942  18.758  0.00  0.00    +0.000 OA
ATOM     10  C   UNL     1       7.267  14.712  21.511  0.00  0.00    +0.000 C 
ATOM     11  C   UNL     1       6.746  13.557  22.364  0.00  0.00    +0.000 C 
ATOM     12  C   UNL     1       7.331  11.689  23.973  0.00  0.00    +0.000 C 
ENDROOT
BRANCH   1  16
ATOM     13  C   UNL     1       3.440   9.864  27.362  0.00  0.00    +0.000 C 
ATOM     14  N   UNL     1       4.738  10.469  27.194  0.00  0.00    +0.000 N 
ATOM     15  C   UNL     1       5.282  10.930  26.033  0.00  0.00    +0.000 A 
ATOM     16  C   UNL     1       6.545  11.397  26.349  0.00  0.00    +0.000 A 
ATOM     17  C   UNL     1       6.646  11.176  27.741  0.00  0.00    +0.000 A 
ATOM     18  N   UNL     1       5.548  10.615  28.256  0.00  0.00    +0.000 NA
ENDBRANCH   1  16
BRANCH   8  19
ATOM     19  C   UNL     1       9.604  13.968  18.532  0.00  0.00    +0.000 A 
ATOM     20  C   UNL     1       9.747  12.605  18.281  0.00  0.00    +0.000 A 
ATOM     21  C   UNL     1      10.792  12.185  17.464  0.00  0.00    +0.000 A 
ATOM     22  C   UNL     1      11.661  13.129  16.929  0.00  0.00    +0.000 A 
ATOM     23  C   UNL     1      11.469  14.460  17.262  0.00  0.00    +0.000 A 
ATOM     24  N   UNL     1      10.479  14.895  18.068  0.00  0.00    +0.000 NA
ENDBRANCH   8  19
TORSDOF 2
ENDMDL
MODEL 4
REMARK VINA RESULT:      -6.6      1.818      2.455
REMARK  Name = 
REMARK  3 active torsions:
REMARK  status: ('A' for Active; 'I' for Inactive)
REMARK    1  A    between atoms: C_1  and  N_2
REMARK    2  A    between atoms: C_4  and  C_5
REMARK    3  A    between atoms: C_12  and  C_14
REMARK                            x       y       z     vdW  Elec       q    Type
REMARK                         _______ _______ _______ _____ _____    ______ ____
ROOT
ATOM      1  C   UNL     1       2.697   6.126  19.019  0.00  0.00    +0.000 C 
ATOM      2  C   UNL     1       4.040   5.682  19.567  0.00  0.00    +0.000 C 
ATOM      3  O   UNL     1       4.703   5.030  18.479  0.00  0.00    +0.000 OA
ATOM      4  C   UNL     1       4.287   5.662  17.248  0.00  0.00    +0.000 C 
ATOM      5  C   UNL     1       4.022   4.558  16.214  0.00  0.00    +0.000 C 
ATOM      6  C   UNL     1       5.318   3.837  15.856  0.00  0.00    +0.000 C 
ATOM      7  N   UNL     1       6.291   4.805  15.349  0.00  0.00    +0.000 N 
ATOM      8  C   UNL     1       6.911   4.803  14.093  0.00  0.00    +0.000 C 
ATOM      9  O   UNL     1       7.805   5.605  13.810  0.00  0.00    +0.000 OA
ATOM     10  C   UNL     1       6.655   5.827  16.323  0.00  0.00    +0.000 C 
ATOM     11  C   UNL     1       5.416   6.599  16.774  0.00  0.00    +0.000 C 
ATOM     12  C   UNL     1       3.015   6.459  17.570  0.00  0.00    +0.000 C 
ENDROOT
BRANCH   1  16
ATOM     13  C   UNL     1       0.698   9.075  22.562  0.00  0.00    +0.000 C 
ATOM     14  N   UNL     1       1.196   8.545  21.316  0.00  0.00    +0.000 N 
ATOM     15  C   UNL     1       1.693   7.296  21.098  0.00  0.00    +0.000 A 
ATOM     16  C   UNL     1       2.070   7.249  19.768  0.00  0.00    +0.000 A 
ATOM     17  C   UNL     1       1.736   8.533  19.280  0.00  0.00    +0.000 A 
ATOM     18  N   UNL     1       1.202   9.319  20.218  0.00  0.00    +0.000 NA
ENDBRANCH   1  16
BRANCH   8  19
ATOM     19  C   UNL     1       6.534   3.796  13.044  0.00  0.00    +0.000 A 
ATOM     20  C   UNL     1       5.187   3.642  12.724  0.00  0.00    +0.000 A 
ATOM     21  C   UNL     1       4.842   2.755  11.708  0.00  0.00    +0.000 A 
ATOM     22  C   UNL     1       5.842   2.050  11.049  0.00  0.00    +0.000 A 
ATOM     23  C   UNL     1       7.152   2.236  11.458  0.00  0.00    +0.000 A 
ATOM     24  N   UNL     1       7.517   3.070  12.452  0.00  0.00    +0.000 NA
ENDBRANCH   8  19
TORSDOF 2
ENDMDL
MODEL 5
REMARK VINA RESULT:      -6.6      5.147     11.875
REMARK  Name = 
REMARK  3 active torsions:
REMARK  status: ('A' for Active; 'I' for Inactive)
REMARK    1  A    between atoms: C_1  and  N_2
REMARK    2  A    between atoms: C_4  and  C_5
REMARK    3  A    between atoms: C_12  and  C_14
REMARK                            x       y       z     vdW  Elec       q    Type
REMARK                         _______ _______ _______ _____ _____    ______ ____
ROOT
ATOM      1  C   UNL     1       0.572  10.396  19.121  0.00  0.00    +0.000 C 
ATOM      2  C   UNL     1       1.189  11.489  19.972  0.00  0.00    +0.000 C 
ATOM      3  O   UNL     1       0.087  12.212  20.530  0.00  0.00    +0.000 OA
ATOM      4  C   UNL     1      -1.008  11.289  20.729  0.00  0.00    +0.000 C 
ATOM      5  C   UNL     1      -2.300  11.982  20.270  0.00  0.00    +0.000 C 
ATOM      6  C   UNL     1      -2.625  13.164  21.177  0.00  0.00    +0.000 C 
ATOM      7  N   UNL     1      -2.743  12.701  22.560  0.00  0.00    +0.000 N 
ATOM      8  C   UNL     1      -3.860  12.812  23.398  0.00  0.00    +0.000 C 
ATOM      9  O   UNL     1      -3.813  12.489  24.588  0.00  0.00    +0.000 OA
ATOM     10  C   UNL     1      -1.513  12.118  23.085  0.00  0.00    +0.000 C 
ATOM     11  C   UNL     1      -1.078  10.931  22.227  0.00  0.00    +0.000 C 
ATOM     12  C   UNL     1      -0.696  10.047  19.884  0.00  0.00    +0.000 C 
ENDROOT
BRANCH   1  16
ATOM     13  C   UNL     1       3.130   6.087  19.480  0.00  0.00    +0.000 C 
ATOM     14  N   UNL     1       2.586   7.344  19.028  0.00  0.00    +0.000 N 
ATOM     15  C   UNL     1       1.735   8.160  19.709  0.00  0.00    +0.000 A 
ATOM     16  C   UNL     1       1.465   9.231  18.876  0.00  0.00    +0.000 A 
ATOM     17  C   UNL     1       2.227   8.955  17.718  0.00  0.00    +0.000 A 
ATOM     18  N   UNL     1       2.911   7.811  17.810  0.00  0.00    +0.000 NA
ENDBRANCH   1  16
BRANCH   8  19
ATOM     19  C   UNL     1      -5.159  13.365  22.887  0.00  0.00    +0.000 A 
ATOM     20  C   UNL     1      -5.429  14.718  23.082  0.00  0.00    +0.000 A 
ATOM     21  C   UNL     1      -6.603  15.246  22.553  0.00  0.00    +0.000 A 
ATOM     22  C   UNL     1      -7.471  14.414  21.855  0.00  0.00    +0.000 A 
ATOM     23  C   UNL     1      -7.144  13.073  21.743  0.00  0.00    +0.000 A 
ATOM     24  N   UNL     1      -6.025  12.527  22.261  0.00  0.00    +0.000 NA
ENDBRANCH   8  19
TORSDOF 2
ENDMDL
MODEL 6
REMARK VINA RESULT:      -6.5      3.850     10.527
REMARK  Name = 
REMARK  3 active torsions:
REMARK  status: ('A' for Active; 'I' for Inactive)
REMARK    1  A    between atoms: C_1  and  N_2
REMARK    2  A    between atoms: C_4  and  C_5
REMARK    3  A    between atoms: C_12  and  C_14
REMARK                            x       y       z     vdW  Elec       q    Type
REMARK                         _______ _______ _______ _____ _____    ______ ____
ROOT
ATOM      1  C   UNL     1       1.601   8.247  18.549  0.00  0.00    +0.000 C 
ATOM      2  C   UNL     1       1.818   9.562  17.824  0.00  0.00    +0.000 C 
ATOM      3  O   UNL     1       0.938  10.498  18.455  0.00  0.00    +0.000 OA
ATOM      4  C   UNL     1       0.809  10.135  19.847  0.00  0.00    +0.000 C 
ATOM      5  C   UNL     1      -0.672  10.266  20.235  0.00  0.00    +0.000 C 
ATOM      6  C   UNL     1      -1.115  11.724  20.176  0.00  0.00    +0.000 C 
ATOM      7  N   UNL     1      -0.271  12.527  21.060  0.00  0.00    +0.000 N 
ATOM      8  C   UNL     1      -0.685  13.306  22.149  0.00  0.00    +0.000 C 
ATOM      9  O   UNL     1       0.100  14.037  22.759  0.00  0.00    +0.000 OA
ATOM     10  C   UNL     1       1.138  12.520  20.684  0.00  0.00    +0.000 C 
ATOM     11  C   UNL     1       1.682  11.092  20.684  0.00  0.00    +0.000 C 
ATOM     12  C   UNL     1       1.306   8.690  19.974  0.00  0.00    +0.000 C 
ENDROOT
BRANCH   1  16
ATOM     13  C   UNL     1       5.809   5.847  17.217  0.00  0.00    +0.000 C 
ATOM     14  N   UNL     1       4.580   6.238  17.863  0.00  0.00    +0.000 N 
ATOM     15  C   UNL     1       3.784   7.294  17.536  0.00  0.00    +0.000 A 
ATOM     16  C   UNL     1       2.738   7.292  18.441  0.00  0.00    +0.000 A 
ATOM     17  C   UNL     1       3.006   6.173  19.261  0.00  0.00    +0.000 A 
ATOM     18  N   UNL     1       4.123   5.530  18.909  0.00  0.00    +0.000 NA
ENDBRANCH   1  16
BRANCH   8  19
ATOM     19  C   UNL     1      -2.117  13.309  22.599  0.00  0.00    +0.000 A 
ATOM     20  C   UNL     1      -2.538  12.320  23.485  0.00  0.00    +0.000 A 
ATOM     21  C   UNL     1      -3.848  12.359  23.953  0.00  0.00    +0.000 A 
ATOM     22  C   UNL     1      -4.696  13.373  23.523  0.00  0.00    +0.000 A 
ATOM     23  C   UNL     1      -4.207  14.293  22.610  0.00  0.00    +0.000 A 
ATOM     24  N   UNL     1      -2.950  14.270  22.122  0.00  0.00    +0.000 NA
ENDBRANCH   8  19
TORSDOF 2
ENDMDL
MODEL 7
REMARK VINA RESULT:      -6.5      8.373      9.448
REMARK  Name = 
REMARK  3 active torsions:
REMARK  status: ('A' for Active; 'I' for Inactive)
REMARK    1  A    between atoms: C_1  and  N_2
REMARK    2  A    between atoms: C_4  and  C_5
REMARK    3  A    between atoms: C_12  and  C_14
REMARK                            x       y       z     vdW  Elec       q    Type
REMARK                         _______ _______ _______ _____ _____    ______ ____
ROOT
ATOM      1  C   UNL     1       7.108  11.795  25.421  0.00  0.00    +0.000 C 
ATOM      2  C   UNL     1       7.538  13.243  25.564  0.00  0.00    +0.000 C 
ATOM      3  O   UNL     1       8.191  13.573  24.333  0.00  0.00    +0.000 OA
ATOM      4  C   UNL     1       7.569  12.816  23.271  0.00  0.00    +0.000 C 
ATOM      5  C   UNL     1       8.682  12.277  22.359  0.00  0.00    +0.000 C 
ATOM      6  C   UNL     1       9.394  13.424  21.649  0.00  0.00    +0.000 C 
ATOM      7  N   UNL     1       8.421  14.201  20.881  0.00  0.00    +0.000 N 
ATOM      8  C   UNL     1       8.425  14.437  19.500  0.00  0.00    +0.000 C 
ATOM      9  O   UNL     1       7.617  15.204  18.971  0.00  0.00    +0.000 OA
ATOM     10  C   UNL     1       7.390  14.819  21.707  0.00  0.00    +0.000 C 
ATOM     11  C   UNL     1       6.626  13.754  22.491  0.00  0.00    +0.000 C 
ATOM     12  C   UNL     1       6.782  11.682  23.941  0.00  0.00    +0.000 C 
ENDROOT
BRANCH   1  16
ATOM     13  C   UNL     1       3.018   9.667  27.417  0.00  0.00    +0.000 C 
ATOM     14  N   UNL     1       4.197  10.467  27.194  0.00  0.00    +0.000 N 
ATOM     15  C   UNL     1       4.947  10.520  26.059  0.00  0.00    +0.000 A 
ATOM     16  C   UNL     1       5.986  11.397  26.315  0.00  0.00    +0.000 A 
ATOM     17  C   UNL     1       5.747  11.822  27.641  0.00  0.00    +0.000 A 
ATOM     18  N   UNL     1       4.659  11.261  28.175  0.00  0.00    +0.000 NA
ENDBRANCH   1  16
BRANCH   8  19
ATOM     19  C   UNL     1       9.441  13.786  18.606  0.00  0.00    +0.000 A 
ATOM     20  C   UNL     1      10.326  14.599  17.903  0.00  0.00    +0.000 A 
ATOM     21  C   UNL     1      11.310  13.997  17.124  0.00  0.00    +0.000 A 
ATOM     22  C   UNL     1      11.379  12.610  17.066  0.00  0.00    +0.000 A 
ATOM     23  C   UNL     1      10.434  11.877  17.766  0.00  0.00    +0.000 A 
ATOM     24  N   UNL     1       9.456  12.432  18.512  0.00  0.00    +0.000 NA
ENDBRANCH   8  19
TORSDOF 2
ENDMDL
MODEL 8
REMARK VINA RESULT:      -6.4      5.005     11.634
REMARK  Name = 
REMARK  3 active torsions:
REMARK  status: ('A' for Active; 'I' for Inactive)
REMARK    1  A    between atoms: C_1  and  N_2
REMARK    2  A    between atoms: C_4  and  C_5
REMARK    3  A    between atoms: C_12  and  C_14
REMARK                            x       y       z     vdW  Elec       q    Type
REMARK                         _______ _______ _______ _____ _____    ______ ____
ROOT
ATOM      1  C   UNL     1       0.757  10.033  18.899  0.00  0.00    +0.000 C 
ATOM      2  C   UNL     1       1.368  11.242  19.582  0.00  0.00    +0.000 C 
ATOM      3  O   UNL     1       0.263  12.001  20.082  0.00  0.00    +0.000 OA
ATOM      4  C   UNL     1      -0.797  11.083  20.434  0.00  0.00    +0.000 C 
ATOM      5  C   UNL     1      -2.123  11.678  19.937  0.00  0.00    +0.000 C 
ATOM      6  C   UNL     1      -2.455  12.958  20.697  0.00  0.00    +0.000 C 
ATOM      7  N   UNL     1      -2.516  12.673  22.131  0.00  0.00    +0.000 N 
ATOM      8  C   UNL     1      -3.609  12.862  22.986  0.00  0.00    +0.000 C 
ATOM      9  O   UNL     1      -3.515  12.695  24.204  0.00  0.00    +0.000 OA
ATOM     10  C   UNL     1      -1.253  12.194  22.682  0.00  0.00    +0.000 C 
ATOM     11  C   UNL     1      -0.810  10.918  21.967  0.00  0.00    +0.000 C 
ATOM     12  C   UNL     1      -0.475   9.752  19.744  0.00  0.00    +0.000 C 
ENDROOT
BRANCH   1  16
ATOM     13  C   UNL     1       4.172   6.696  17.334  0.00  0.00    +0.000 C 
ATOM     14  N   UNL     1       3.173   7.406  18.094  0.00  0.00    +0.000 N 
ATOM     15  C   UNL     1       2.516   8.540  17.724  0.00  0.00    +0.000 A 
ATOM     16  C   UNL     1       1.677   8.869  18.773  0.00  0.00    +0.000 A 
ATOM     17  C   UNL     1       1.908   7.845  19.720  0.00  0.00    +0.000 A 
ATOM     18  N   UNL     1       2.813   6.954  19.307  0.00  0.00    +0.000 NA
ENDBRANCH   1  16
BRANCH   8  19
ATOM     19  C   UNL     1      -4.939  13.311  22.455  0.00  0.00    +0.000 A 
ATOM     20  C   UNL     1      -5.235  14.672  22.466  0.00  0.00    +0.000 A 
ATOM     21  C   UNL     1      -6.440  15.097  21.916  0.00  0.00    +0.000 A 
ATOM     22  C   UNL     1      -7.313  14.158  21.378  0.00  0.00    +0.000 A 
ATOM     23  C   UNL     1      -6.957  12.821  21.443  0.00  0.00    +0.000 A 
ATOM     24  N   UNL     1      -5.806  12.377  21.989  0.00  0.00    +0.000 NA
ENDBRANCH   8  19
TORSDOF 2
ENDMDL
MODEL 9
REMARK VINA RESULT:      -6.3      4.331      6.390
REMARK  Name = 
REMARK  3 active torsions:
REMARK  status: ('A' for Active; 'I' for Inactive)
REMARK    1  A    between atoms: C_1  and  N_2
REMARK    2  A    between atoms: C_4  and  C_5
REMARK    3  A    between atoms: C_12  and  C_14
REMARK                            x       y       z     vdW  Elec       q    Type
REMARK                         _______ _______ _______ _____ _____    ______ ____
ROOT
ATOM      1  C   UNL     1      -0.744  11.605  21.486  0.00  0.00    +0.000 C 
ATOM      2  C   UNL     1       0.708  11.920  21.179  0.00  0.00    +0.000 C 
ATOM      3  O   UNL     1       1.357  10.651  21.045  0.00  0.00    +0.000 OA
ATOM      4  C   UNL     1       0.404   9.708  20.507  0.00  0.00    +0.000 C 
ATOM      5  C   UNL     1       0.557   8.388  21.278  0.00  0.00    +0.000 C 
ATOM      6  C   UNL     1       1.919   7.760  21.001  0.00  0.00    +0.000 C 
ATOM      7  N   UNL     1       2.073   7.544  19.562  0.00  0.00    +0.000 N 
ATOM      8  C   UNL     1       2.299   6.326  18.908  0.00  0.00    +0.000 C 
ATOM      9  O   UNL     1       2.529   6.274  17.697  0.00  0.00    +0.000 OA
ATOM     10  C   UNL     1       2.032   8.776  18.782  0.00  0.00    +0.000 C 
ATOM     11  C   UNL     1       0.710   9.506  19.008  0.00  0.00    +0.000 C 
ATOM     12  C   UNL     1      -0.987  10.325  20.702  0.00  0.00    +0.000 C 
ENDROOT
BRANCH   1  16
ATOM     13  C   UNL     1      -4.841  14.429  20.793  0.00  0.00    +0.000 C 
ATOM     14  N   UNL     1      -3.484  13.943  20.849  0.00  0.00    +0.000 N 
ATOM     15  C   UNL     1      -3.075  12.702  21.232  0.00  0.00    +0.000 A 
ATOM     16  C   UNL     1      -1.694  12.701  21.153  0.00  0.00    +0.000 A 
ATOM     17  C   UNL     1      -1.384  14.002  20.693  0.00  0.00    +0.000 A 
ATOM     18  N   UNL     1      -2.471  14.755  20.505  0.00  0.00    +0.000 NA
ENDBRANCH   1  16
BRANCH   8  19
ATOM     19  C   UNL     1       2.305   5.029  19.665  0.00  0.00    +0.000 A 
ATOM     20  C   UNL     1       1.100   4.551  20.174  0.00  0.00    +0.000 A 
ATOM     21  C   UNL     1       1.092   3.318  20.820  0.00  0.00    +0.000 A 
ATOM     22  C   UNL     1       2.279   2.606  20.944  0.00  0.00    +0.000 A 
ATOM     23  C   UNL     1       3.439   3.174  20.443  0.00  0.00    +0.000 A 
ATOM     24  N   UNL     1       3.482   4.375  19.831  0.00  0.00    +0.000 NA
ENDBRANCH   8  19
TORSDOF 2
ENDMDL
