MODEL 1
REMARK VINA RESULT:      -8.4      0.000      0.000
REMARK  Name = 
REMARK  5 active torsions:
REMARK  status: ('A' for Active; 'I' for Inactive)
REMARK    1  A    between atoms: C_2  and  O_3
REMARK    2  A    between atoms: C_2  and  C_4
REMARK    3  A    between atoms: C_7  and  C_8
REMARK    4  A    between atoms: C_11  and  C_13
REMARK    5  A    between atoms: C_19  and  C_20
REMARK                            x       y       z     vdW  Elec       q    Type
REMARK                         _______ _______ _______ _____ _____    ______ ____
ROOT
ATOM      1  C   UNL     1       6.393   6.409  17.178  0.00  0.00    +0.000 A 
ATOM      2  C   UNL     1       5.200   6.041  17.772  0.00  0.00    +0.000 A 
ATOM      3  N   UNL     1       4.594   5.032  17.033  0.00  0.00    +0.000 N 
ATOM      4  C   UNL     1       3.432   4.300  17.403  0.00  0.00    +0.000 C 
ATOM      5  O   UNL     1       2.877   3.615  16.549  0.00  0.00    +0.000 OA
ATOM      6  C   UNL     1       5.365   4.822  15.893  0.00  0.00    +0.000 A 
ATOM      7  C   UNL     1       5.216   3.946  14.809  0.00  0.00    +0.000 A 
ATOM      8  C   UNL     1       6.231   3.937  13.861  0.00  0.00    +0.000 A 
ATOM      9  C   UNL     1       7.316   4.777  14.032  0.00  0.00    +0.000 A 
ATOM     10  N   UNL     1       7.488   5.636  15.060  0.00  0.00    +0.000 NA
ATOM     11  C   UNL     1       6.494   5.637  15.986  0.00  0.00    +0.000 A 
ENDROOT
BRANCH   1  15
ATOM     12  C   UNL     1       8.859   9.515  18.796  0.00  0.00    +0.000 A 
ATOM     13  C   UNL     1       7.963   9.783  17.756  0.00  0.00    +0.000 A 
ATOM     14  C   UNL     1       7.188   8.754  17.210  0.00  0.00    +0.000 A 
ATOM     15  C   UNL     1       7.280   7.443  17.703  0.00  0.00    +0.000 A 
ATOM     16  C   UNL     1       8.203   7.192  18.729  0.00  0.00    +0.000 A 
ATOM     17  F   UNL     1       8.363   5.956  19.225  0.00  0.00    +0.000 F 
ATOM     18  C   UNL     1       8.980   8.213  19.285  0.00  0.00    +0.000 A 
BRANCH  12  20
ATOM     19  O   UNL     1      10.224  11.451  18.730  0.00  0.00    +0.000 OA
ATOM     20  C   UNL     1       9.595  10.654  19.394  0.00  0.00    +0.000 C 
BRANCH  20  21
ATOM     21  O   UNL     1       9.516  10.704  20.742  0.00  0.00    +0.000 OA
ATOM     22  H   UNL     1      10.361  10.615  21.213  0.00  0.00    +0.000 HD
ENDBRANCH  20  21
ENDBRANCH  12  20
ENDBRANCH   1  15
BRANCH   4  23
ATOM     23  C   UNL     1       2.881   4.222  18.776  0.00  0.00    +0.000 A 
ATOM     24  C   UNL     1       2.083   5.288  19.245  0.00  0.00    +0.000 A 
ATOM     25 CL   UNL     1       1.763   6.726  18.329  0.00  0.00    +0.000 Cl
ATOM     26  C   UNL     1       1.577   5.283  20.547  0.00  0.00    +0.000 A 
ATOM     27  C   UNL     1       1.895   4.248  21.415  0.00  0.00    +0.000 A 
ATOM     28  C   UNL     1       2.733   3.224  20.985  0.00  0.00    +0.000 A 
ATOM     29  C   UNL     1       3.251   3.190  19.668  0.00  0.00    +0.000 A 
BRANCH  29  30
ATOM     30  C   UNL     1       4.200   2.048  19.370  0.00  0.00    +0.000 C 
ATOM     31  F   UNL     1       3.720   1.015  18.641  0.00  0.00    +0.000 F 
ATOM     32  F   UNL     1       5.327   2.484  18.735  0.00  0.00    +0.000 F 
ATOM     33  F   UNL     1       4.647   1.476  20.529  0.00  0.00    +0.000 F 
ENDBRANCH  29  30
ENDBRANCH   4  23
TORSDOF 5
ENDMDL
MODEL 2
REMARK VINA RESULT:      -8.3      2.034      2.444
REMARK  Name = 
REMARK  5 active torsions:
REMARK  status: ('A' for Active; 'I' for Inactive)
REMARK    1  A    between atoms: C_2  and  O_3
REMARK    2  A    between atoms: C_2  and  C_4
REMARK    3  A    between atoms: C_7  and  C_8
REMARK    4  A    between atoms: C_11  and  C_13
REMARK    5  A    between atoms: C_19  and  C_20
REMARK                            x       y       z     vdW  Elec       q    Type
REMARK                         _______ _______ _______ _____ _____    ______ ____
ROOT
ATOM      1  C   UNL     1       6.419   6.296  17.256  0.00  0.00    +0.000 A 
ATOM      2  C   UNL     1       5.282   5.868  17.916  0.00  0.00    +0.000 A 
ATOM      3  N   UNL     1       4.659   4.865  17.183  0.00  0.00    +0.000 N 
ATOM      4  C   UNL     1       3.549   4.082  17.604  0.00  0.00    +0.000 C 
ATOM      5  O   UNL     1       2.958   3.408  16.764  0.00  0.00    +0.000 OA
ATOM      6  C   UNL     1       5.356   4.721  15.987  0.00  0.00    +0.000 A 
ATOM      7  C   UNL     1       5.159   3.878  14.884  0.00  0.00    +0.000 A 
ATOM      8  C   UNL     1       6.107   3.936  13.869  0.00  0.00    +0.000 A 
ATOM      9  C   UNL     1       7.173   4.807  13.997  0.00  0.00    +0.000 A 
ATOM     10  N   UNL     1       7.389   5.635  15.042  0.00  0.00    +0.000 NA
ATOM     11  C   UNL     1       6.462   5.570  16.033  0.00  0.00    +0.000 A 
ENDROOT
BRANCH   1  15
ATOM     12  C   UNL     1       8.888   9.436  18.802  0.00  0.00    +0.000 A 
ATOM     13  C   UNL     1       8.002   9.678  17.747  0.00  0.00    +0.000 A 
ATOM     14  C   UNL     1       7.226   8.637  17.225  0.00  0.00    +0.000 A 
ATOM     15  C   UNL     1       7.307   7.341  17.758  0.00  0.00    +0.000 A 
ATOM     16  C   UNL     1       8.220   7.116  18.799  0.00  0.00    +0.000 A 
ATOM     17  F   UNL     1       8.369   5.894  19.333  0.00  0.00    +0.000 F 
ATOM     18  C   UNL     1       8.998   8.149  19.331  0.00  0.00    +0.000 A 
BRANCH  12  20
ATOM     19  O   UNL     1      10.281  11.351  18.693  0.00  0.00    +0.000 OA
ATOM     20  C   UNL     1       9.625  10.589  19.373  0.00  0.00    +0.000 C 
BRANCH  20  21
ATOM     21  O   UNL     1       9.513  10.696  20.714  0.00  0.00    +0.000 OA
ATOM     22  H   UNL     1       8.625  10.913  21.043  0.00  0.00    +0.000 HD
ENDBRANCH  20  21
ENDBRANCH  12  20
ENDBRANCH   1  15
BRANCH   4  23
ATOM     23  C   UNL     1       3.097   3.937  19.008  0.00  0.00    +0.000 A 
ATOM     24  C   UNL     1       3.168   2.662  19.611  0.00  0.00    +0.000 A 
ATOM     25 CL   UNL     1       3.692   1.232  18.781  0.00  0.00    +0.000 Cl
ATOM     26  C   UNL     1       2.713   2.464  20.917  0.00  0.00    +0.000 A 
ATOM     27  C   UNL     1       2.138   3.511  21.622  0.00  0.00    +0.000 A 
ATOM     28  C   UNL     1       2.004   4.756  21.015  0.00  0.00    +0.000 A 
ATOM     29  C   UNL     1       2.468   4.996  19.699  0.00  0.00    +0.000 A 
BRANCH  29  30
ATOM     30  C   UNL     1       2.192   6.382  19.153  0.00  0.00    +0.000 C 
ATOM     31  F   UNL     1       1.741   6.469  17.881  0.00  0.00    +0.000 F 
ATOM     32  F   UNL     1       1.299   7.059  19.932  0.00  0.00    +0.000 F 
ATOM     33  F   UNL     1       3.327   7.144  19.172  0.00  0.00    +0.000 F 
ENDBRANCH  29  30
ENDBRANCH   4  23
TORSDOF 5
ENDMDL
MODEL 3
REMARK VINA RESULT:      -7.8      4.205      7.027
REMARK  Name = 
REMARK  5 active torsions:
REMARK  status: ('A' for Active; 'I' for Inactive)
REMARK    1  A    between atoms: C_2  and  O_3
REMARK    2  A    between atoms: C_2  and  C_4
REMARK    3  A    between atoms: C_7  and  C_8
REMARK    4  A    between atoms: C_11  and  C_13
REMARK    5  A    between atoms: C_19  and  C_20
REMARK                            x       y       z     vdW  Elec       q    Type
REMARK                         _______ _______ _______ _____ _____    ______ ____
ROOT
ATOM      1  C   UNL     1       2.279   6.331  20.049  0.00  0.00    +0.000 A 
ATOM      2  C   UNL     1       3.632   6.396  19.772  0.00  0.00    +0.000 A 
ATOM      3  N   UNL     1       4.113   5.128  19.467  0.00  0.00    +0.000 N 
ATOM      4  C   UNL     1       5.416   4.816  18.991  0.00  0.00    +0.000 C 
ATOM      5  O   UNL     1       5.773   3.641  18.997  0.00  0.00    +0.000 OA
ATOM      6  C   UNL     1       3.070   4.225  19.652  0.00  0.00    +0.000 A 
ATOM      7  C   UNL     1       3.000   2.832  19.505  0.00  0.00    +0.000 A 
ATOM      8  C   UNL     1       1.758   2.240  19.695  0.00  0.00    +0.000 A 
ATOM      9  C   UNL     1       0.676   3.040  20.014  0.00  0.00    +0.000 A 
ATOM     10  N   UNL     1       0.710   4.380  20.167  0.00  0.00    +0.000 NA
ATOM     11  C   UNL     1       1.926   4.955  19.976  0.00  0.00    +0.000 A 
ENDROOT
BRANCH   1  15
ATOM     12  C   UNL     1       0.002   9.765  21.220  0.00  0.00    +0.000 A 
ATOM     13  C   UNL     1       0.015   8.613  22.012  0.00  0.00    +0.000 A 
ATOM     14  C   UNL     1       0.733   7.484  21.603  0.00  0.00    +0.000 A 
ATOM     15  C   UNL     1       1.464   7.490  20.406  0.00  0.00    +0.000 A 
ATOM     16  C   UNL     1       1.417   8.647  19.615  0.00  0.00    +0.000 A 
ATOM     17  F   UNL     1       2.068   8.710  18.443  0.00  0.00    +0.000 F 
ATOM     18  C   UNL     1       0.706   9.783  20.014  0.00  0.00    +0.000 A 
BRANCH  12  20
ATOM     19  O   UNL     1      -1.459  11.625  21.057  0.00  0.00    +0.000 OA
ATOM     20  C   UNL     1      -0.705  10.961  21.738  0.00  0.00    +0.000 C 
BRANCH  20  21
ATOM     21  O   UNL     1      -0.415  11.249  23.025  0.00  0.00    +0.000 OA
ATOM     22  H   UNL     1      -0.029  12.127  23.179  0.00  0.00    +0.000 HD
ENDBRANCH  20  21
ENDBRANCH  12  20
ENDBRANCH   1  15
BRANCH   4  23
ATOM     23  C   UNL     1       6.357   5.792  18.393  0.00  0.00    +0.000 A 
ATOM     24  C   UNL     1       7.534   6.115  19.102  0.00  0.00    +0.000 A 
ATOM     25 CL   UNL     1       7.915   5.487  20.673  0.00  0.00    +0.000 Cl
ATOM     26  C   UNL     1       8.432   7.062  18.602  0.00  0.00    +0.000 A 
ATOM     27  C   UNL     1       8.150   7.735  17.422  0.00  0.00    +0.000 A 
ATOM     28  C   UNL     1       6.963   7.472  16.747  0.00  0.00    +0.000 A 
ATOM     29  C   UNL     1       6.038   6.507  17.217  0.00  0.00    +0.000 A 
BRANCH  29  30
ATOM     30  C   UNL     1       4.763   6.380  16.410  0.00  0.00    +0.000 C 
ATOM     31  F   UNL     1       4.161   5.169  16.386  0.00  0.00    +0.000 F 
ATOM     32  F   UNL     1       3.819   7.277  16.818  0.00  0.00    +0.000 F 
ATOM     33  F   UNL     1       4.990   6.681  15.095  0.00  0.00    +0.000 F 
ENDBRANCH  29  30
ENDBRANCH   4  23
TORSDOF 5
ENDMDL
MODEL 4
REMARK VINA RESULT:      -7.3      3.719      6.734
REMARK  Name = 
REMARK  5 active torsions:
REMARK  status: ('A' for Active; 'I' for Inactive)
REMARK    1  A    between atoms: C_2  and  O_3
REMARK    2  A    between atoms: C_2  and  C_4
REMARK    3  A    between atoms: C_7  and  C_8
REMARK    4  A    between atoms: C_11  and  C_13
REMARK    5  A    between atoms: C_19  and  C_20
REMARK                            x       y       z     vdW  Elec       q    Type
REMARK                         _______ _______ _______ _____ _____    ______ ____
ROOT
ATOM      1  C   UNL     1       2.523   6.258  19.790  0.00  0.00    +0.000 A 
ATOM      2  C   UNL     1       3.722   6.078  19.126  0.00  0.00    +0.000 A 
ATOM      3  N   UNL     1       4.086   4.737  19.161  0.00  0.00    +0.000 N 
ATOM      4  C   UNL     1       5.176   4.144  18.468  0.00  0.00    +0.000 C 
ATOM      5  O   UNL     1       5.519   3.007  18.783  0.00  0.00    +0.000 OA
ATOM      6  C   UNL     1       3.152   4.067  19.946  0.00  0.00    +0.000 A 
ATOM      7  C   UNL     1       3.041   2.721  20.326  0.00  0.00    +0.000 A 
ATOM      8  C   UNL     1       1.919   2.366  21.064  0.00  0.00    +0.000 A 
ATOM      9  C   UNL     1       0.989   3.339  21.382  0.00  0.00    +0.000 A 
ATOM     10  N   UNL     1       1.069   4.642  21.037  0.00  0.00    +0.000 NA
ATOM     11  C   UNL     1       2.165   4.983  20.311  0.00  0.00    +0.000 A 
ENDROOT
BRANCH   1  15
ATOM     12  C   UNL     1       0.714  10.106  20.304  0.00  0.00    +0.000 A 
ATOM     13  C   UNL     1       0.853   9.232  21.387  0.00  0.00    +0.000 A 
ATOM     14  C   UNL     1       1.413   7.963  21.202  0.00  0.00    +0.000 A 
ATOM     15  C   UNL     1       1.859   7.550  19.937  0.00  0.00    +0.000 A 
ATOM     16  C   UNL     1       1.687   8.434  18.861  0.00  0.00    +0.000 A 
ATOM     17  F   UNL     1       2.063   8.090  17.619  0.00  0.00    +0.000 F 
ATOM     18  C   UNL     1       1.132   9.705  19.034  0.00  0.00    +0.000 A 
BRANCH  12  20
ATOM     19  O   UNL     1       0.508  12.115  21.546  0.00  0.00    +0.000 OA
ATOM     20  C   UNL     1       0.192  11.469  20.569  0.00  0.00    +0.000 C 
BRANCH  20  21
ATOM     21  O   UNL     1      -0.678  11.908  19.635  0.00  0.00    +0.000 OA
ATOM     22  H   UNL     1      -1.515  11.417  19.579  0.00  0.00    +0.000 HD
ENDBRANCH  20  21
ENDBRANCH  12  20
ENDBRANCH   1  15
BRANCH   4  23
ATOM     23  C   UNL     1       5.885   4.755  17.319  0.00  0.00    +0.000 A 
ATOM     24  C   UNL     1       5.434   4.460  16.014  0.00  0.00    +0.000 A 
ATOM     25 CL   UNL     1       4.135   3.364  15.669  0.00  0.00    +0.000 Cl
ATOM     26  C   UNL     1       6.095   4.976  14.897  0.00  0.00    +0.000 A 
ATOM     27  C   UNL     1       7.237   5.747  15.056  0.00  0.00    +0.000 A 
ATOM     28  C   UNL     1       7.728   5.991  16.334  0.00  0.00    +0.000 A 
ATOM     29  C   UNL     1       7.075   5.498  17.489  0.00  0.00    +0.000 A 
BRANCH  29  30
ATOM     30  C   UNL     1       7.766   5.791  18.805  0.00  0.00    +0.000 C 
ATOM     31  F   UNL     1       6.990   5.873  19.909  0.00  0.00    +0.000 F 
ATOM     32  F   UNL     1       8.738   4.874  19.077  0.00  0.00    +0.000 F 
ATOM     33  F   UNL     1       8.418   6.992  18.750  0.00  0.00    +0.000 F 
ENDBRANCH  29  30
ENDBRANCH   4  23
TORSDOF 5
ENDMDL
MODEL 5
REMARK VINA RESULT:      -7.3      3.810      6.795
REMARK  Name = 
REMARK  5 active torsions:
REMARK  status: ('A' for Active; 'I' for Inactive)
REMARK    1  A    between atoms: C_2  and  O_3
REMARK    2  A    between atoms: C_2  and  C_4
REMARK    3  A    between atoms: C_7  and  C_8
REMARK    4  A    between atoms: C_11  and  C_13
REMARK    5  A    between atoms: C_19  and  C_20
REMARK                            x       y       z     vdW  Elec       q    Type
REMARK                         _______ _______ _______ _____ _____    ______ ____
ROOT
ATOM      1  C   UNL     1       2.519   6.420  19.397  0.00  0.00    +0.000 A 
ATOM      2  C   UNL     1       3.744   6.152  18.815  0.00  0.00    +0.000 A 
ATOM      3  N   UNL     1       4.088   4.822  19.027  0.00  0.00    +0.000 N 
ATOM      4  C   UNL     1       5.200   4.140  18.462  0.00  0.00    +0.000 C 
ATOM      5  O   UNL     1       5.513   3.048  18.926  0.00  0.00    +0.000 OA
ATOM      6  C   UNL     1       3.112   4.259  19.845  0.00  0.00    +0.000 A 
ATOM      7  C   UNL     1       2.966   2.970  20.378  0.00  0.00    +0.000 A 
ATOM      8  C   UNL     1       1.808   2.716  21.103  0.00  0.00    +0.000 A 
ATOM      9  C   UNL     1       0.878   3.727  21.258  0.00  0.00    +0.000 A 
ATOM     10  N   UNL     1       0.990   4.978  20.763  0.00  0.00    +0.000 NA
ATOM     11  C   UNL     1       2.122   5.220  20.051  0.00  0.00    +0.000 A 
ENDROOT
BRANCH   1  15
ATOM     12  C   UNL     1       0.467  10.175  19.206  0.00  0.00    +0.000 A 
ATOM     13  C   UNL     1       0.976   9.579  18.047  0.00  0.00    +0.000 A 
ATOM     14  C   UNL     1       1.676   8.370  18.125  0.00  0.00    +0.000 A 
ATOM     15  C   UNL     1       1.866   7.726  19.356  0.00  0.00    +0.000 A 
ATOM     16  C   UNL     1       1.369   8.353  20.508  0.00  0.00    +0.000 A 
ATOM     17  F   UNL     1       1.542   7.806  21.722  0.00  0.00    +0.000 F 
ATOM     18  C   UNL     1       0.665   9.559  20.443  0.00  0.00    +0.000 A 
BRANCH  12  20
ATOM     19  O   UNL     1      -1.331  11.631  19.722  0.00  0.00    +0.000 OA
ATOM     20  C   UNL     1      -0.338  11.411  19.060  0.00  0.00    +0.000 C 
BRANCH  20  21
ATOM     21  O   UNL     1       0.127  12.253  18.112  0.00  0.00    +0.000 OA
ATOM     22  H   UNL     1       1.094  12.322  18.053  0.00  0.00    +0.000 HD
ENDBRANCH  20  21
ENDBRANCH  12  20
ENDBRANCH   1  15
BRANCH   4  23
ATOM     23  C   UNL     1       5.967   4.602  17.280  0.00  0.00    +0.000 A 
ATOM     24  C   UNL     1       5.566   4.160  16.001  0.00  0.00    +0.000 A 
ATOM     25 CL   UNL     1       4.266   3.045  15.731  0.00  0.00    +0.000 Cl
ATOM     26  C   UNL     1       6.283   4.531  14.861  0.00  0.00    +0.000 A 
ATOM     27  C   UNL     1       7.430   5.302  14.977  0.00  0.00    +0.000 A 
ATOM     28  C   UNL     1       7.870   5.692  16.238  0.00  0.00    +0.000 A 
ATOM     29  C   UNL     1       7.160   5.346  17.414  0.00  0.00    +0.000 A 
BRANCH  29  30
ATOM     30  C   UNL     1       7.800   5.786  18.714  0.00  0.00    +0.000 C 
ATOM     31  F   UNL     1       6.987   5.947  19.783  0.00  0.00    +0.000 F 
ATOM     32  F   UNL     1       8.790   4.932  19.101  0.00  0.00    +0.000 F 
ATOM     33  F   UNL     1       8.418   6.998  18.563  0.00  0.00    +0.000 F 
ENDBRANCH  29  30
ENDBRANCH   4  23
TORSDOF 5
ENDMDL
MODEL 6
REMARK VINA RESULT:      -7.1      6.877      9.739
REMARK  Name = 
REMARK  5 active torsions:
REMARK  status: ('A' for Active; 'I' for Inactive)
REMARK    1  A    between atoms: C_2  and  O_3
REMARK    2  A    between atoms: C_2  and  C_4
REMARK    3  A    between atoms: C_7  and  C_8
REMARK    4  A    between atoms: C_11  and  C_13
REMARK    5  A    between atoms: C_19  and  C_20
REMARK                            x       y       z     vdW  Elec       q    Type
REMARK                         _______ _______ _______ _____ _____    ______ ____
ROOT
ATOM      1  C   UNL     1       0.949  10.132  18.930  0.00  0.00    +0.000 A 
ATOM      2  C   UNL     1       1.607  11.329  19.143  0.00  0.00    +0.000 A 
ATOM      3  N   UNL     1       0.725  12.390  18.975  0.00  0.00    +0.000 N 
ATOM      4  C   UNL     1       0.995  13.759  19.249  0.00  0.00    +0.000 C 
ATOM      5  O   UNL     1       0.211  14.604  18.826  0.00  0.00    +0.000 OA
ATOM      6  C   UNL     1      -0.492  11.864  18.549  0.00  0.00    +0.000 A 
ATOM      7  C   UNL     1      -1.711  12.473  18.218  0.00  0.00    +0.000 A 
ATOM      8  C   UNL     1      -2.770  11.632  17.903  0.00  0.00    +0.000 A 
ATOM      9  C   UNL     1      -2.571  10.264  17.930  0.00  0.00    +0.000 A 
ATOM     10  N   UNL     1      -1.411   9.646  18.239  0.00  0.00    +0.000 NA
ATOM     11  C   UNL     1      -0.379  10.473  18.551  0.00  0.00    +0.000 A 
ENDROOT
BRANCH   1  15
ATOM     12  C   UNL     1       2.974   6.370  19.233  0.00  0.00    +0.000 A 
ATOM     13  C   UNL     1       3.045   7.126  18.059  0.00  0.00    +0.000 A 
ATOM     14  C   UNL     1       2.350   8.336  17.957  0.00  0.00    +0.000 A 
ATOM     15  C   UNL     1       1.587   8.822  19.030  0.00  0.00    +0.000 A 
ATOM     16  C   UNL     1       1.511   8.035  20.188  0.00  0.00    +0.000 A 
ATOM     17  F   UNL     1       0.774   8.426  21.241  0.00  0.00    +0.000 F 
ATOM     18  C   UNL     1       2.203   6.826  20.304  0.00  0.00    +0.000 A 
BRANCH  12  20
ATOM     19  O   UNL     1       3.308   4.026  19.353  0.00  0.00    +0.000 OA
ATOM     20  C   UNL     1       3.794   5.137  19.320  0.00  0.00    +0.000 C 
BRANCH  20  21
ATOM     21  O   UNL     1       5.123   5.372  19.380  0.00  0.00    +0.000 OA
ATOM     22  H   UNL     1       5.388   6.139  19.913  0.00  0.00    +0.000 HD
ENDBRANCH  20  21
ENDBRANCH  12  20
ENDBRANCH   1  15
BRANCH   4  23
ATOM     23  C   UNL     1       2.109  14.251  20.093  0.00  0.00    +0.000 A 
ATOM     24  C   UNL     1       1.834  14.610  21.431  0.00  0.00    +0.000 A 
ATOM     25 CL   UNL     1       0.248  14.574  22.130  0.00  0.00    +0.000 Cl
ATOM     26  C   UNL     1       2.840  15.121  22.254  0.00  0.00    +0.000 A 
ATOM     27  C   UNL     1       4.116  15.330  21.749  0.00  0.00    +0.000 A 
ATOM     28  C   UNL     1       4.383  15.040  20.415  0.00  0.00    +0.000 A 
ATOM     29  C   UNL     1       3.391  14.506  19.557  0.00  0.00    +0.000 A 
BRANCH  29  30
ATOM     30  C   UNL     1       3.815  14.305  18.117  0.00  0.00    +0.000 C 
ATOM     31  F   UNL     1       3.700  13.059  17.603  0.00  0.00    +0.000 F 
ATOM     32  F   UNL     1       3.139  15.139  17.273  0.00  0.00    +0.000 F 
ATOM     33  F   UNL     1       5.133  14.629  17.951  0.00  0.00    +0.000 F 
ENDBRANCH  29  30
ENDBRANCH   4  23
TORSDOF 5
ENDMDL
MODEL 7
REMARK VINA RESULT:      -7.0      8.564     11.809
REMARK  Name = 
REMARK  5 active torsions:
REMARK  status: ('A' for Active; 'I' for Inactive)
REMARK    1  A    between atoms: C_2  and  O_3
REMARK    2  A    between atoms: C_2  and  C_4
REMARK    3  A    between atoms: C_7  and  C_8
REMARK    4  A    between atoms: C_11  and  C_13
REMARK    5  A    between atoms: C_19  and  C_20
REMARK                            x       y       z     vdW  Elec       q    Type
REMARK                         _______ _______ _______ _____ _____    ______ ____
ROOT
ATOM      1  C   UNL     1       7.951  14.090  23.711  0.00  0.00    +0.000 A 
ATOM      2  C   UNL     1       7.941  14.138  22.329  0.00  0.00    +0.000 A 
ATOM      3  N   UNL     1       8.965  14.961  21.876  0.00  0.00    +0.000 N 
ATOM      4  C   UNL     1       9.361  15.144  20.523  0.00  0.00    +0.000 C 
ATOM      5  O   UNL     1      10.112  16.077  20.255  0.00  0.00    +0.000 OA
ATOM      6  C   UNL     1       9.577  15.527  22.991  0.00  0.00    +0.000 A 
ATOM      7  C   UNL     1      10.641  16.431  23.118  0.00  0.00    +0.000 A 
ATOM      8  C   UNL     1      11.061  16.732  24.408  0.00  0.00    +0.000 A 
ATOM      9  C   UNL     1      10.420  16.137  25.478  0.00  0.00    +0.000 A 
ATOM     10  N   UNL     1       9.391  15.268  25.391  0.00  0.00    +0.000 NA
ATOM     11  C   UNL     1       8.987  14.973  24.128  0.00  0.00    +0.000 A 
ENDROOT
BRANCH   1  15
ATOM     12  C   UNL     1       5.309  11.747  26.135  0.00  0.00    +0.000 A 
ATOM     13  C   UNL     1       6.119  11.141  25.169  0.00  0.00    +0.000 A 
ATOM     14  C   UNL     1       6.952  11.919  24.358  0.00  0.00    +0.000 A 
ATOM     15  C   UNL     1       7.005  13.313  24.506  0.00  0.00    +0.000 A 
ATOM     16  C   UNL     1       6.166  13.902  25.464  0.00  0.00    +0.000 A 
ATOM     17  F   UNL     1       6.145  15.233  25.637  0.00  0.00    +0.000 F 
ATOM     18  C   UNL     1       5.332  13.136  26.283  0.00  0.00    +0.000 A 
BRANCH  12  20
ATOM     19  O   UNL     1       3.860  11.300  27.956  0.00  0.00    +0.000 OA
ATOM     20  C   UNL     1       4.508  10.873  27.024  0.00  0.00    +0.000 C 
BRANCH  20  21
ATOM     21  O   UNL     1       4.584   9.561  26.709  0.00  0.00    +0.000 OA
ATOM     22  H   UNL     1       4.465   9.351  25.768  0.00  0.00    +0.000 HD
ENDBRANCH  20  21
ENDBRANCH  12  20
ENDBRANCH   1  15
BRANCH   4  23
ATOM     23  C   UNL     1       9.010  14.234  19.406  0.00  0.00    +0.000 A 
ATOM     24  C   UNL     1       7.880  14.540  18.616  0.00  0.00    +0.000 A 
ATOM     25 CL   UNL     1       6.831  15.887  18.918  0.00  0.00    +0.000 Cl
ATOM     26  C   UNL     1       7.482  13.691  17.581  0.00  0.00    +0.000 A 
ATOM     27  C   UNL     1       8.166  12.507  17.347  0.00  0.00    +0.000 A 
ATOM     28  C   UNL     1       9.242  12.163  18.160  0.00  0.00    +0.000 A 
ATOM     29  C   UNL     1       9.682  13.007  19.208  0.00  0.00    +0.000 A 
BRANCH  29  30
ATOM     30  C   UNL     1      10.822  12.466  20.045  0.00  0.00    +0.000 C 
ATOM     31  F   UNL     1      11.911  13.254  20.196  0.00  0.00    +0.000 F 
ATOM     32  F   UNL     1      10.407  12.128  21.300  0.00  0.00    +0.000 F 
ATOM     33  F   UNL     1      11.307  11.305  19.509  0.00  0.00    +0.000 F 
ENDBRANCH  29  30
ENDBRANCH   4  23
TORSDOF 5
ENDMDL
MODEL 8
REMARK VINA RESULT:      -7.0      8.696     10.570
REMARK  Name = 
REMARK  5 active torsions:
REMARK  status: ('A' for Active; 'I' for Inactive)
REMARK    1  A    between atoms: C_2  and  O_3
REMARK    2  A    between atoms: C_2  and  C_4
REMARK    3  A    between atoms: C_7  and  C_8
REMARK    4  A    between atoms: C_11  and  C_13
REMARK    5  A    between atoms: C_19  and  C_20
REMARK                            x       y       z     vdW  Elec       q    Type
REMARK                         _______ _______ _______ _____ _____    ______ ____
ROOT
ATOM      1  C   UNL     1       0.130  11.004  19.528  0.00  0.00    +0.000 A 
ATOM      2  C   UNL     1      -1.216  11.117  19.822  0.00  0.00    +0.000 A 
ATOM      3  N   UNL     1      -1.572  12.458  19.899  0.00  0.00    +0.000 N 
ATOM      4  C   UNL     1      -2.891  12.971  20.040  0.00  0.00    +0.000 C 
ATOM      5  O   UNL     1      -3.028  14.155  20.336  0.00  0.00    +0.000 OA
ATOM      6  C   UNL     1      -0.412  13.213  19.750  0.00  0.00    +0.000 A 
ATOM      7  C   UNL     1      -0.186  14.597  19.761  0.00  0.00    +0.000 A 
ATOM      8  C   UNL     1       1.108  15.026  19.497  0.00  0.00    +0.000 A 
ATOM      9  C   UNL     1       2.089  14.084  19.244  0.00  0.00    +0.000 A 
ATOM     10  N   UNL     1       1.907  12.747  19.233  0.00  0.00    +0.000 NA
ATOM     11  C   UNL     1       0.639  12.333  19.486  0.00  0.00    +0.000 A 
ENDROOT
BRANCH   1  15
ATOM     12  C   UNL     1       2.320   7.352  19.061  0.00  0.00    +0.000 A 
ATOM     13  C   UNL     1       2.094   8.195  17.967  0.00  0.00    +0.000 A 
ATOM     14  C   UNL     1       1.347   9.367  18.123  0.00  0.00    +0.000 A 
ATOM     15  C   UNL     1       0.826   9.729  19.374  0.00  0.00    +0.000 A 
ATOM     16  C   UNL     1       1.044   8.858  20.452  0.00  0.00    +0.000 A 
ATOM     17  F   UNL     1       0.549   9.128  21.670  0.00  0.00    +0.000 F 
ATOM     18  C   UNL     1       1.792   7.685  20.310  0.00  0.00    +0.000 A 
BRANCH  12  20
ATOM     19  O   UNL     1       3.349   5.646  17.778  0.00  0.00    +0.000 OA
ATOM     20  C   UNL     1       3.187   6.166  18.862  0.00  0.00    +0.000 C 
BRANCH  20  21
ATOM     21  O   UNL     1       3.757   5.713  19.999  0.00  0.00    +0.000 OA
ATOM     22  H   UNL     1       3.460   6.146  20.816  0.00  0.00    +0.000 HD
ENDBRANCH  20  21
ENDBRANCH  12  20
ENDBRANCH   1  15
BRANCH   4  23
ATOM     23  C   UNL     1      -4.131  12.209  19.764  0.00  0.00    +0.000 A 
ATOM     24  C   UNL     1      -4.286  11.608  18.495  0.00  0.00    +0.000 A 
ATOM     25 CL   UNL     1      -3.135  11.768  17.208  0.00  0.00    +0.000 Cl
ATOM     26  C   UNL     1      -5.455  10.917  18.171  0.00  0.00    +0.000 A 
ATOM     27  C   UNL     1      -6.504  10.854  19.078  0.00  0.00    +0.000 A 
ATOM     28  C   UNL     1      -6.388  11.496  20.306  0.00  0.00    +0.000 A 
ATOM     29  C   UNL     1      -5.211  12.192  20.675  0.00  0.00    +0.000 A 
BRANCH  29  30
ATOM     30  C   UNL     1      -5.262  12.894  22.016  0.00  0.00    +0.000 C 
ATOM     31  F   UNL     1      -5.266  14.246  22.010  0.00  0.00    +0.000 F 
ATOM     32  F   UNL     1      -6.345  12.503  22.747  0.00  0.00    +0.000 F 
ATOM     33  F   UNL     1      -4.179  12.554  22.780  0.00  0.00    +0.000 F 
ENDBRANCH  29  30
ENDBRANCH   4  23
TORSDOF 5
ENDMDL
MODEL 9
REMARK VINA RESULT:      -7.0      6.898      9.909
REMARK  Name = 
REMARK  5 active torsions:
REMARK  status: ('A' for Active; 'I' for Inactive)
REMARK    1  A    between atoms: C_2  and  O_3
REMARK    2  A    between atoms: C_2  and  C_4
REMARK    3  A    between atoms: C_7  and  C_8
REMARK    4  A    between atoms: C_11  and  C_13
REMARK    5  A    between atoms: C_19  and  C_20
REMARK                            x       y       z     vdW  Elec       q    Type
REMARK                         _______ _______ _______ _____ _____    ______ ____
ROOT
ATOM      1  C   UNL     1       0.859  10.162  19.165  0.00  0.00    +0.000 A 
ATOM      2  C   UNL     1       1.540  11.354  19.328  0.00  0.00    +0.000 A 
ATOM      3  N   UNL     1       0.701  12.423  19.035  0.00  0.00    +0.000 N 
ATOM      4  C   UNL     1       0.996  13.800  19.225  0.00  0.00    +0.000 C 
ATOM      5  O   UNL     1       0.262  14.633  18.700  0.00  0.00    +0.000 OA
ATOM      6  C   UNL     1      -0.507  11.899  18.581  0.00  0.00    +0.000 A 
ATOM      7  C   UNL     1      -1.687  12.514  18.141  0.00  0.00    +0.000 A 
ATOM      8  C   UNL     1      -2.753  11.679  17.829  0.00  0.00    +0.000 A 
ATOM      9  C   UNL     1      -2.597  10.312  17.965  0.00  0.00    +0.000 A 
ATOM     10  N   UNL     1      -1.474   9.689  18.381  0.00  0.00    +0.000 NA
ATOM     11  C   UNL     1      -0.436  10.510  18.689  0.00  0.00    +0.000 A 
ENDROOT
BRANCH   1  15
ATOM     12  C   UNL     1       2.438   6.237  19.834  0.00  0.00    +0.000 A 
ATOM     13  C   UNL     1       1.762   6.918  20.851  0.00  0.00    +0.000 A 
ATOM     14  C   UNL     1       1.282   8.214  20.634  0.00  0.00    +0.000 A 
ATOM     15  C   UNL     1       1.452   8.847  19.394  0.00  0.00    +0.000 A 
ATOM     16  C   UNL     1       2.154   8.156  18.396  0.00  0.00    +0.000 A 
ATOM     17  F   UNL     1       2.378   8.715  17.196  0.00  0.00    +0.000 F 
ATOM     18  C   UNL     1       2.636   6.859  18.599  0.00  0.00    +0.000 A 
BRANCH  12  20
ATOM     19  O   UNL     1       3.563   4.214  19.324  0.00  0.00    +0.000 OA
ATOM     20  C   UNL     1       2.855   4.837  20.087  0.00  0.00    +0.000 C 
BRANCH  20  21
ATOM     21  O   UNL     1       2.355   4.320  21.231  0.00  0.00    +0.000 OA
ATOM     22  H   UNL     1       2.951   4.349  21.997  0.00  0.00    +0.000 HD
ENDBRANCH  20  21
ENDBRANCH  12  20
ENDBRANCH   1  15
BRANCH   4  23
ATOM     23  C   UNL     1       2.078  14.324  20.092  0.00  0.00    +0.000 A 
ATOM     24  C   UNL     1       1.769  14.658  21.428  0.00  0.00    +0.000 A 
ATOM     25 CL   UNL     1       0.174  14.557  22.102  0.00  0.00    +0.000 Cl
ATOM     26  C   UNL     1       2.743  15.197  22.273  0.00  0.00    +0.000 A 
ATOM     27  C   UNL     1       4.018  15.458  21.791  0.00  0.00    +0.000 A 
ATOM     28  C   UNL     1       4.316  15.192  20.459  0.00  0.00    +0.000 A 
ATOM     29  C   UNL     1       3.358  14.631  19.579  0.00  0.00    +0.000 A 
BRANCH  29  30
ATOM     30  C   UNL     1       3.812  14.462  18.144  0.00  0.00    +0.000 C 
ATOM     31  F   UNL     1       3.137  15.147  17.194  0.00  0.00    +0.000 F 
ATOM     32  F   UNL     1       5.130  14.780  17.993  0.00  0.00    +0.000 F 
ATOM     33  F   UNL     1       3.719  13.152  17.760  0.00  0.00    +0.000 F 
ENDBRANCH  29  30
ENDBRANCH   4  23
TORSDOF 5
ENDMDL
