MODEL 1
REMARK VINA RESULT:      -8.8      0.000      0.000
REMARK  Name = 
REMARK  7 active torsions:
REMARK  status: ('A' for Active; 'I' for Inactive)
REMARK    1  A    between atoms: C_1  and  O_2
REMARK    2  A    between atoms: O_2  and  C_3
REMARK    3  A    between atoms: C_6  and  N_7
REMARK    4  A    between atoms: N_11  and  C_12
REMARK    5  A    between atoms: C_16  and  O_17
REMARK    6  A    between atoms: O_17  and  C_18
REMARK    7  A    between atoms: C_23  and  N_24
REMARK                            x       y       z     vdW  Elec       q    Type
REMARK                         _______ _______ _______ _____ _____    ______ ____
ROOT
ATOM      1  N   UNL     1       3.915   7.168  17.849  0.00  0.00    +0.000 N 
ATOM      2  C   UNL     1       4.005   5.772  17.688  0.00  0.00    +0.000 A 
ATOM      3  N   UNL     1       4.878   5.314  16.783  0.00  0.00    +0.000 NA
ATOM      4  C   UNL     1       5.080   3.992  16.738  0.00  0.00    +0.000 A 
ATOM      5  N   UNL     1       5.918   3.406  15.765  0.00  0.00    +0.000 N 
ATOM      6  C   UNL     1       4.468   3.138  17.630  0.00  0.00    +0.000 A 
ATOM      7  C   UNL     1       3.554   3.667  18.514  0.00  0.00    +0.000 A 
ATOM      8  N   UNL     1       3.312   4.981  18.525  0.00  0.00    +0.000 NA
ATOM      9  H   UNL     1       4.759   7.431  18.344  0.00  0.00    +0.000 HD
ATOM     10  H   UNL     1       6.629   2.820  16.186  0.00  0.00    +0.000 HD
ENDROOT
BRANCH   1  14
ATOM     11  C   UNL     1       0.608   9.333  19.357  0.00  0.00    +0.000 A 
ATOM     12  C   UNL     1       1.233   8.359  20.146  0.00  0.00    +0.000 A 
ATOM     13  C   UNL     1       2.326   7.643  19.644  0.00  0.00    +0.000 A 
ATOM     14  C   UNL     1       2.775   7.848  18.336  0.00  0.00    +0.000 A 
ATOM     15  C   UNL     1       2.156   8.842  17.571  0.00  0.00    +0.000 A 
ATOM     16  C   UNL     1       1.075   9.568  18.071  0.00  0.00    +0.000 A 
BRANCH  11  18
ATOM     17  C   UNL     1      -0.279  10.287  21.319  0.00  0.00    +0.000 C 
ATOM     18  O   UNL     1      -0.449   9.976  19.939  0.00  0.00    +0.000 OA
ENDBRANCH  11  18
ENDBRANCH   1  14
BRANCH   5  19
ATOM     19  C   UNL     1       6.219   3.857  14.469  0.00  0.00    +0.000 A 
ATOM     20  C   UNL     1       7.361   4.644  14.268  0.00  0.00    +0.000 A 
ATOM     21  C   UNL     1       7.727   5.056  12.988  0.00  0.00    +0.000 A 
ATOM     22  C   UNL     1       6.962   4.669  11.891  0.00  0.00    +0.000 A 
ATOM     23  C   UNL     1       5.826   3.878  12.067  0.00  0.00    +0.000 A 
ATOM     24  C   UNL     1       5.438   3.502  13.357  0.00  0.00    +0.000 A 
BRANCH  23  25
ATOM     25  O   UNL     1       5.170   3.556  10.912  0.00  0.00    +0.000 OA
BRANCH  25  26
ATOM     26  C   UNL     1       3.760   3.701  10.945  0.00  0.00    +0.000 C 
ATOM     27  F   UNL     1       3.363   4.384   9.845  0.00  0.00    +0.000 F 
ATOM     28  F   UNL     1       3.229   2.454  10.841  0.00  0.00    +0.000 F 
ENDBRANCH  25  26
ENDBRANCH  23  25
ENDBRANCH   5  19
BRANCH   7  29
ATOM     29  N   UNL     1       2.861   2.834  19.372  0.00  0.00    +0.000 N 
ATOM     30  C   UNL     1       1.443   2.572  19.137  0.00  0.00    +0.000 C 
ATOM     31  C   UNL     1       0.573   3.152  20.248  0.00  0.00    +0.000 C 
ATOM     32  C   UNL     1       1.085   2.746  21.628  0.00  0.00    +0.000 C 
ATOM     33  C   UNL     1       2.551   3.134  21.789  0.00  0.00    +0.000 C 
ATOM     34  C   UNL     1       3.411   2.523  20.686  0.00  0.00    +0.000 C 
ENDBRANCH   7  29
TORSDOF 6
ENDMDL
MODEL 2
REMARK VINA RESULT:      -8.4      1.210      1.356
REMARK  Name = 
REMARK  7 active torsions:
REMARK  status: ('A' for Active; 'I' for Inactive)
REMARK    1  A    between atoms: C_1  and  O_2
REMARK    2  A    between atoms: O_2  and  C_3
REMARK    3  A    between atoms: C_6  and  N_7
REMARK    4  A    between atoms: N_11  and  C_12
REMARK    5  A    between atoms: C_16  and  O_17
REMARK    6  A    between atoms: O_17  and  C_18
REMARK    7  A    between atoms: C_23  and  N_24
REMARK                            x       y       z     vdW  Elec       q    Type
REMARK                         _______ _______ _______ _____ _____    ______ ____
ROOT
ATOM      1  N   UNL     1       3.952   7.165  17.863  0.00  0.00    +0.000 N 
ATOM      2  C   UNL     1       4.031   5.767  17.714  0.00  0.00    +0.000 A 
ATOM      3  N   UNL     1       4.930   5.293  16.843  0.00  0.00    +0.000 NA
ATOM      4  C   UNL     1       5.118   3.968  16.814  0.00  0.00    +0.000 A 
ATOM      5  N   UNL     1       5.982   3.367  15.875  0.00  0.00    +0.000 N 
ATOM      6  C   UNL     1       4.465   3.128  17.689  0.00  0.00    +0.000 A 
ATOM      7  C   UNL     1       3.528   3.673  18.538  0.00  0.00    +0.000 A 
ATOM      8  N   UNL     1       3.301   4.990  18.531  0.00  0.00    +0.000 NA
ATOM      9  H   UNL     1       4.781   7.422  18.385  0.00  0.00    +0.000 HD
ATOM     10  H   UNL     1       6.671   2.776  16.323  0.00  0.00    +0.000 HD
ENDROOT
BRANCH   1  14
ATOM     11  C   UNL     1       0.621   9.377  19.243  0.00  0.00    +0.000 A 
ATOM     12  C   UNL     1       1.193   8.386  20.050  0.00  0.00    +0.000 A 
ATOM     13  C   UNL     1       2.294   7.654  19.591  0.00  0.00    +0.000 A 
ATOM     14  C   UNL     1       2.804   7.862  18.305  0.00  0.00    +0.000 A 
ATOM     15  C   UNL     1       2.237   8.872  17.523  0.00  0.00    +0.000 A 
ATOM     16  C   UNL     1       1.147   9.614  17.981  0.00  0.00    +0.000 A 
BRANCH  11  18
ATOM     17  C   UNL     1      -0.956  11.109  18.999  0.00  0.00    +0.000 C 
ATOM     18  O   UNL     1      -0.450  10.033  19.784  0.00  0.00    +0.000 OA
ENDBRANCH  11  18
ENDBRANCH   1  14
BRANCH   5  19
ATOM     19  C   UNL     1       6.333   3.805  14.587  0.00  0.00    +0.000 A 
ATOM     20  C   UNL     1       7.214   4.886  14.450  0.00  0.00    +0.000 A 
ATOM     21  C   UNL     1       7.636   5.309  13.191  0.00  0.00    +0.000 A 
ATOM     22  C   UNL     1       7.193   4.640  12.053  0.00  0.00    +0.000 A 
ATOM     23  C   UNL     1       6.323   3.555  12.166  0.00  0.00    +0.000 A 
ATOM     24  C   UNL     1       5.869   3.161  13.428  0.00  0.00    +0.000 A 
BRANCH  23  25
ATOM     25  O   UNL     1       5.973   2.978  10.977  0.00  0.00    +0.000 OA
BRANCH  25  26
ATOM     26  C   UNL     1       6.518   1.692  10.734  0.00  0.00    +0.000 C 
ATOM     27  F   UNL     1       7.766   1.638  11.257  0.00  0.00    +0.000 F 
ATOM     28  F   UNL     1       5.766   0.802  11.434  0.00  0.00    +0.000 F 
ENDBRANCH  25  26
ENDBRANCH  23  25
ENDBRANCH   5  19
BRANCH   7  29
ATOM     29  N   UNL     1       2.795   2.854  19.376  0.00  0.00    +0.000 N 
ATOM     30  C   UNL     1       1.354   2.720  19.178  0.00  0.00    +0.000 C 
ATOM     31  C   UNL     1       0.571   3.309  20.349  0.00  0.00    +0.000 C 
ATOM     32  C   UNL     1       1.090   2.789  21.687  0.00  0.00    +0.000 C 
ATOM     33  C   UNL     1       2.587   3.048  21.815  0.00  0.00    +0.000 C 
ATOM     34  C   UNL     1       3.358   2.430  20.652  0.00  0.00    +0.000 C 
ENDBRANCH   7  29
TORSDOF 6
ENDMDL
MODEL 3
REMARK VINA RESULT:      -8.2      5.381      8.602
REMARK  Name = 
REMARK  7 active torsions:
REMARK  status: ('A' for Active; 'I' for Inactive)
REMARK    1  A    between atoms: C_1  and  O_2
REMARK    2  A    between atoms: O_2  and  C_3
REMARK    3  A    between atoms: C_6  and  N_7
REMARK    4  A    between atoms: N_11  and  C_12
REMARK    5  A    between atoms: C_16  and  O_17
REMARK    6  A    between atoms: O_17  and  C_18
REMARK    7  A    between atoms: C_23  and  N_24
REMARK                            x       y       z     vdW  Elec       q    Type
REMARK                         _______ _______ _______ _____ _____    ______ ____
ROOT
ATOM      1  N   UNL     1      -1.040  10.385  17.703  0.00  0.00    +0.000 N 
ATOM      2  C   UNL     1      -0.475  10.159  18.973  0.00  0.00    +0.000 A 
ATOM      3  N   UNL     1       0.463   9.209  19.067  0.00  0.00    +0.000 NA
ATOM      4  C   UNL     1       1.112   9.100  20.232  0.00  0.00    +0.000 A 
ATOM      5  N   UNL     1       2.059   8.078  20.456  0.00  0.00    +0.000 N 
ATOM      6  C   UNL     1       0.877   9.971  21.273  0.00  0.00    +0.000 A 
ATOM      7  C   UNL     1      -0.125  10.904  21.126  0.00  0.00    +0.000 A 
ATOM      8  N   UNL     1      -0.810  10.980  19.983  0.00  0.00    +0.000 NA
ATOM      9  H   UNL     1      -0.320  10.865  17.176  0.00  0.00    +0.000 HD
ATOM     10  H   UNL     1       2.948   8.451  20.768  0.00  0.00    +0.000 HD
ENDROOT
BRANCH   1  14
ATOM     11  C   UNL     1      -4.950  11.880  17.095  0.00  0.00    +0.000 A 
ATOM     12  C   UNL     1      -4.238  11.312  16.030  0.00  0.00    +0.000 A 
ATOM     13  C   UNL     1      -2.944  10.820  16.234  0.00  0.00    +0.000 A 
ATOM     14  C   UNL     1      -2.323  10.935  17.482  0.00  0.00    +0.000 A 
ATOM     15  C   UNL     1      -3.057  11.482  18.539  0.00  0.00    +0.000 A 
ATOM     16  C   UNL     1      -4.353  11.963  18.345  0.00  0.00    +0.000 A 
BRANCH  11  18
ATOM     17  C   UNL     1      -7.117  12.356  17.886  0.00  0.00    +0.000 C 
ATOM     18  O   UNL     1      -6.205  12.331  16.792  0.00  0.00    +0.000 OA
ENDBRANCH  11  18
ENDBRANCH   1  14
BRANCH   5  19
ATOM     19  C   UNL     1       2.127   6.795  19.888  0.00  0.00    +0.000 A 
ATOM     20  C   UNL     1       2.906   6.596  18.740  0.00  0.00    +0.000 A 
ATOM     21  C   UNL     1       3.050   5.326  18.186  0.00  0.00    +0.000 A 
ATOM     22  C   UNL     1       2.428   4.234  18.786  0.00  0.00    +0.000 A 
ATOM     23  C   UNL     1       1.655   4.407  19.935  0.00  0.00    +0.000 A 
ATOM     24  C   UNL     1       1.479   5.690  20.464  0.00  0.00    +0.000 A 
BRANCH  23  25
ATOM     25  O   UNL     1       1.109   3.257  20.435  0.00  0.00    +0.000 OA
BRANCH  25  26
ATOM     26  C   UNL     1       1.804   2.669  21.521  0.00  0.00    +0.000 C 
ATOM     27  F   UNL     1       2.480   3.636  22.186  0.00  0.00    +0.000 F 
ATOM     28  F   UNL     1       0.867   2.190  22.381  0.00  0.00    +0.000 F 
ENDBRANCH  25  26
ENDBRANCH  23  25
ENDBRANCH   5  19
BRANCH   7  29
ATOM     29  N   UNL     1      -0.445  11.744  22.177  0.00  0.00    +0.000 N 
ATOM     30  C   UNL     1      -1.328  11.269  23.240  0.00  0.00    +0.000 C 
ATOM     31  C   UNL     1      -2.652  12.027  23.251  0.00  0.00    +0.000 C 
ATOM     32  C   UNL     1      -2.432  13.537  23.220  0.00  0.00    +0.000 C 
ATOM     33  C   UNL     1      -1.563  13.926  22.031  0.00  0.00    +0.000 C 
ATOM     34  C   UNL     1      -0.231  13.181  22.050  0.00  0.00    +0.000 C 
ENDBRANCH   7  29
TORSDOF 6
ENDMDL
MODEL 4
REMARK VINA RESULT:      -8.0      4.388      7.896
REMARK  Name = 
REMARK  7 active torsions:
REMARK  status: ('A' for Active; 'I' for Inactive)
REMARK    1  A    between atoms: C_1  and  O_2
REMARK    2  A    between atoms: O_2  and  C_3
REMARK    3  A    between atoms: C_6  and  N_7
REMARK    4  A    between atoms: N_11  and  C_12
REMARK    5  A    between atoms: C_16  and  O_17
REMARK    6  A    between atoms: O_17  and  C_18
REMARK    7  A    between atoms: C_23  and  N_24
REMARK                            x       y       z     vdW  Elec       q    Type
REMARK                         _______ _______ _______ _____ _____    ______ ____
ROOT
ATOM      1  N   UNL     1      -0.865  10.214  17.706  0.00  0.00    +0.000 N 
ATOM      2  C   UNL     1      -0.336  10.001  18.993  0.00  0.00    +0.000 A 
ATOM      3  N   UNL     1       0.586   9.041  19.126  0.00  0.00    +0.000 NA
ATOM      4  C   UNL     1       1.203   8.942  20.310  0.00  0.00    +0.000 A 
ATOM      5  N   UNL     1       2.131   7.911  20.574  0.00  0.00    +0.000 N 
ATOM      6  C   UNL     1       0.952   9.832  21.331  0.00  0.00    +0.000 A 
ATOM      7  C   UNL     1      -0.033  10.776  21.143  0.00  0.00    +0.000 A 
ATOM      8  N   UNL     1      -0.688  10.842  19.981  0.00  0.00    +0.000 NA
ATOM      9  H   UNL     1      -0.126  10.677  17.190  0.00  0.00    +0.000 HD
ATOM     10  H   UNL     1       3.015   8.278  20.903  0.00  0.00    +0.000 HD
ENDROOT
BRANCH   1  14
ATOM     11  C   UNL     1      -4.739  11.751  16.975  0.00  0.00    +0.000 A 
ATOM     12  C   UNL     1      -4.016  11.138  15.943  0.00  0.00    +0.000 A 
ATOM     13  C   UNL     1      -2.734  10.632  16.187  0.00  0.00    +0.000 A 
ATOM     14  C   UNL     1      -2.135  10.777  17.442  0.00  0.00    +0.000 A 
ATOM     15  C   UNL     1      -2.880  11.369  18.467  0.00  0.00    +0.000 A 
ATOM     16  C   UNL     1      -4.164  11.863  18.233  0.00  0.00    +0.000 A 
BRANCH  11  18
ATOM     17  C   UNL     1      -6.918  12.264  17.705  0.00  0.00    +0.000 C 
ATOM     18  O   UNL     1      -5.980  12.211  16.634  0.00  0.00    +0.000 OA
ENDBRANCH  11  18
ENDBRANCH   1  14
BRANCH   5  19
ATOM     19  C   UNL     1       2.197   6.619  20.028  0.00  0.00    +0.000 A 
ATOM     20  C   UNL     1       1.458   5.587  20.624  0.00  0.00    +0.000 A 
ATOM     21  C   UNL     1       1.448   4.307  20.074  0.00  0.00    +0.000 A 
ATOM     22  C   UNL     1       2.164   4.049  18.908  0.00  0.00    +0.000 A 
ATOM     23  C   UNL     1       2.899   5.063  18.293  0.00  0.00    +0.000 A 
ATOM     24  C   UNL     1       2.941   6.335  18.871  0.00  0.00    +0.000 A 
BRANCH  23  25
ATOM     25  O   UNL     1       3.547   4.685  17.149  0.00  0.00    +0.000 OA
BRANCH  25  26
ATOM     26  C   UNL     1       4.842   5.231  16.969  0.00  0.00    +0.000 C 
ATOM     27  F   UNL     1       5.663   4.265  16.490  0.00  0.00    +0.000 F 
ATOM     28  F   UNL     1       4.745   6.175  15.996  0.00  0.00    +0.000 F 
ENDBRANCH  25  26
ENDBRANCH  23  25
ENDBRANCH   5  19
BRANCH   7  29
ATOM     29  N   UNL     1      -0.370  11.636  22.172  0.00  0.00    +0.000 N 
ATOM     30  C   UNL     1      -1.276  11.185  23.225  0.00  0.00    +0.000 C 
ATOM     31  C   UNL     1      -2.596  11.951  23.195  0.00  0.00    +0.000 C 
ATOM     32  C   UNL     1      -2.366  13.459  23.143  0.00  0.00    +0.000 C 
ATOM     33  C   UNL     1      -1.470  13.822  21.965  0.00  0.00    +0.000 C 
ATOM     34  C   UNL     1      -0.143  13.069  22.024  0.00  0.00    +0.000 C 
ENDBRANCH   7  29
TORSDOF 6
ENDMDL
MODEL 5
REMARK VINA RESULT:      -8.0      1.221      1.502
REMARK  Name = 
REMARK  7 active torsions:
REMARK  status: ('A' for Active; 'I' for Inactive)
REMARK    1  A    between atoms: C_1  and  O_2
REMARK    2  A    between atoms: O_2  and  C_3
REMARK    3  A    between atoms: C_6  and  N_7
REMARK    4  A    between atoms: N_11  and  C_12
REMARK    5  A    between atoms: C_16  and  O_17
REMARK    6  A    between atoms: O_17  and  C_18
REMARK    7  A    between atoms: C_23  and  N_24
REMARK                            x       y       z     vdW  Elec       q    Type
REMARK                         _______ _______ _______ _____ _____    ______ ____
ROOT
ATOM      1  N   UNL     1       3.839   8.051  17.340  0.00  0.00    +0.000 N 
ATOM      2  C   UNL     1       4.077   6.678  17.546  0.00  0.00    +0.000 A 
ATOM      3  N   UNL     1       4.952   6.079  16.730  0.00  0.00    +0.000 NA
ATOM      4  C   UNL     1       5.298   4.818  17.020  0.00  0.00    +0.000 A 
ATOM      5  N   UNL     1       6.149   4.075  16.176  0.00  0.00    +0.000 N 
ATOM      6  C   UNL     1       4.827   4.183  18.148  0.00  0.00    +0.000 A 
ATOM      7  C   UNL     1       3.902   4.841  18.928  0.00  0.00    +0.000 A 
ATOM      8  N   UNL     1       3.516   6.080  18.610  0.00  0.00    +0.000 NA
ATOM      9  H   UNL     1       4.671   8.516  17.684  0.00  0.00    +0.000 HD
ATOM     10  H   UNL     1       6.940   3.694  16.681  0.00  0.00    +0.000 HD
ENDROOT
BRANCH   1  14
ATOM     11  C   UNL     1       0.274  10.118  18.294  0.00  0.00    +0.000 A 
ATOM     12  C   UNL     1       1.516  10.747  18.446  0.00  0.00    +0.000 A 
ATOM     13  C   UNL     1       2.694  10.060  18.132  0.00  0.00    +0.000 A 
ATOM     14  C   UNL     1       2.655   8.726  17.715  0.00  0.00    +0.000 A 
ATOM     15  C   UNL     1       1.405   8.122  17.545  0.00  0.00    +0.000 A 
ATOM     16  C   UNL     1       0.226   8.806  17.844  0.00  0.00    +0.000 A 
BRANCH  11  18
ATOM     17  C   UNL     1      -2.070  10.339  18.215  0.00  0.00    +0.000 C 
ATOM     18  O   UNL     1      -0.815  10.874  18.629  0.00  0.00    +0.000 OA
ENDBRANCH  11  18
ENDBRANCH   1  14
BRANCH   5  19
ATOM     19  C   UNL     1       6.338   4.186  14.788  0.00  0.00    +0.000 A 
ATOM     20  C   UNL     1       7.413   4.942  14.303  0.00  0.00    +0.000 A 
ATOM     21  C   UNL     1       7.670   5.023  12.936  0.00  0.00    +0.000 A 
ATOM     22  C   UNL     1       6.861   4.332  12.038  0.00  0.00    +0.000 A 
ATOM     23  C   UNL     1       5.791   3.565  12.499  0.00  0.00    +0.000 A 
ATOM     24  C   UNL     1       5.510   3.520  13.868  0.00  0.00    +0.000 A 
BRANCH  23  25
ATOM     25  O   UNL     1       5.082   2.926  11.519  0.00  0.00    +0.000 OA
BRANCH  25  26
ATOM     26  C   UNL     1       3.767   3.407  11.299  0.00  0.00    +0.000 C 
ATOM     27  F   UNL     1       3.796   4.329  10.308  0.00  0.00    +0.000 F 
ATOM     28  F   UNL     1       3.033   2.361  10.835  0.00  0.00    +0.000 F 
ENDBRANCH  25  26
ENDBRANCH  23  25
ENDBRANCH   5  19
BRANCH   7  29
ATOM     29  N   UNL     1       3.347   4.208  20.023  0.00  0.00    +0.000 N 
ATOM     30  C   UNL     1       3.477   2.759  20.164  0.00  0.00    +0.000 C 
ATOM     31  C   UNL     1       2.125   2.061  20.054  0.00  0.00    +0.000 C 
ATOM     32  C   UNL     1       1.085   2.708  20.965  0.00  0.00    +0.000 C 
ATOM     33  C   UNL     1       0.980   4.201  20.680  0.00  0.00    +0.000 C 
ATOM     34  C   UNL     1       2.335   4.889  20.822  0.00  0.00    +0.000 C 
ENDBRANCH   7  29
TORSDOF 6
ENDMDL
MODEL 6
REMARK VINA RESULT:      -8.0      5.038      8.310
REMARK  Name = 
REMARK  7 active torsions:
REMARK  status: ('A' for Active; 'I' for Inactive)
REMARK    1  A    between atoms: C_1  and  O_2
REMARK    2  A    between atoms: O_2  and  C_3
REMARK    3  A    between atoms: C_6  and  N_7
REMARK    4  A    between atoms: N_11  and  C_12
REMARK    5  A    between atoms: C_16  and  O_17
REMARK    6  A    between atoms: O_17  and  C_18
REMARK    7  A    between atoms: C_23  and  N_24
REMARK                            x       y       z     vdW  Elec       q    Type
REMARK                         _______ _______ _______ _____ _____    ______ ____
ROOT
ATOM      1  N   UNL     1      -1.006  10.225  17.611  0.00  0.00    +0.000 N 
ATOM      2  C   UNL     1      -0.408  10.016  18.869  0.00  0.00    +0.000 A 
ATOM      3  N   UNL     1       0.575   9.110  18.937  0.00  0.00    +0.000 NA
ATOM      4  C   UNL     1       1.250   9.022  20.090  0.00  0.00    +0.000 A 
ATOM      5  N   UNL     1       2.248   8.044  20.287  0.00  0.00    +0.000 N 
ATOM      6  C   UNL     1       0.993   9.872  21.142  0.00  0.00    +0.000 A 
ATOM      7  C   UNL     1      -0.054  10.759  21.022  0.00  0.00    +0.000 A 
ATOM      8  N   UNL     1      -0.763  10.812  19.891  0.00  0.00    +0.000 NA
ATOM      9  H   UNL     1      -0.320  10.743  17.076  0.00  0.00    +0.000 HD
ATOM     10  H   UNL     1       3.123   8.455  20.586  0.00  0.00    +0.000 HD
ENDROOT
BRANCH   1  14
ATOM     11  C   UNL     1      -4.863  11.844  16.978  0.00  0.00    +0.000 A 
ATOM     12  C   UNL     1      -4.276  11.895  18.248  0.00  0.00    +0.000 A 
ATOM     13  C   UNL     1      -3.000  11.357  18.456  0.00  0.00    +0.000 A 
ATOM     14  C   UNL     1      -2.318  10.716  17.418  0.00  0.00    +0.000 A 
ATOM     15  C   UNL     1      -2.908  10.695  16.150  0.00  0.00    +0.000 A 
ATOM     16  C   UNL     1      -4.174  11.242  15.934  0.00  0.00    +0.000 A 
BRANCH  11  18
ATOM     17  C   UNL     1      -7.015  12.027  17.917  0.00  0.00    +0.000 C 
ATOM     18  O   UNL     1      -6.109  12.396  16.880  0.00  0.00    +0.000 OA
ENDBRANCH  11  18
ENDBRANCH   1  14
BRANCH   5  19
ATOM     19  C   UNL     1       2.365   6.770  19.707  0.00  0.00    +0.000 A 
ATOM     20  C   UNL     1       2.560   6.665  18.323  0.00  0.00    +0.000 A 
ATOM     21  C   UNL     1       2.745   5.422  17.720  0.00  0.00    +0.000 A 
ATOM     22  C   UNL     1       2.755   4.270  18.500  0.00  0.00    +0.000 A 
ATOM     23  C   UNL     1       2.573   4.351  19.881  0.00  0.00    +0.000 A 
ATOM     24  C   UNL     1       2.345   5.595  20.477  0.00  0.00    +0.000 A 
BRANCH  23  25
ATOM     25  O   UNL     1       2.617   3.151  20.535  0.00  0.00    +0.000 OA
BRANCH  25  26
ATOM     26  C   UNL     1       1.360   2.589  20.872  0.00  0.00    +0.000 C 
ATOM     27  F   UNL     1       1.068   2.904  22.157  0.00  0.00    +0.000 F 
ATOM     28  F   UNL     1       0.427   3.205  20.100  0.00  0.00    +0.000 F 
ENDBRANCH  25  26
ENDBRANCH  23  25
ENDBRANCH   5  19
BRANCH   7  29
ATOM     29  N   UNL     1      -0.394  11.574  22.085  0.00  0.00    +0.000 N 
ATOM     30  C   UNL     1      -1.265  11.061  23.140  0.00  0.00    +0.000 C 
ATOM     31  C   UNL     1      -2.607  11.787  23.163  0.00  0.00    +0.000 C 
ATOM     32  C   UNL     1      -2.423  13.303  23.157  0.00  0.00    +0.000 C 
ATOM     33  C   UNL     1      -1.563  13.731  21.974  0.00  0.00    +0.000 C 
ATOM     34  C   UNL     1      -0.214  13.017  21.982  0.00  0.00    +0.000 C 
ENDBRANCH   7  29
TORSDOF 6
ENDMDL
MODEL 7
REMARK VINA RESULT:      -7.9      4.364      7.209
REMARK  Name = 
REMARK  7 active torsions:
REMARK  status: ('A' for Active; 'I' for Inactive)
REMARK    1  A    between atoms: C_1  and  O_2
REMARK    2  A    between atoms: O_2  and  C_3
REMARK    3  A    between atoms: C_6  and  N_7
REMARK    4  A    between atoms: N_11  and  C_12
REMARK    5  A    between atoms: C_16  and  O_17
REMARK    6  A    between atoms: O_17  and  C_18
REMARK    7  A    between atoms: C_23  and  N_24
REMARK                            x       y       z     vdW  Elec       q    Type
REMARK                         _______ _______ _______ _____ _____    ______ ____
ROOT
ATOM      1  N   UNL     1      -0.701   9.805  16.961  0.00  0.00    +0.000 N 
ATOM      2  C   UNL     1       0.057   9.504  18.109  0.00  0.00    +0.000 A 
ATOM      3  N   UNL     1       1.036   8.602  17.978  0.00  0.00    +0.000 NA
ATOM      4  C   UNL     1       1.857   8.430  19.022  0.00  0.00    +0.000 A 
ATOM      5  N   UNL     1       2.868   7.445  19.010  0.00  0.00    +0.000 N 
ATOM      6  C   UNL     1       1.745   9.196  20.161  0.00  0.00    +0.000 A 
ATOM      7  C   UNL     1       0.695  10.083  20.248  0.00  0.00    +0.000 A 
ATOM      8  N   UNL     1      -0.157  10.218  19.228  0.00  0.00    +0.000 NA
ATOM      9  H   UNL     1      -0.090  10.366  16.381  0.00  0.00    +0.000 HD
ATOM     10  H   UNL     1       3.777   7.838  19.222  0.00  0.00    +0.000 HD
ENDROOT
BRANCH   1  14
ATOM     11  C   UNL     1      -4.601  11.446  16.972  0.00  0.00    +0.000 A 
ATOM     12  C   UNL     1      -3.862  11.375  18.160  0.00  0.00    +0.000 A 
ATOM     13  C   UNL     1      -2.573  10.830  18.154  0.00  0.00    +0.000 A 
ATOM     14  C   UNL     1      -2.025  10.301  16.981  0.00  0.00    +0.000 A 
ATOM     15  C   UNL     1      -2.767  10.403  15.800  0.00  0.00    +0.000 A 
ATOM     16  C   UNL     1      -4.047  10.958  15.797  0.00  0.00    +0.000 A 
BRANCH  11  18
ATOM     17  C   UNL     1      -6.669  11.421  18.097  0.00  0.00    +0.000 C 
ATOM     18  O   UNL     1      -5.848  11.995  17.085  0.00  0.00    +0.000 OA
ENDBRANCH  11  18
ENDBRANCH   1  14
BRANCH   5  19
ATOM     19  C   UNL     1       2.902   6.220  18.324  0.00  0.00    +0.000 A 
ATOM     20  C   UNL     1       4.020   5.909  17.538  0.00  0.00    +0.000 A 
ATOM     21  C   UNL     1       4.119   4.677  16.894  0.00  0.00    +0.000 A 
ATOM     22  C   UNL     1       3.107   3.734  17.045  0.00  0.00    +0.000 A 
ATOM     23  C   UNL     1       1.989   4.019  17.830  0.00  0.00    +0.000 A 
ATOM     24  C   UNL     1       1.873   5.271  18.440  0.00  0.00    +0.000 A 
BRANCH  23  25
ATOM     25  O   UNL     1       1.073   3.006  17.909  0.00  0.00    +0.000 OA
BRANCH  25  26
ATOM     26  C   UNL     1       1.019   2.322  19.149  0.00  0.00    +0.000 C 
ATOM     27  F   UNL     1       2.282   2.061  19.562  0.00  0.00    +0.000 F 
ATOM     28  F   UNL     1       0.483   3.181  20.055  0.00  0.00    +0.000 F 
ENDBRANCH  25  26
ENDBRANCH  23  25
ENDBRANCH   5  19
BRANCH   7  29
ATOM     29  N   UNL     1       0.502  10.813  21.406  0.00  0.00    +0.000 N 
ATOM     30  C   UNL     1       0.188  10.120  22.653  0.00  0.00    +0.000 C 
ATOM     31  C   UNL     1      -1.222  10.448  23.138  0.00  0.00    +0.000 C 
ATOM     32  C   UNL     1      -1.472  11.954  23.154  0.00  0.00    +0.000 C 
ATOM     33  C   UNL     1      -1.185  12.557  21.784  0.00  0.00    +0.000 C 
ATOM     34  C   UNL     1       0.237  12.245  21.327  0.00  0.00    +0.000 C 
ENDBRANCH   7  29
TORSDOF 6
ENDMDL
MODEL 8
REMARK VINA RESULT:      -7.9      4.389      7.838
REMARK  Name = 
REMARK  7 active torsions:
REMARK  status: ('A' for Active; 'I' for Inactive)
REMARK    1  A    between atoms: C_1  and  O_2
REMARK    2  A    between atoms: O_2  and  C_3
REMARK    3  A    between atoms: C_6  and  N_7
REMARK    4  A    between atoms: N_11  and  C_12
REMARK    5  A    between atoms: C_16  and  O_17
REMARK    6  A    between atoms: O_17  and  C_18
REMARK    7  A    between atoms: C_23  and  N_24
REMARK                            x       y       z     vdW  Elec       q    Type
REMARK                         _______ _______ _______ _____ _____    ______ ____
ROOT
ATOM      1  N   UNL     1      -0.901  10.008  17.637  0.00  0.00    +0.000 N 
ATOM      2  C   UNL     1      -0.338   9.843  18.917  0.00  0.00    +0.000 A 
ATOM      3  N   UNL     1       0.600   8.899  19.056  0.00  0.00    +0.000 NA
ATOM      4  C   UNL     1       1.248   8.845  20.226  0.00  0.00    +0.000 A 
ATOM      5  N   UNL     1       2.195   7.835  20.499  0.00  0.00    +0.000 N 
ATOM      6  C   UNL     1       1.010   9.764  21.225  0.00  0.00    +0.000 A 
ATOM      7  C   UNL     1       0.008  10.688  21.033  0.00  0.00    +0.000 A 
ATOM      8  N   UNL     1      -0.676  10.710  19.886  0.00  0.00    +0.000 NA
ATOM      9  H   UNL     1      -0.182  10.464  17.089  0.00  0.00    +0.000 HD
ATOM     10  H   UNL     1       3.082   8.222  20.794  0.00  0.00    +0.000 HD
ENDROOT
BRANCH   1  14
ATOM     11  C   UNL     1      -4.667  11.772  16.855  0.00  0.00    +0.000 A 
ATOM     12  C   UNL     1      -4.178  11.703  18.166  0.00  0.00    +0.000 A 
ATOM     13  C   UNL     1      -2.933  11.117  18.422  0.00  0.00    +0.000 A 
ATOM     14  C   UNL     1      -2.185  10.547  17.388  0.00  0.00    +0.000 A 
ATOM     15  C   UNL     1      -2.676  10.646  16.082  0.00  0.00    +0.000 A 
ATOM     16  C   UNL     1      -3.911  11.240  15.819  0.00  0.00    +0.000 A 
BRANCH  11  18
ATOM     17  C   UNL     1      -6.682  12.405  17.897  0.00  0.00    +0.000 C 
ATOM     18  O   UNL     1      -5.892  12.362  16.712  0.00  0.00    +0.000 OA
ENDBRANCH  11  18
ENDBRANCH   1  14
BRANCH   5  19
ATOM     19  C   UNL     1       2.264   6.527  19.992  0.00  0.00    +0.000 A 
ATOM     20  C   UNL     1       1.529   5.511  20.619  0.00  0.00    +0.000 A 
ATOM     21  C   UNL     1       1.522   4.215  20.107  0.00  0.00    +0.000 A 
ATOM     22  C   UNL     1       2.239   3.924  18.950  0.00  0.00    +0.000 A 
ATOM     23  C   UNL     1       2.971   4.921  18.305  0.00  0.00    +0.000 A 
ATOM     24  C   UNL     1       3.010   6.211  18.844  0.00  0.00    +0.000 A 
BRANCH  23  25
ATOM     25  O   UNL     1       3.621   4.511  17.173  0.00  0.00    +0.000 OA
BRANCH  25  26
ATOM     26  C   UNL     1       5.037   4.522  17.240  0.00  0.00    +0.000 C 
ATOM     27  F   UNL     1       5.425   3.986  18.422  0.00  0.00    +0.000 F 
ATOM     28  F   UNL     1       5.488   3.686  16.268  0.00  0.00    +0.000 F 
ENDBRANCH  25  26
ENDBRANCH  23  25
ENDBRANCH   5  19
BRANCH   7  29
ATOM     29  N   UNL     1      -0.314  11.576  22.042  0.00  0.00    +0.000 N 
ATOM     30  C   UNL     1      -1.192  11.148  23.129  0.00  0.00    +0.000 C 
ATOM     31  C   UNL     1      -2.520  11.899  23.107  0.00  0.00    +0.000 C 
ATOM     32  C   UNL     1      -2.309  13.407  23.003  0.00  0.00    +0.000 C 
ATOM     33  C   UNL     1      -1.443  13.743  21.794  0.00  0.00    +0.000 C 
ATOM     34  C   UNL     1      -0.108  13.007  21.846  0.00  0.00    +0.000 C 
ENDBRANCH   7  29
TORSDOF 6
ENDMDL
MODEL 9
REMARK VINA RESULT:      -7.7      1.369      1.716
REMARK  Name = 
REMARK  7 active torsions:
REMARK  status: ('A' for Active; 'I' for Inactive)
REMARK    1  A    between atoms: C_1  and  O_2
REMARK    2  A    between atoms: O_2  and  C_3
REMARK    3  A    between atoms: C_6  and  N_7
REMARK    4  A    between atoms: N_11  and  C_12
REMARK    5  A    between atoms: C_16  and  O_17
REMARK    6  A    between atoms: O_17  and  C_18
REMARK    7  A    between atoms: C_23  and  N_24
REMARK                            x       y       z     vdW  Elec       q    Type
REMARK                         _______ _______ _______ _____ _____    ______ ____
ROOT
ATOM      1  N   UNL     1       3.497   8.330  17.567  0.00  0.00    +0.000 N 
ATOM      2  C   UNL     1       3.456   6.926  17.661  0.00  0.00    +0.000 A 
ATOM      3  N   UNL     1       4.383   6.238  16.985  0.00  0.00    +0.000 NA
ATOM      4  C   UNL     1       4.445   4.918  17.196  0.00  0.00    +0.000 A 
ATOM      5  N   UNL     1       5.332   4.096  16.470  0.00  0.00    +0.000 N 
ATOM      6  C   UNL     1       3.635   4.298  18.122  0.00  0.00    +0.000 A 
ATOM      7  C   UNL     1       2.678   5.055  18.760  0.00  0.00    +0.000 A 
ATOM      8  N   UNL     1       2.579   6.363  18.511  0.00  0.00    +0.000 NA
ATOM      9  H   UNL     1       4.294   8.608  18.127  0.00  0.00    +0.000 HD
ATOM     10  H   UNL     1       5.916   3.540  17.084  0.00  0.00    +0.000 HD
ENDROOT
BRANCH   1  14
ATOM     11  C   UNL     1       0.171  10.836  18.311  0.00  0.00    +0.000 A 
ATOM     12  C   UNL     1      -0.021   9.521  17.869  0.00  0.00    +0.000 A 
ATOM     13  C   UNL     1       1.081   8.694  17.622  0.00  0.00    +0.000 A 
ATOM     14  C   UNL     1       2.385   9.181  17.759  0.00  0.00    +0.000 A 
ATOM     15  C   UNL     1       2.558  10.489  18.224  0.00  0.00    +0.000 A 
ATOM     16  C   UNL     1       1.462  11.313  18.485  0.00  0.00    +0.000 A 
BRANCH  11  18
ATOM     17  C   UNL     1      -0.834  12.642  19.439  0.00  0.00    +0.000 C 
ATOM     18  O   UNL     1      -0.969  11.560  18.523  0.00  0.00    +0.000 OA
ENDBRANCH  11  18
ENDBRANCH   1  14
BRANCH   5  19
ATOM     19  C   UNL     1       5.844   4.273  15.174  0.00  0.00    +0.000 A 
ATOM     20  C   UNL     1       7.005   5.038  14.997  0.00  0.00    +0.000 A 
ATOM     21  C   UNL     1       7.579   5.184  13.736  0.00  0.00    +0.000 A 
ATOM     22  C   UNL     1       7.005   4.549  12.637  0.00  0.00    +0.000 A 
ATOM     23  C   UNL     1       5.855   3.775  12.792  0.00  0.00    +0.000 A 
ATOM     24  C   UNL     1       5.258   3.666  14.051  0.00  0.00    +0.000 A 
BRANCH  23  25
ATOM     25  O   UNL     1       5.398   3.195  11.641  0.00  0.00    +0.000 OA
BRANCH  25  26
ATOM     26  C   UNL     1       4.006   3.320  11.400  0.00  0.00    +0.000 C 
ATOM     27  F   UNL     1       3.788   4.421  10.643  0.00  0.00    +0.000 F 
ATOM     28  F   UNL     1       3.635   2.251  10.647  0.00  0.00    +0.000 F 
ENDBRANCH  25  26
ENDBRANCH  23  25
ENDBRANCH   5  19
BRANCH   7  29
ATOM     29  N   UNL     1       1.794   4.454  19.637  0.00  0.00    +0.000 N 
ATOM     30  C   UNL     1       1.852   4.781  21.060  0.00  0.00    +0.000 C 
ATOM     31  C   UNL     1       2.284   3.578  21.894  0.00  0.00    +0.000 C 
ATOM     32  C   UNL     1       1.467   2.336  21.549  0.00  0.00    +0.000 C 
ATOM     33  C   UNL     1       1.538   2.048  20.054  0.00  0.00    +0.000 C 
ATOM     34  C   UNL     1       1.077   3.250  19.235  0.00  0.00    +0.000 C 
ENDBRANCH   7  29
TORSDOF 6
ENDMDL
