MODEL 1
REMARK VINA RESULT:      -7.3      0.000      0.000
REMARK  Name = 
REMARK  5 active torsions:
REMARK  status: ('A' for Active; 'I' for Inactive)
REMARK    1  A    between atoms: C_1  and  C_2
REMARK    2  A    between atoms: C_2  and  C_3
REMARK    3  A    between atoms: C_2  and  C_4
REMARK    4  A    between atoms: C_4  and  N_6
REMARK    5  A    between atoms: N_16  and  C_17
REMARK                            x       y       z     vdW  Elec       q    Type
REMARK                         _______ _______ _______ _____ _____    ______ ____
ROOT
ATOM      1  N   UNL     1       4.998   6.699  17.776  0.00  0.00    +0.000 NA
ATOM      2  C   UNL     1       4.280   5.654  18.049  0.00  0.00    +0.000 A 
ATOM      3  S   UNL     1       4.526   4.022  17.358  0.00  0.00    +0.000 S 
ATOM      4  C   UNL     1       3.062   3.428  18.160  0.00  0.00    +0.000 A 
ATOM      5  C   UNL     1       2.523   2.155  18.022  0.00  0.00    +0.000 A 
ATOM      6  C   UNL     1       1.365   1.844  18.726  0.00  0.00    +0.000 A 
ATOM      7  C   UNL     1       0.774   2.810  19.547  0.00  0.00    +0.000 A 
ATOM      8  C   UNL     1       1.333   4.089  19.661  0.00  0.00    +0.000 A 
ATOM      9  F   UNL     1       0.712   4.962  20.464  0.00  0.00    +0.000 F 
ATOM     10  C   UNL     1       2.490   4.429  18.967  0.00  0.00    +0.000 A 
ATOM     11  N   UNL     1       3.205   5.636  18.939  0.00  0.00    +0.000 N 
ATOM     12  C   UNL     1       2.746   6.844  19.600  0.00  0.00    +0.000 C 
ENDROOT
BRANCH   1  13
ATOM     13  C   UNL     1       5.941   6.647  16.775  0.00  0.00    +0.000 C 
ATOM     14  O   UNL     1       5.685   6.601  15.575  0.00  0.00    +0.000 OA
BRANCH  13  16
ATOM     15  C   UNL     1       7.665   8.266  17.596  0.00  0.00    +0.000 C 
ATOM     16  C   UNL     1       7.381   6.807  17.253  0.00  0.00    +0.000 C 
ATOM     17  C   UNL     1       7.587   5.915  18.476  0.00  0.00    +0.000 C 
ENDBRANCH  13  16
ENDBRANCH   1  13
TORSDOF 2
ENDMDL
MODEL 2
REMARK VINA RESULT:      -7.1      2.382      3.398
REMARK  Name = 
REMARK  5 active torsions:
REMARK  status: ('A' for Active; 'I' for Inactive)
REMARK    1  A    between atoms: C_1  and  C_2
REMARK    2  A    between atoms: C_2  and  C_3
REMARK    3  A    between atoms: C_2  and  C_4
REMARK    4  A    between atoms: C_4  and  N_6
REMARK    5  A    between atoms: N_16  and  C_17
REMARK                            x       y       z     vdW  Elec       q    Type
REMARK                         _______ _______ _______ _____ _____    ______ ____
ROOT
ATOM      1  N   UNL     1       5.493   3.593  16.356  0.00  0.00    +0.000 NA
ATOM      2  C   UNL     1       4.625   4.102  17.175  0.00  0.00    +0.000 A 
ATOM      3  S   UNL     1       4.479   5.839  17.577  0.00  0.00    +0.000 S 
ATOM      4  C   UNL     1       3.238   5.486  18.791  0.00  0.00    +0.000 A 
ATOM      5  C   UNL     1       2.647   6.414  19.639  0.00  0.00    +0.000 A 
ATOM      6  C   UNL     1       1.682   5.974  20.537  0.00  0.00    +0.000 A 
ATOM      7  C   UNL     1       1.333   4.619  20.569  0.00  0.00    +0.000 A 
ATOM      8  C   UNL     1       1.951   3.703  19.710  0.00  0.00    +0.000 A 
ATOM      9  F   UNL     1       1.568   2.422  19.798  0.00  0.00    +0.000 F 
ATOM     10  C   UNL     1       2.922   4.115  18.802  0.00  0.00    +0.000 A 
ATOM     11  N   UNL     1       3.656   3.372  17.865  0.00  0.00    +0.000 N 
ATOM     12  C   UNL     1       3.585   1.925  17.770  0.00  0.00    +0.000 C 
ENDROOT
BRANCH   1  13
ATOM     13  C   UNL     1       6.499   4.377  15.841  0.00  0.00    +0.000 C 
ATOM     14  O   UNL     1       7.565   4.607  16.404  0.00  0.00    +0.000 OA
BRANCH  13  16
ATOM     15  C   UNL     1       7.592   5.226  13.754  0.00  0.00    +0.000 C 
ATOM     16  C   UNL     1       6.267   4.842  14.406  0.00  0.00    +0.000 C 
ATOM     17  C   UNL     1       5.595   3.708  13.633  0.00  0.00    +0.000 C 
ENDBRANCH  13  16
ENDBRANCH   1  13
TORSDOF 2
ENDMDL
MODEL 3
REMARK VINA RESULT:      -6.8      0.769      1.119
REMARK  Name = 
REMARK  5 active torsions:
REMARK  status: ('A' for Active; 'I' for Inactive)
REMARK    1  A    between atoms: C_1  and  C_2
REMARK    2  A    between atoms: C_2  and  C_3
REMARK    3  A    between atoms: C_2  and  C_4
REMARK    4  A    between atoms: C_4  and  N_6
REMARK    5  A    between atoms: N_16  and  C_17
REMARK                            x       y       z     vdW  Elec       q    Type
REMARK                         _______ _______ _______ _____ _____    ______ ____
ROOT
ATOM      1  N   UNL     1       4.526   6.674  17.460  0.00  0.00    +0.000 NA
ATOM      2  C   UNL     1       3.886   5.646  17.924  0.00  0.00    +0.000 A 
ATOM      3  S   UNL     1       4.140   3.952  17.410  0.00  0.00    +0.000 S 
ATOM      4  C   UNL     1       2.787   3.410  18.418  0.00  0.00    +0.000 A 
ATOM      5  C   UNL     1       2.297   2.113  18.484  0.00  0.00    +0.000 A 
ATOM      6  C   UNL     1       1.227   1.850  19.333  0.00  0.00    +0.000 A 
ATOM      7  C   UNL     1       0.672   2.888  20.089  0.00  0.00    +0.000 A 
ATOM      8  C   UNL     1       1.180   4.189  19.995  0.00  0.00    +0.000 A 
ATOM      9  F   UNL     1       0.598   5.132  20.748  0.00  0.00    +0.000 F 
ATOM     10  C   UNL     1       2.249   4.481  19.154  0.00  0.00    +0.000 A 
ATOM     11  N   UNL     1       2.902   5.700  18.913  0.00  0.00    +0.000 N 
ATOM     12  C   UNL     1       2.453   6.963  19.469  0.00  0.00    +0.000 C 
ENDROOT
BRANCH   1  13
ATOM     13  C   UNL     1       5.371   6.533  16.383  0.00  0.00    +0.000 C 
ATOM     14  O   UNL     1       5.129   6.932  15.247  0.00  0.00    +0.000 OA
BRANCH  13  16
ATOM     15  C   UNL     1       7.344   5.263  15.513  0.00  0.00    +0.000 C 
ATOM     16  C   UNL     1       6.744   5.964  16.727  0.00  0.00    +0.000 C 
ATOM     17  C   UNL     1       7.643   7.112  17.186  0.00  0.00    +0.000 C 
ENDBRANCH  13  16
ENDBRANCH   1  13
TORSDOF 2
ENDMDL
MODEL 4
REMARK VINA RESULT:      -6.7      1.705      2.542
REMARK  Name = 
REMARK  5 active torsions:
REMARK  status: ('A' for Active; 'I' for Inactive)
REMARK    1  A    between atoms: C_1  and  C_2
REMARK    2  A    between atoms: C_2  and  C_3
REMARK    3  A    between atoms: C_2  and  C_4
REMARK    4  A    between atoms: C_4  and  N_6
REMARK    5  A    between atoms: N_16  and  C_17
REMARK                            x       y       z     vdW  Elec       q    Type
REMARK                         _______ _______ _______ _____ _____    ______ ____
ROOT
ATOM      1  N   UNL     1       5.132   4.610  16.266  0.00  0.00    +0.000 NA
ATOM      2  C   UNL     1       4.235   4.695  17.198  0.00  0.00    +0.000 A 
ATOM      3  S   UNL     1       3.689   6.212  17.974  0.00  0.00    +0.000 S 
ATOM      4  C   UNL     1       2.681   5.304  19.113  0.00  0.00    +0.000 A 
ATOM      5  C   UNL     1       1.947   5.851  20.158  0.00  0.00    +0.000 A 
ATOM      6  C   UNL     1       1.201   4.998  20.963  0.00  0.00    +0.000 A 
ATOM      7  C   UNL     1       1.208   3.623  20.708  0.00  0.00    +0.000 A 
ATOM      8  C   UNL     1       1.965   3.097  19.654  0.00  0.00    +0.000 A 
ATOM      9  F   UNL     1       1.926   1.770  19.471  0.00  0.00    +0.000 F 
ATOM     10  C   UNL     1       2.723   3.926  18.833  0.00  0.00    +0.000 A 
ATOM     11  N   UNL     1       3.541   3.610  17.737  0.00  0.00    +0.000 N 
ATOM     12  C   UNL     1       3.830   2.247  17.332  0.00  0.00    +0.000 C 
ENDROOT
BRANCH   1  13
ATOM     13  C   UNL     1       5.862   5.720  15.908  0.00  0.00    +0.000 C 
ATOM     14  O   UNL     1       5.439   6.644  15.220  0.00  0.00    +0.000 OA
BRANCH  13  16
ATOM     15  C   UNL     1       7.322   7.062  17.436  0.00  0.00    +0.000 C 
ATOM     16  C   UNL     1       7.236   5.813  16.566  0.00  0.00    +0.000 C 
ATOM     17  C   UNL     1       7.457   4.555  17.405  0.00  0.00    +0.000 C 
ENDBRANCH  13  16
ENDBRANCH   1  13
TORSDOF 2
ENDMDL
MODEL 5
REMARK VINA RESULT:      -6.6      3.231      5.859
REMARK  Name = 
REMARK  5 active torsions:
REMARK  status: ('A' for Active; 'I' for Inactive)
REMARK    1  A    between atoms: C_1  and  C_2
REMARK    2  A    between atoms: C_2  and  C_3
REMARK    3  A    between atoms: C_2  and  C_4
REMARK    4  A    between atoms: C_4  and  N_6
REMARK    5  A    between atoms: N_16  and  C_17
REMARK                            x       y       z     vdW  Elec       q    Type
REMARK                         _______ _______ _______ _____ _____    ______ ____
ROOT
ATOM      1  N   UNL     1       3.632   3.779  19.562  0.00  0.00    +0.000 NA
ATOM      2  C   UNL     1       4.197   4.025  18.421  0.00  0.00    +0.000 A 
ATOM      3  S   UNL     1       3.616   3.441  16.833  0.00  0.00    +0.000 S 
ATOM      4  C   UNL     1       5.044   4.114  16.028  0.00  0.00    +0.000 A 
ATOM      5  C   UNL     1       5.351   3.980  14.680  0.00  0.00    +0.000 A 
ATOM      6  C   UNL     1       6.514   4.575  14.202  0.00  0.00    +0.000 A 
ATOM      7  C   UNL     1       7.340   5.284  15.081  0.00  0.00    +0.000 A 
ATOM      8  C   UNL     1       7.011   5.395  16.437  0.00  0.00    +0.000 A 
ATOM      9  F   UNL     1       7.851   6.087  17.218  0.00  0.00    +0.000 F 
ATOM     10  C   UNL     1       5.855   4.809  16.943  0.00  0.00    +0.000 A 
ATOM     11  N   UNL     1       5.346   4.799  18.251  0.00  0.00    +0.000 N 
ATOM     12  C   UNL     1       6.064   5.351  19.385  0.00  0.00    +0.000 C 
ENDROOT
BRANCH   1  13
ATOM     13  C   UNL     1       2.589   2.884  19.638  0.00  0.00    +0.000 C 
ATOM     14  O   UNL     1       2.628   1.728  19.227  0.00  0.00    +0.000 OA
BRANCH  13  16
ATOM     15  C   UNL     1       1.323   2.701  21.790  0.00  0.00    +0.000 C 
ATOM     16  C   UNL     1       1.383   3.384  20.428  0.00  0.00    +0.000 C 
ATOM     17  C   UNL     1       1.503   4.899  20.589  0.00  0.00    +0.000 C 
ENDBRANCH  13  16
ENDBRANCH   1  13
TORSDOF 2
ENDMDL
MODEL 6
REMARK VINA RESULT:      -6.4      2.441      3.655
REMARK  Name = 
REMARK  5 active torsions:
REMARK  status: ('A' for Active; 'I' for Inactive)
REMARK    1  A    between atoms: C_1  and  C_2
REMARK    2  A    between atoms: C_2  and  C_3
REMARK    3  A    between atoms: C_2  and  C_4
REMARK    4  A    between atoms: C_4  and  N_6
REMARK    5  A    between atoms: N_16  and  C_17
REMARK                            x       y       z     vdW  Elec       q    Type
REMARK                         _______ _______ _______ _____ _____    ______ ____
ROOT
ATOM      1  N   UNL     1       6.072   4.383  16.752  0.00  0.00    +0.000 NA
ATOM      2  C   UNL     1       5.112   5.045  17.319  0.00  0.00    +0.000 A 
ATOM      3  S   UNL     1       4.507   6.644  16.792  0.00  0.00    +0.000 S 
ATOM      4  C   UNL     1       3.427   6.732  18.194  0.00  0.00    +0.000 A 
ATOM      5  C   UNL     1       2.619   7.812  18.527  0.00  0.00    +0.000 A 
ATOM      6  C   UNL     1       1.823   7.721  19.663  0.00  0.00    +0.000 A 
ATOM      7  C   UNL     1       1.855   6.557  20.438  0.00  0.00    +0.000 A 
ATOM      8  C   UNL     1       2.685   5.487  20.085  0.00  0.00    +0.000 A 
ATOM      9  F   UNL     1       2.665   4.405  20.876  0.00  0.00    +0.000 F 
ATOM     10  C   UNL     1       3.494   5.551  18.954  0.00  0.00    +0.000 A 
ATOM     11  N   UNL     1       4.388   4.605  18.428  0.00  0.00    +0.000 N 
ATOM     12  C   UNL     1       4.710   3.360  19.100  0.00  0.00    +0.000 C 
ENDROOT
BRANCH   1  13
ATOM     13  C   UNL     1       6.821   4.969  15.756  0.00  0.00    +0.000 C 
ATOM     14  O   UNL     1       7.588   5.912  15.922  0.00  0.00    +0.000 OA
BRANCH  13  16
ATOM     15  C   UNL     1       5.305   4.144  13.942  0.00  0.00    +0.000 C 
ATOM     16  C   UNL     1       6.752   4.254  14.410  0.00  0.00    +0.000 C 
ATOM     17  C   UNL     1       7.587   5.041  13.401  0.00  0.00    +0.000 C 
ENDBRANCH  13  16
ENDBRANCH   1  13
TORSDOF 2
ENDMDL
MODEL 7
REMARK VINA RESULT:      -6.4      2.119      2.952
REMARK  Name = 
REMARK  5 active torsions:
REMARK  status: ('A' for Active; 'I' for Inactive)
REMARK    1  A    between atoms: C_1  and  C_2
REMARK    2  A    between atoms: C_2  and  C_3
REMARK    3  A    between atoms: C_2  and  C_4
REMARK    4  A    between atoms: C_4  and  N_6
REMARK    5  A    between atoms: N_16  and  C_17
REMARK                            x       y       z     vdW  Elec       q    Type
REMARK                         _______ _______ _______ _____ _____    ______ ____
ROOT
ATOM      1  N   UNL     1       6.243   4.021  17.952  0.00  0.00    +0.000 NA
ATOM      2  C   UNL     1       5.057   4.165  18.458  0.00  0.00    +0.000 A 
ATOM      3  S   UNL     1       4.451   5.639  19.270  0.00  0.00    +0.000 S 
ATOM      4  C   UNL     1       2.942   4.819  19.702  0.00  0.00    +0.000 A 
ATOM      5  C   UNL     1       1.919   5.359  20.472  0.00  0.00    +0.000 A 
ATOM      6  C   UNL     1       0.792   4.582  20.718  0.00  0.00    +0.000 A 
ATOM      7  C   UNL     1       0.716   3.287  20.194  0.00  0.00    +0.000 A 
ATOM      8  C   UNL     1       1.766   2.764  19.429  0.00  0.00    +0.000 A 
ATOM      9  F   UNL     1       1.624   1.517  18.961  0.00  0.00    +0.000 F 
ATOM     10  C   UNL     1       2.906   3.518  19.168  0.00  0.00    +0.000 A 
ATOM     11  N   UNL     1       4.058   3.190  18.436  0.00  0.00    +0.000 N 
ATOM     12  C   UNL     1       4.299   1.868  17.888  0.00  0.00    +0.000 C 
ENDROOT
BRANCH   1  13
ATOM     13  C   UNL     1       7.202   4.986  18.156  0.00  0.00    +0.000 C 
ATOM     14  O   UNL     1       7.930   5.051  19.143  0.00  0.00    +0.000 OA
BRANCH  13  16
ATOM     15  C   UNL     1       6.349   5.690  15.911  0.00  0.00    +0.000 C 
ATOM     16  C   UNL     1       7.421   5.921  16.970  0.00  0.00    +0.000 C 
ATOM     17  C   UNL     1       7.380   7.362  17.476  0.00  0.00    +0.000 C 
ENDBRANCH  13  16
ENDBRANCH   1  13
TORSDOF 2
ENDMDL
MODEL 8
REMARK VINA RESULT:      -6.4      1.663      1.967
REMARK  Name = 
REMARK  5 active torsions:
REMARK  status: ('A' for Active; 'I' for Inactive)
REMARK    1  A    between atoms: C_1  and  C_2
REMARK    2  A    between atoms: C_2  and  C_3
REMARK    3  A    between atoms: C_2  and  C_4
REMARK    4  A    between atoms: C_4  and  N_6
REMARK    5  A    between atoms: N_16  and  C_17
REMARK                            x       y       z     vdW  Elec       q    Type
REMARK                         _______ _______ _______ _____ _____    ______ ____
ROOT
ATOM      1  N   UNL     1       4.696   5.801  16.611  0.00  0.00    +0.000 NA
ATOM      2  C   UNL     1       4.068   5.098  17.501  0.00  0.00    +0.000 A 
ATOM      3  S   UNL     1       4.109   3.313  17.626  0.00  0.00    +0.000 S 
ATOM      4  C   UNL     1       2.907   3.345  18.927  0.00  0.00    +0.000 A 
ATOM      5  C   UNL     1       2.341   2.231  19.533  0.00  0.00    +0.000 A 
ATOM      6  C   UNL     1       1.411   2.428  20.547  0.00  0.00    +0.000 A 
ATOM      7  C   UNL     1       1.067   3.729  20.928  0.00  0.00    +0.000 A 
ATOM      8  C   UNL     1       1.646   4.835  20.294  0.00  0.00    +0.000 A 
ATOM      9  F   UNL     1       1.267   6.051  20.709  0.00  0.00    +0.000 F 
ATOM     10  C   UNL     1       2.578   4.668  19.274  0.00  0.00    +0.000 A 
ATOM     11  N   UNL     1       3.269   5.626  18.516  0.00  0.00    +0.000 N 
ATOM     12  C   UNL     1       3.012   7.051  18.616  0.00  0.00    +0.000 C 
ENDROOT
BRANCH   1  13
ATOM     13  C   UNL     1       5.337   5.178  15.565  0.00  0.00    +0.000 C 
ATOM     14  O   UNL     1       4.771   4.630  14.624  0.00  0.00    +0.000 OA
BRANCH  13  16
ATOM     15  C   UNL     1       7.472   4.566  16.720  0.00  0.00    +0.000 C 
ATOM     16  C   UNL     1       6.854   5.345  15.564  0.00  0.00    +0.000 C 
ATOM     17  C   UNL     1       7.395   4.845  14.225  0.00  0.00    +0.000 C 
ENDBRANCH  13  16
ENDBRANCH   1  13
TORSDOF 2
ENDMDL
MODEL 9
REMARK VINA RESULT:      -6.3      1.695      2.573
REMARK  Name = 
REMARK  5 active torsions:
REMARK  status: ('A' for Active; 'I' for Inactive)
REMARK    1  A    between atoms: C_1  and  C_2
REMARK    2  A    between atoms: C_2  and  C_3
REMARK    3  A    between atoms: C_2  and  C_4
REMARK    4  A    between atoms: C_4  and  N_6
REMARK    5  A    between atoms: N_16  and  C_17
REMARK                            x       y       z     vdW  Elec       q    Type
REMARK                         _______ _______ _______ _____ _____    ______ ____
ROOT
ATOM      1  N   UNL     1       5.294   4.886  16.721  0.00  0.00    +0.000 NA
ATOM      2  C   UNL     1       4.308   4.747  17.552  0.00  0.00    +0.000 A 
ATOM      3  S   UNL     1       3.561   6.066  18.502  0.00  0.00    +0.000 S 
ATOM      4  C   UNL     1       2.532   4.908  19.361  0.00  0.00    +0.000 A 
ATOM      5  C   UNL     1       1.657   5.215  20.395  0.00  0.00    +0.000 A 
ATOM      6  C   UNL     1       0.914   4.186  20.963  0.00  0.00    +0.000 A 
ATOM      7  C   UNL     1       1.065   2.879  20.488  0.00  0.00    +0.000 A 
ATOM      8  C   UNL     1       1.961   2.596  19.451  0.00  0.00    +0.000 A 
ATOM      9  F   UNL     1       2.055   1.321  19.049  0.00  0.00    +0.000 F 
ATOM     10  C   UNL     1       2.719   3.605  18.864  0.00  0.00    +0.000 A 
ATOM     11  N   UNL     1       3.663   3.540  17.827  0.00  0.00    +0.000 N 
ATOM     12  C   UNL     1       4.105   2.290  17.237  0.00  0.00    +0.000 C 
ENDROOT
BRANCH   1  13
ATOM     13  C   UNL     1       5.956   6.089  16.631  0.00  0.00    +0.000 C 
ATOM     14  O   UNL     1       5.780   6.920  15.746  0.00  0.00    +0.000 OA
BRANCH  13  16
ATOM     15  C   UNL     1       7.759   5.227  18.139  0.00  0.00    +0.000 C 
ATOM     16  C   UNL     1       6.849   6.410  17.827  0.00  0.00    +0.000 C 
ATOM     17  C   UNL     1       7.674   7.653  17.495  0.00  0.00    +0.000 C 
ENDBRANCH  13  16
ENDBRANCH   1  13
TORSDOF 2
ENDMDL
