MODEL 1
REMARK VINA RESULT:      -8.2      0.000      0.000
REMARK  Name = 
REMARK  6 active torsions:
REMARK  status: ('A' for Active; 'I' for Inactive)
REMARK    1  A    between atoms: C_2  and  C_3
REMARK    2  A    between atoms: C_3  and  O_4
REMARK    3  A    between atoms: O_4  and  C_5
REMARK    4  A    between atoms: C_8  and  C_9
REMARK    5  A    between atoms: N_16  and  C_17
REMARK    6  A    between atoms: C_20  and  C_21
REMARK                            x       y       z     vdW  Elec       q    Type
REMARK                         _______ _______ _______ _____ _____    ______ ____
ROOT
ATOM      1  O   UNL     1       0.559   4.624  20.203  0.00  0.00    +0.000 OA
ATOM      2  C   UNL     1       1.711   4.769  20.613  0.00  0.00    +0.000 C 
ATOM      3  N   UNL     1       2.454   5.941  20.566  0.00  0.00    +0.000 N 
ATOM      4  H   UNL     1       3.455   5.861  20.705  0.00  0.00    +0.000 HD
ENDROOT
BRANCH   3   5
ATOM      5  C   UNL     1       1.960   7.221  20.240  0.00  0.00    +0.000 A 
ATOM      6  C   UNL     1       1.348   8.053  21.172  0.00  0.00    +0.000 A 
ATOM      7  C   UNL     1       0.898   9.326  20.807  0.00  0.00    +0.000 A 
ATOM      8  C   UNL     1       1.059   9.825  19.505  0.00  0.00    +0.000 A 
ATOM      9  C   UNL     1       1.682   8.972  18.576  0.00  0.00    +0.000 A 
ATOM     10  C   UNL     1       2.130   7.690  18.937  0.00  0.00    +0.000 A 
BRANCH   8  11
ATOM     11  C   UNL     1       0.594  11.188  19.146  0.00  0.00    +0.000 A 
ATOM     12  C   UNL     1       1.376  12.326  19.428  0.00  0.00    +0.000 A 
ATOM     13  C   UNL     1       0.933  13.617  19.121  0.00  0.00    +0.000 A 
ATOM     14  C   UNL     1      -0.298  13.800  18.504  0.00  0.00    +0.000 A 
ATOM     15  C   UNL     1      -1.086  12.695  18.199  0.00  0.00    +0.000 A 
ATOM     16  C   UNL     1      -0.647  11.406  18.522  0.00  0.00    +0.000 A 
ENDBRANCH   8  11
ENDBRANCH   3   5
BRANCH   2  17
ATOM     17  C   UNL     1       2.449   3.616  21.281  0.00  0.00    +0.000 C 
BRANCH  17  18
ATOM     18  O   UNL     1       2.751   2.572  20.362  0.00  0.00    +0.000 OA
BRANCH  18  19
ATOM     19  C   UNL     1       3.518   2.976  19.300  0.00  0.00    +0.000 A 
ATOM     20  C   UNL     1       4.743   3.569  19.596  0.00  0.00    +0.000 A 
ATOM     21  C   UNL     1       5.575   4.035  18.565  0.00  0.00    +0.000 A 
ATOM     22  C   UNL     1       5.189   3.911  17.222  0.00  0.00    +0.000 A 
ATOM     23  C   UNL     1       3.974   3.277  16.942  0.00  0.00    +0.000 A 
ATOM     24  C   UNL     1       3.148   2.811  17.965  0.00  0.00    +0.000 A 
BRANCH  22  25
ATOM     25  C   UNL     1       6.010   4.438  16.140  0.00  0.00    +0.000 A 
ATOM     26  C   UNL     1       6.939   5.444  15.993  0.00  0.00    +0.000 A 
ATOM     27  N   UNL     1       7.378   5.506  14.691  0.00  0.00    +0.000 NA
ATOM     28  C   UNL     1       6.703   4.549  14.099  0.00  0.00    +0.000 A 
ATOM     29  O   UNL     1       5.859   3.853  14.905  0.00  0.00    +0.000 OA
ENDBRANCH  22  25
ENDBRANCH  18  19
ENDBRANCH  17  18
ENDBRANCH   2  17
TORSDOF 6
ENDMDL
MODEL 2
REMARK VINA RESULT:      -8.2      0.343      1.326
REMARK  Name = 
REMARK  6 active torsions:
REMARK  status: ('A' for Active; 'I' for Inactive)
REMARK    1  A    between atoms: C_2  and  C_3
REMARK    2  A    between atoms: C_3  and  O_4
REMARK    3  A    between atoms: O_4  and  C_5
REMARK    4  A    between atoms: C_8  and  C_9
REMARK    5  A    between atoms: N_16  and  C_17
REMARK    6  A    between atoms: C_20  and  C_21
REMARK                            x       y       z     vdW  Elec       q    Type
REMARK                         _______ _______ _______ _____ _____    ______ ____
ROOT
ATOM      1  O   UNL     1       0.497   4.608  20.306  0.00  0.00    +0.000 OA
ATOM      2  C   UNL     1       1.680   4.701  20.631  0.00  0.00    +0.000 C 
ATOM      3  N   UNL     1       2.478   5.831  20.500  0.00  0.00    +0.000 N 
ATOM      4  H   UNL     1       3.481   5.701  20.572  0.00  0.00    +0.000 HD
ENDROOT
BRANCH   3   5
ATOM      5  C   UNL     1       2.029   7.127  20.174  0.00  0.00    +0.000 A 
ATOM      6  C   UNL     1       2.206   7.690  18.914  0.00  0.00    +0.000 A 
ATOM      7  C   UNL     1       1.718   8.971  18.630  0.00  0.00    +0.000 A 
ATOM      8  C   UNL     1       1.020   9.728  19.583  0.00  0.00    +0.000 A 
ATOM      9  C   UNL     1       0.849   9.142  20.850  0.00  0.00    +0.000 A 
ATOM     10  C   UNL     1       1.342   7.859  21.142  0.00  0.00    +0.000 A 
BRANCH   8  11
ATOM     11  C   UNL     1       0.492  11.075  19.252  0.00  0.00    +0.000 A 
ATOM     12  C   UNL     1       1.336  12.092  18.763  0.00  0.00    +0.000 A 
ATOM     13  C   UNL     1       0.853  13.373  18.477  0.00  0.00    +0.000 A 
ATOM     14  C   UNL     1      -0.495  13.664  18.654  0.00  0.00    +0.000 A 
ATOM     15  C   UNL     1      -1.355  12.676  19.121  0.00  0.00    +0.000 A 
ATOM     16  C   UNL     1      -0.866  11.400  19.421  0.00  0.00    +0.000 A 
ENDBRANCH   8  11
ENDBRANCH   3   5
BRANCH   2  17
ATOM     17  C   UNL     1       2.403   3.528  21.280  0.00  0.00    +0.000 C 
BRANCH  17  18
ATOM     18  O   UNL     1       2.807   2.555  20.321  0.00  0.00    +0.000 OA
BRANCH  18  19
ATOM     19  C   UNL     1       3.614   3.055  19.333  0.00  0.00    +0.000 A 
ATOM     20  C   UNL     1       3.179   2.890  18.020  0.00  0.00    +0.000 A 
ATOM     21  C   UNL     1       3.962   3.350  16.949  0.00  0.00    +0.000 A 
ATOM     22  C   UNL     1       5.192   3.984  17.181  0.00  0.00    +0.000 A 
ATOM     23  C   UNL     1       5.593   4.178  18.507  0.00  0.00    +0.000 A 
ATOM     24  C   UNL     1       4.814   3.724  19.572  0.00  0.00    +0.000 A 
BRANCH  22  25
ATOM     25  C   UNL     1       6.046   4.419  16.084  0.00  0.00    +0.000 A 
ATOM     26  C   UNL     1       7.116   5.273  15.931  0.00  0.00    +0.000 A 
ATOM     27  N   UNL     1       7.512   5.316  14.615  0.00  0.00    +0.000 NA
ATOM     28  C   UNL     1       6.674   4.499  14.020  0.00  0.00    +0.000 A 
ATOM     29  O   UNL     1       5.761   3.912  14.838  0.00  0.00    +0.000 OA
ENDBRANCH  22  25
ENDBRANCH  18  19
ENDBRANCH  17  18
ENDBRANCH   2  17
TORSDOF 6
ENDMDL
MODEL 3
REMARK VINA RESULT:      -8.2      0.333      1.307
REMARK  Name = 
REMARK  6 active torsions:
REMARK  status: ('A' for Active; 'I' for Inactive)
REMARK    1  A    between atoms: C_2  and  C_3
REMARK    2  A    between atoms: C_3  and  O_4
REMARK    3  A    between atoms: O_4  and  C_5
REMARK    4  A    between atoms: C_8  and  C_9
REMARK    5  A    between atoms: N_16  and  C_17
REMARK    6  A    between atoms: C_20  and  C_21
REMARK                            x       y       z     vdW  Elec       q    Type
REMARK                         _______ _______ _______ _____ _____    ______ ____
ROOT
ATOM      1  O   UNL     1       0.553   4.522  20.120  0.00  0.00    +0.000 OA
ATOM      2  C   UNL     1       1.667   4.642  20.630  0.00  0.00    +0.000 C 
ATOM      3  N   UNL     1       2.453   5.788  20.615  0.00  0.00    +0.000 N 
ATOM      4  H   UNL     1       3.434   5.679  20.848  0.00  0.00    +0.000 HD
ENDROOT
BRANCH   3   5
ATOM      5  C   UNL     1       2.037   7.071  20.205  0.00  0.00    +0.000 A 
ATOM      6  C   UNL     1       2.264   7.563  18.923  0.00  0.00    +0.000 A 
ATOM      7  C   UNL     1       1.808   8.834  18.556  0.00  0.00    +0.000 A 
ATOM      8  C   UNL     1       1.093   9.652  19.444  0.00  0.00    +0.000 A 
ATOM      9  C   UNL     1       0.870   9.137  20.734  0.00  0.00    +0.000 A 
ATOM     10  C   UNL     1       1.331   7.865  21.110  0.00  0.00    +0.000 A 
BRANCH   8  11
ATOM     11  C   UNL     1       0.599  10.987  19.024  0.00  0.00    +0.000 A 
ATOM     12  C   UNL     1      -0.761  11.204  18.727  0.00  0.00    +0.000 A 
ATOM     13  C   UNL     1      -1.231  12.451  18.302  0.00  0.00    +0.000 A 
ATOM     14  C   UNL     1      -0.352  13.520  18.181  0.00  0.00    +0.000 A 
ATOM     15  C   UNL     1       0.994  13.341  18.481  0.00  0.00    +0.000 A 
ATOM     16  C   UNL     1       1.464  12.088  18.891  0.00  0.00    +0.000 A 
ENDBRANCH   8  11
ENDBRANCH   3   5
BRANCH   2  17
ATOM     17  C   UNL     1       2.299   3.490  21.399  0.00  0.00    +0.000 C 
BRANCH  17  18
ATOM     18  O   UNL     1       2.689   2.424  20.539  0.00  0.00    +0.000 OA
BRANCH  18  19
ATOM     19  C   UNL     1       3.440   2.828  19.466  0.00  0.00    +0.000 A 
ATOM     20  C   UNL     1       4.656   3.448  19.745  0.00  0.00    +0.000 A 
ATOM     21  C   UNL     1       5.472   3.915  18.701  0.00  0.00    +0.000 A 
ATOM     22  C   UNL     1       5.079   3.765  17.363  0.00  0.00    +0.000 A 
ATOM     23  C   UNL     1       3.874   3.104  17.100  0.00  0.00    +0.000 A 
ATOM     24  C   UNL     1       3.064   2.637  18.136  0.00  0.00    +0.000 A 
BRANCH  22  25
ATOM     25  C   UNL     1       5.882   4.292  16.268  0.00  0.00    +0.000 A 
ATOM     26  C   UNL     1       7.101   4.921  16.138  0.00  0.00    +0.000 A 
ATOM     27  N   UNL     1       7.345   5.231  14.821  0.00  0.00    +0.000 NA
ATOM     28  C   UNL     1       6.273   4.789  14.204  0.00  0.00    +0.000 A 
ATOM     29  O   UNL     1       5.344   4.204  15.005  0.00  0.00    +0.000 OA
ENDBRANCH  22  25
ENDBRANCH  18  19
ENDBRANCH  17  18
ENDBRANCH   2  17
TORSDOF 6
ENDMDL
MODEL 4
REMARK VINA RESULT:      -8.1      2.089      2.611
REMARK  Name = 
REMARK  6 active torsions:
REMARK  status: ('A' for Active; 'I' for Inactive)
REMARK    1  A    between atoms: C_2  and  C_3
REMARK    2  A    between atoms: C_3  and  O_4
REMARK    3  A    between atoms: O_4  and  C_5
REMARK    4  A    between atoms: C_8  and  C_9
REMARK    5  A    between atoms: N_16  and  C_17
REMARK    6  A    between atoms: C_20  and  C_21
REMARK                            x       y       z     vdW  Elec       q    Type
REMARK                         _______ _______ _______ _____ _____    ______ ____
ROOT
ATOM      1  O   UNL     1       1.205   4.991  20.261  0.00  0.00    +0.000 OA
ATOM      2  C   UNL     1       2.310   5.488  20.043  0.00  0.00    +0.000 C 
ATOM      3  N   UNL     1       2.593   6.845  19.956  0.00  0.00    +0.000 N 
ATOM      4  H   UNL     1       3.475   7.108  19.531  0.00  0.00    +0.000 HD
ENDROOT
BRANCH   3   5
ATOM      5  C   UNL     1       1.721   7.896  20.310  0.00  0.00    +0.000 A 
ATOM      6  C   UNL     1       1.164   8.017  21.578  0.00  0.00    +0.000 A 
ATOM      7  C   UNL     1       0.325   9.094  21.890  0.00  0.00    +0.000 A 
ATOM      8  C   UNL     1       0.029  10.098  20.955  0.00  0.00    +0.000 A 
ATOM      9  C   UNL     1       0.603   9.960  19.678  0.00  0.00    +0.000 A 
ATOM     10  C   UNL     1       1.441   8.878  19.360  0.00  0.00    +0.000 A 
BRANCH   8  11
ATOM     11  C   UNL     1      -0.844  11.242  21.315  0.00  0.00    +0.000 A 
ATOM     12  C   UNL     1      -1.565  11.951  20.333  0.00  0.00    +0.000 A 
ATOM     13  C   UNL     1      -2.367  13.050  20.659  0.00  0.00    +0.000 A 
ATOM     14  C   UNL     1      -2.483  13.457  21.982  0.00  0.00    +0.000 A 
ATOM     15  C   UNL     1      -1.795  12.768  22.976  0.00  0.00    +0.000 A 
ATOM     16  C   UNL     1      -0.982  11.679  22.645  0.00  0.00    +0.000 A 
ENDBRANCH   8  11
ENDBRANCH   3   5
BRANCH   2  17
ATOM     17  C   UNL     1       3.541   4.606  19.877  0.00  0.00    +0.000 C 
BRANCH  17  18
ATOM     18  O   UNL     1       4.698   5.364  19.541  0.00  0.00    +0.000 OA
BRANCH  18  19
ATOM     19  C   UNL     1       5.160   5.132  18.271  0.00  0.00    +0.000 A 
ATOM     20  C   UNL     1       6.171   5.969  17.805  0.00  0.00    +0.000 A 
ATOM     21  C   UNL     1       6.679   5.815  16.505  0.00  0.00    +0.000 A 
ATOM     22  C   UNL     1       6.180   4.817  15.654  0.00  0.00    +0.000 A 
ATOM     23  C   UNL     1       5.193   3.960  16.153  0.00  0.00    +0.000 A 
ATOM     24  C   UNL     1       4.690   4.111  17.446  0.00  0.00    +0.000 A 
BRANCH  22  25
ATOM     25  C   UNL     1       6.652   4.676  14.284  0.00  0.00    +0.000 A 
ATOM     26  C   UNL     1       6.335   3.894  13.195  0.00  0.00    +0.000 A 
ATOM     27  N   UNL     1       7.164   4.183  12.137  0.00  0.00    +0.000 NA
ATOM     28  C   UNL     1       7.951   5.118  12.617  0.00  0.00    +0.000 A 
ATOM     29  O   UNL     1       7.705   5.476  13.905  0.00  0.00    +0.000 OA
ENDBRANCH  22  25
ENDBRANCH  18  19
ENDBRANCH  17  18
ENDBRANCH   2  17
TORSDOF 6
ENDMDL
MODEL 5
REMARK VINA RESULT:      -8.0      1.485      1.958
REMARK  Name = 
REMARK  6 active torsions:
REMARK  status: ('A' for Active; 'I' for Inactive)
REMARK    1  A    between atoms: C_2  and  C_3
REMARK    2  A    between atoms: C_3  and  O_4
REMARK    3  A    between atoms: O_4  and  C_5
REMARK    4  A    between atoms: C_8  and  C_9
REMARK    5  A    between atoms: N_16  and  C_17
REMARK    6  A    between atoms: C_20  and  C_21
REMARK                            x       y       z     vdW  Elec       q    Type
REMARK                         _______ _______ _______ _____ _____    ______ ____
ROOT
ATOM      1  O   UNL     1       1.246   4.669  19.759  0.00  0.00    +0.000 OA
ATOM      2  C   UNL     1       2.431   4.999  19.733  0.00  0.00    +0.000 C 
ATOM      3  N   UNL     1       2.916   6.296  19.614  0.00  0.00    +0.000 N 
ATOM      4  H   UNL     1       3.891   6.405  19.358  0.00  0.00    +0.000 HD
ENDROOT
BRANCH   3   5
ATOM      5  C   UNL     1       2.153   7.477  19.717  0.00  0.00    +0.000 A 
ATOM      6  C   UNL     1       1.553   7.886  20.904  0.00  0.00    +0.000 A 
ATOM      7  C   UNL     1       0.827   9.081  20.962  0.00  0.00    +0.000 A 
ATOM      8  C   UNL     1       0.689   9.920  19.846  0.00  0.00    +0.000 A 
ATOM      9  C   UNL     1       1.303   9.492  18.655  0.00  0.00    +0.000 A 
ATOM     10  C   UNL     1       2.028   8.291  18.591  0.00  0.00    +0.000 A 
BRANCH   8  11
ATOM     11  C   UNL     1      -0.066  11.195  19.938  0.00  0.00    +0.000 A 
ATOM     12  C   UNL     1      -0.960  11.441  20.999  0.00  0.00    +0.000 A 
ATOM     13  C   UNL     1      -1.699  12.626  21.077  0.00  0.00    +0.000 A 
ATOM     14  C   UNL     1      -1.547  13.606  20.103  0.00  0.00    +0.000 A 
ATOM     15  C   UNL     1      -0.661  13.398  19.052  0.00  0.00    +0.000 A 
ATOM     16  C   UNL     1       0.065  12.204  18.968  0.00  0.00    +0.000 A 
ENDBRANCH   8  11
ENDBRANCH   3   5
BRANCH   2  17
ATOM     17  C   UNL     1       3.533   3.957  19.875  0.00  0.00    +0.000 C 
BRANCH  17  18
ATOM     18  O   UNL     1       4.826   4.516  19.667  0.00  0.00    +0.000 OA
BRANCH  18  19
ATOM     19  C   UNL     1       5.248   4.462  18.364  0.00  0.00    +0.000 A 
ATOM     20  C   UNL     1       6.486   5.033  18.077  0.00  0.00    +0.000 A 
ATOM     21  C   UNL     1       6.976   5.043  16.762  0.00  0.00    +0.000 A 
ATOM     22  C   UNL     1       6.232   4.478  15.715  0.00  0.00    +0.000 A 
ATOM     23  C   UNL     1       5.010   3.872  16.028  0.00  0.00    +0.000 A 
ATOM     24  C   UNL     1       4.523   3.860  17.335  0.00  0.00    +0.000 A 
BRANCH  22  25
ATOM     25  C   UNL     1       6.696   4.527  14.335  0.00  0.00    +0.000 A 
ATOM     26  C   UNL     1       6.397   3.875  13.159  0.00  0.00    +0.000 A 
ATOM     27  N   UNL     1       7.205   4.326  12.141  0.00  0.00    +0.000 NA
ATOM     28  C   UNL     1       7.960   5.224  12.730  0.00  0.00    +0.000 A 
ATOM     29  O   UNL     1       7.713   5.409  14.054  0.00  0.00    +0.000 OA
ENDBRANCH  22  25
ENDBRANCH  18  19
ENDBRANCH  17  18
ENDBRANCH   2  17
TORSDOF 6
ENDMDL
MODEL 6
REMARK VINA RESULT:      -7.9      4.844     10.533
REMARK  Name = 
REMARK  6 active torsions:
REMARK  status: ('A' for Active; 'I' for Inactive)
REMARK    1  A    between atoms: C_2  and  C_3
REMARK    2  A    between atoms: C_3  and  O_4
REMARK    3  A    between atoms: O_4  and  C_5
REMARK    4  A    between atoms: C_8  and  C_9
REMARK    5  A    between atoms: N_16  and  C_17
REMARK    6  A    between atoms: C_20  and  C_21
REMARK                            x       y       z     vdW  Elec       q    Type
REMARK                         _______ _______ _______ _____ _____    ______ ____
ROOT
ATOM      1  O   UNL     1       1.867   9.417  22.839  0.00  0.00    +0.000 OA
ATOM      2  C   UNL     1       0.760   9.550  22.317  0.00  0.00    +0.000 C 
ATOM      3  N   UNL     1       0.426   9.208  21.012  0.00  0.00    +0.000 N 
ATOM      4  H   UNL     1      -0.434   9.593  20.638  0.00  0.00    +0.000 HD
ENDROOT
BRANCH   3   5
ATOM      5  C   UNL     1       1.224   8.458  20.124  0.00  0.00    +0.000 A 
ATOM      6  C   UNL     1       1.621   8.938  18.880  0.00  0.00    +0.000 A 
ATOM      7  C   UNL     1       2.436   8.165  18.044  0.00  0.00    +0.000 A 
ATOM      8  C   UNL     1       2.900   6.897  18.425  0.00  0.00    +0.000 A 
ATOM      9  C   UNL     1       2.491   6.429  19.687  0.00  0.00    +0.000 A 
ATOM     10  C   UNL     1       1.668   7.198  20.527  0.00  0.00    +0.000 A 
BRANCH   8  11
ATOM     11  C   UNL     1       3.782   6.106  17.532  0.00  0.00    +0.000 A 
ATOM     12  C   UNL     1       4.677   6.734  16.643  0.00  0.00    +0.000 A 
ATOM     13  C   UNL     1       5.491   5.998  15.775  0.00  0.00    +0.000 A 
ATOM     14  C   UNL     1       5.443   4.609  15.790  0.00  0.00    +0.000 A 
ATOM     15  C   UNL     1       4.581   3.960  16.667  0.00  0.00    +0.000 A 
ATOM     16  C   UNL     1       3.757   4.700  17.522  0.00  0.00    +0.000 A 
ENDBRANCH   8  11
ENDBRANCH   3   5
BRANCH   2  17
ATOM     17  C   UNL     1      -0.416  10.097  23.114  0.00  0.00    +0.000 C 
BRANCH  17  18
ATOM     18  O   UNL     1      -0.500  11.516  23.035  0.00  0.00    +0.000 OA
BRANCH  18  19
ATOM     19  C   UNL     1      -1.709  11.973  22.577  0.00  0.00    +0.000 A 
ATOM     20  C   UNL     1      -1.810  12.227  21.211  0.00  0.00    +0.000 A 
ATOM     21  C   UNL     1      -3.006  12.723  20.667  0.00  0.00    +0.000 A 
ATOM     22  C   UNL     1      -4.118  12.970  21.486  0.00  0.00    +0.000 A 
ATOM     23  C   UNL     1      -4.011  12.670  22.849  0.00  0.00    +0.000 A 
ATOM     24  C   UNL     1      -2.824  12.174  23.390  0.00  0.00    +0.000 A 
BRANCH  22  25
ATOM     25  C   UNL     1      -5.348  13.537  20.952  0.00  0.00    +0.000 A 
ATOM     26  C   UNL     1      -5.883  13.760  19.702  0.00  0.00    +0.000 A 
ATOM     27  N   UNL     1      -7.108  14.378  19.807  0.00  0.00    +0.000 NA
ATOM     28  C   UNL     1      -7.269  14.511  21.103  0.00  0.00    +0.000 A 
ATOM     29  O   UNL     1      -6.254  14.024  21.865  0.00  0.00    +0.000 OA
ENDBRANCH  22  25
ENDBRANCH  18  19
ENDBRANCH  17  18
ENDBRANCH   2  17
TORSDOF 6
ENDMDL
MODEL 7
REMARK VINA RESULT:      -7.8      3.474      4.806
REMARK  Name = 
REMARK  6 active torsions:
REMARK  status: ('A' for Active; 'I' for Inactive)
REMARK    1  A    between atoms: C_2  and  C_3
REMARK    2  A    between atoms: C_3  and  O_4
REMARK    3  A    between atoms: O_4  and  C_5
REMARK    4  A    between atoms: C_8  and  C_9
REMARK    5  A    between atoms: N_16  and  C_17
REMARK    6  A    between atoms: C_20  and  C_21
REMARK                            x       y       z     vdW  Elec       q    Type
REMARK                         _______ _______ _______ _____ _____    ______ ____
ROOT
ATOM      1  O   UNL     1       4.390   4.197  19.202  0.00  0.00    +0.000 OA
ATOM      2  C   UNL     1       4.407   4.708  18.083  0.00  0.00    +0.000 C 
ATOM      3  N   UNL     1       3.639   5.787  17.665  0.00  0.00    +0.000 N 
ATOM      4  H   UNL     1       3.566   5.946  16.666  0.00  0.00    +0.000 HD
ENDROOT
BRANCH   3   5
ATOM      5  C   UNL     1       2.865   6.623  18.497  0.00  0.00    +0.000 A 
ATOM      6  C   UNL     1       2.464   6.250  19.776  0.00  0.00    +0.000 A 
ATOM      7  C   UNL     1       1.720   7.125  20.574  0.00  0.00    +0.000 A 
ATOM      8  C   UNL     1       1.364   8.410  20.135  0.00  0.00    +0.000 A 
ATOM      9  C   UNL     1       1.780   8.771  18.841  0.00  0.00    +0.000 A 
ATOM     10  C   UNL     1       2.523   7.894  18.033  0.00  0.00    +0.000 A 
BRANCH   8  11
ATOM     11  C   UNL     1       0.594   9.330  21.008  0.00  0.00    +0.000 A 
ATOM     12  C   UNL     1       0.314   9.003  22.350  0.00  0.00    +0.000 A 
ATOM     13  C   UNL     1      -0.438   9.850  23.172  0.00  0.00    +0.000 A 
ATOM     14  C   UNL     1      -0.913  11.058  22.676  0.00  0.00    +0.000 A 
ATOM     15  C   UNL     1      -0.639  11.415  21.359  0.00  0.00    +0.000 A 
ATOM     16  C   UNL     1       0.099  10.559  20.535  0.00  0.00    +0.000 A 
ENDBRANCH   8  11
ENDBRANCH   3   5
BRANCH   2  17
ATOM     17  C   UNL     1       5.355   4.194  17.007  0.00  0.00    +0.000 C 
BRANCH  17  18
ATOM     18  O   UNL     1       6.714   4.232  17.431  0.00  0.00    +0.000 OA
BRANCH  18  19
ATOM     19  C   UNL     1       7.166   5.492  17.723  0.00  0.00    +0.000 A 
ATOM     20  C   UNL     1       6.875   6.496  16.801  0.00  0.00    +0.000 A 
ATOM     21  C   UNL     1       7.327   7.808  17.013  0.00  0.00    +0.000 A 
ATOM     22  C   UNL     1       8.076   8.133  18.155  0.00  0.00    +0.000 A 
ATOM     23  C   UNL     1       8.323   7.122  19.089  0.00  0.00    +0.000 A 
ATOM     24  C   UNL     1       7.872   5.818  18.881  0.00  0.00    +0.000 A 
BRANCH  22  25
ATOM     25  C   UNL     1       8.602   9.474  18.366  0.00  0.00    +0.000 A 
ATOM     26  C   UNL     1       8.519  10.691  17.724  0.00  0.00    +0.000 A 
ATOM     27  N   UNL     1       9.274  11.634  18.382  0.00  0.00    +0.000 NA
ATOM     28  C   UNL     1       9.786  10.963  19.387  0.00  0.00    +0.000 A 
ATOM     29  O   UNL     1       9.426   9.654  19.453  0.00  0.00    +0.000 OA
ENDBRANCH  22  25
ENDBRANCH  18  19
ENDBRANCH  17  18
ENDBRANCH   2  17
TORSDOF 6
ENDMDL
MODEL 8
REMARK VINA RESULT:      -7.8      3.306      9.642
REMARK  Name = 
REMARK  6 active torsions:
REMARK  status: ('A' for Active; 'I' for Inactive)
REMARK    1  A    between atoms: C_2  and  C_3
REMARK    2  A    between atoms: C_3  and  O_4
REMARK    3  A    between atoms: O_4  and  C_5
REMARK    4  A    between atoms: C_8  and  C_9
REMARK    5  A    between atoms: N_16  and  C_17
REMARK    6  A    between atoms: C_20  and  C_21
REMARK                            x       y       z     vdW  Elec       q    Type
REMARK                         _______ _______ _______ _____ _____    ______ ____
ROOT
ATOM      1  O   UNL     1       1.475   4.737  19.142  0.00  0.00    +0.000 OA
ATOM      2  C   UNL     1       2.088   5.697  19.606  0.00  0.00    +0.000 C 
ATOM      3  N   UNL     1       3.322   6.166  19.174  0.00  0.00    +0.000 N 
ATOM      4  H   UNL     1       3.821   6.795  19.793  0.00  0.00    +0.000 HD
ENDROOT
BRANCH   3   5
ATOM      5  C   UNL     1       3.993   5.768  18.000  0.00  0.00    +0.000 A 
ATOM      6  C   UNL     1       4.195   4.433  17.664  0.00  0.00    +0.000 A 
ATOM      7  C   UNL     1       4.843   4.087  16.473  0.00  0.00    +0.000 A 
ATOM      8  C   UNL     1       5.296   5.057  15.565  0.00  0.00    +0.000 A 
ATOM      9  C   UNL     1       5.080   6.401  15.919  0.00  0.00    +0.000 A 
ATOM     10  C   UNL     1       4.435   6.753  17.116  0.00  0.00    +0.000 A 
BRANCH   8  11
ATOM     11  C   UNL     1       5.960   4.666  14.297  0.00  0.00    +0.000 A 
ATOM     12  C   UNL     1       5.381   3.719  13.429  0.00  0.00    +0.000 A 
ATOM     13  C   UNL     1       6.014   3.321  12.246  0.00  0.00    +0.000 A 
ATOM     14  C   UNL     1       7.237   3.878  11.892  0.00  0.00    +0.000 A 
ATOM     15  C   UNL     1       7.827   4.826  12.722  0.00  0.00    +0.000 A 
ATOM     16  C   UNL     1       7.198   5.210  13.911  0.00  0.00    +0.000 A 
ENDBRANCH   8  11
ENDBRANCH   3   5
BRANCH   2  17
ATOM     17  C   UNL     1       1.493   6.527  20.737  0.00  0.00    +0.000 C 
BRANCH  17  18
ATOM     18  O   UNL     1       1.997   7.859  20.744  0.00  0.00    +0.000 OA
BRANCH  18  19
ATOM     19  C   UNL     1       1.091   8.789  21.183  0.00  0.00    +0.000 A 
ATOM     20  C   UNL     1       0.396   9.503  20.209  0.00  0.00    +0.000 A 
ATOM     21  C   UNL     1      -0.528  10.492  20.578  0.00  0.00    +0.000 A 
ATOM     22  C   UNL     1      -0.770  10.780  21.930  0.00  0.00    +0.000 A 
ATOM     23  C   UNL     1      -0.094  10.026  22.894  0.00  0.00    +0.000 A 
ATOM     24  C   UNL     1       0.824   9.039  22.529  0.00  0.00    +0.000 A 
BRANCH  22  25
ATOM     25  C   UNL     1      -1.683  11.841  22.333  0.00  0.00    +0.000 A 
ATOM     26  C   UNL     1      -1.992  13.110  21.895  0.00  0.00    +0.000 A 
ATOM     27  N   UNL     1      -2.941  13.681  22.710  0.00  0.00    +0.000 NA
ATOM     28  C   UNL     1      -3.169  12.751  23.607  0.00  0.00    +0.000 A 
ATOM     29  O   UNL     1      -2.453  11.606  23.448  0.00  0.00    +0.000 OA
ENDBRANCH  22  25
ENDBRANCH  18  19
ENDBRANCH  17  18
ENDBRANCH   2  17
TORSDOF 6
ENDMDL
MODEL 9
REMARK VINA RESULT:      -7.8      3.140      3.841
REMARK  Name = 
REMARK  6 active torsions:
REMARK  status: ('A' for Active; 'I' for Inactive)
REMARK    1  A    between atoms: C_2  and  C_3
REMARK    2  A    between atoms: C_3  and  O_4
REMARK    3  A    between atoms: O_4  and  C_5
REMARK    4  A    between atoms: C_8  and  C_9
REMARK    5  A    between atoms: N_16  and  C_17
REMARK    6  A    between atoms: C_20  and  C_21
REMARK                            x       y       z     vdW  Elec       q    Type
REMARK                         _______ _______ _______ _____ _____    ______ ____
ROOT
ATOM      1  O   UNL     1       1.673   8.480  18.725  0.00  0.00    +0.000 OA
ATOM      2  C   UNL     1       1.853   7.730  19.683  0.00  0.00    +0.000 C 
ATOM      3  N   UNL     1       1.586   8.025  21.014  0.00  0.00    +0.000 N 
ATOM      4  H   UNL     1       2.007   7.425  21.715  0.00  0.00    +0.000 HD
ENDROOT
BRANCH   3   5
ATOM      5  C   UNL     1       0.869   9.143  21.486  0.00  0.00    +0.000 A 
ATOM      6  C   UNL     1       0.949  10.397  20.887  0.00  0.00    +0.000 A 
ATOM      7  C   UNL     1       0.196  11.470  21.376  0.00  0.00    +0.000 A 
ATOM      8  C   UNL     1      -0.678  11.329  22.465  0.00  0.00    +0.000 A 
ATOM      9  C   UNL     1      -0.748  10.055  23.056  0.00  0.00    +0.000 A 
ATOM     10  C   UNL     1       0.010   8.976  22.573  0.00  0.00    +0.000 A 
BRANCH   8  11
ATOM     11  C   UNL     1      -1.484  12.477  22.951  0.00  0.00    +0.000 A 
ATOM     12  C   UNL     1      -2.856  12.338  23.239  0.00  0.00    +0.000 A 
ATOM     13  C   UNL     1      -3.631  13.420  23.669  0.00  0.00    +0.000 A 
ATOM     14  C   UNL     1      -3.045  14.669  23.840  0.00  0.00    +0.000 A 
ATOM     15  C   UNL     1      -1.689  14.834  23.578  0.00  0.00    +0.000 A 
ATOM     16  C   UNL     1      -0.921  13.752  23.133  0.00  0.00    +0.000 A 
ENDBRANCH   8  11
ENDBRANCH   3   5
BRANCH   2  17
ATOM     17  C   UNL     1       2.380   6.316  19.475  0.00  0.00    +0.000 C 
BRANCH  17  18
ATOM     18  O   UNL     1       3.802   6.279  19.421  0.00  0.00    +0.000 OA
BRANCH  18  19
ATOM     19  C   UNL     1       4.299   5.938  18.190  0.00  0.00    +0.000 A 
ATOM     20  C   UNL     1       4.313   4.582  17.869  0.00  0.00    +0.000 A 
ATOM     21  C   UNL     1       4.832   4.148  16.638  0.00  0.00    +0.000 A 
ATOM     22  C   UNL     1       5.343   5.070  15.711  0.00  0.00    +0.000 A 
ATOM     23  C   UNL     1       5.283   6.430  16.034  0.00  0.00    +0.000 A 
ATOM     24  C   UNL     1       4.765   6.862  17.255  0.00  0.00    +0.000 A 
BRANCH  22  25
ATOM     25  C   UNL     1       5.937   4.637  14.454  0.00  0.00    +0.000 A 
ATOM     26  C   UNL     1       5.660   3.687  13.495  0.00  0.00    +0.000 A 
ATOM     27  N   UNL     1       6.615   3.710  12.506  0.00  0.00    +0.000 NA
ATOM     28  C   UNL     1       7.433   4.659  12.898  0.00  0.00    +0.000 A 
ATOM     29  O   UNL     1       7.091   5.273  14.062  0.00  0.00    +0.000 OA
ENDBRANCH  22  25
ENDBRANCH  18  19
ENDBRANCH  17  18
ENDBRANCH   2  17
TORSDOF 6
ENDMDL
