MODEL 1
REMARK VINA RESULT:      -7.7      0.000      0.000
REMARK  Name = 
REMARK  6 active torsions:
REMARK  status: ('A' for Active; 'I' for Inactive)
REMARK    1  A    between atoms: C_1  and  C_2
REMARK    2  A    between atoms: N_6  and  C_7
REMARK    3  A    between atoms: C_7  and  C_8
REMARK    4  A    between atoms: N_10  and  C_11
REMARK    5  A    between atoms: C_11  and  C_12
REMARK    6  A    between atoms: C_16  and  C_18
REMARK                            x       y       z     vdW  Elec       q    Type
REMARK                         _______ _______ _______ _____ _____    ______ ____
ROOT
ATOM      1  C   UNL     1       1.739   7.507  19.560  0.00  0.00    +0.000 C 
ATOM      2  C   UNL     1       1.386   8.176  20.899  0.00  0.00    +0.000 C 
ATOM      3  C   UNL     1       0.277   9.194  20.691  0.00  0.00    +0.000 C 
ATOM      4  N   UNL     1       0.666  10.155  19.660  0.00  0.00    +0.000 N 
ATOM      5  C   UNL     1       0.081  11.419  19.760  0.00  0.00    +0.000 C 
ATOM      6  O   UNL     1      -0.959  11.608  20.422  0.00  0.00    +0.000 OA
ATOM      7  C   UNL     1       1.064   9.585  18.376  0.00  0.00    +0.000 C 
ATOM      8  C   UNL     1       2.209   8.600  18.588  0.00  0.00    +0.000 C 
ENDROOT
BRANCH   5   9
ATOM      9  C   UNL     1       0.735  12.584  19.129  0.00  0.00    +0.000 A 
ATOM     10  C   UNL     1       2.117  12.660  19.044  0.00  0.00    +0.000 A 
ATOM     11  C   UNL     1       2.713  13.725  18.385  0.00  0.00    +0.000 A 
ATOM     12  C   UNL     1       2.031  14.931  18.486  0.00  0.00    +0.000 A 
ATOM     13  S   UNL     1       2.634  16.541  18.496  0.00  0.00    +0.000 S 
ATOM     14  C   UNL     1       1.034  17.110  18.719  0.00  0.00    +0.000 A 
ATOM     15  N   UNL     1       0.077  16.209  18.651  0.00  0.00    +0.000 NA
ATOM     16  C   UNL     1       0.643  14.945  18.627  0.00  0.00    +0.000 A 
ATOM     17  C   UNL     1      -0.031  13.707  18.749  0.00  0.00    +0.000 A 
ENDBRANCH   5   9
BRANCH   1  18
ATOM     18  C   UNL     1       2.771   6.388  19.705  0.00  0.00    +0.000 C 
BRANCH  18  21
ATOM     19  C   UNL     1       3.441   4.590  18.135  0.00  0.00    +0.000 C 
ATOM     20  O   UNL     1       3.113   3.716  18.932  0.00  0.00    +0.000 OA
ATOM     21  N   UNL     1       3.251   5.935  18.409  0.00  0.00    +0.000 N 
ATOM     22  H   UNL     1       3.510   6.639  17.720  0.00  0.00    +0.000 HD
BRANCH  19  23
ATOM     23  C   UNL     1       4.167   4.273  16.858  0.00  0.00    +0.000 C 
BRANCH  23  29
ATOM     24  C   UNL     1       6.182   4.134  14.397  0.00  0.00    +0.000 C 
ATOM     25  C   UNL     1       6.522   4.387  15.813  0.00  0.00    +0.000 A 
ATOM     26  N   UNL     1       7.750   4.499  16.288  0.00  0.00    +0.000 NA
ATOM     27  C   UNL     1       7.635   4.646  17.644  0.00  0.00    +0.000 A 
ATOM     28  C   UNL     1       6.331   4.636  18.032  0.00  0.00    +0.000 A 
ATOM     29  N   UNL     1       5.611   4.482  16.858  0.00  0.00    +0.000 N 
ENDBRANCH  23  29
ENDBRANCH  19  23
ENDBRANCH  18  21
ENDBRANCH   1  18
TORSDOF 5
ENDMDL
MODEL 2
REMARK VINA RESULT:      -7.6      2.811      3.694
REMARK  Name = 
REMARK  6 active torsions:
REMARK  status: ('A' for Active; 'I' for Inactive)
REMARK    1  A    between atoms: C_1  and  C_2
REMARK    2  A    between atoms: N_6  and  C_7
REMARK    3  A    between atoms: C_7  and  C_8
REMARK    4  A    between atoms: N_10  and  C_11
REMARK    5  A    between atoms: C_11  and  C_12
REMARK    6  A    between atoms: C_16  and  C_18
REMARK                            x       y       z     vdW  Elec       q    Type
REMARK                         _______ _______ _______ _____ _____    ______ ____
ROOT
ATOM      1  C   UNL     1       2.192   7.589  19.799  0.00  0.00    +0.000 C 
ATOM      2  C   UNL     1       1.830   8.145  18.410  0.00  0.00    +0.000 C 
ATOM      3  C   UNL     1       1.774   9.663  18.461  0.00  0.00    +0.000 C 
ATOM      4  N   UNL     1       0.848  10.096  19.507  0.00  0.00    +0.000 N 
ATOM      5  C   UNL     1       0.250  11.342  19.308  0.00  0.00    +0.000 C 
ATOM      6  O   UNL     1       0.734  12.182  18.523  0.00  0.00    +0.000 OA
ATOM      7  C   UNL     1       1.103   9.564  20.842  0.00  0.00    +0.000 C 
ATOM      8  C   UNL     1       1.110   8.039  20.791  0.00  0.00    +0.000 C 
ENDROOT
BRANCH   5   9
ATOM      9  C   UNL     1      -1.025  11.663  19.982  0.00  0.00    +0.000 A 
ATOM     10  C   UNL     1      -2.094  12.180  19.266  0.00  0.00    +0.000 A 
ATOM     11  C   UNL     1      -3.307  12.407  19.898  0.00  0.00    +0.000 A 
ATOM     12  C   UNL     1      -3.209  12.791  21.230  0.00  0.00    +0.000 A 
ATOM     13  S   UNL     1      -4.236  13.805  22.163  0.00  0.00    +0.000 S 
ATOM     14  C   UNL     1      -3.171  13.617  23.491  0.00  0.00    +0.000 A 
ATOM     15  N   UNL     1      -2.189  12.754  23.336  0.00  0.00    +0.000 NA
ATOM     16  C   UNL     1      -2.137  12.357  22.010  0.00  0.00    +0.000 A 
ATOM     17  C   UNL     1      -1.120  11.596  21.389  0.00  0.00    +0.000 A 
ENDBRANCH   5   9
BRANCH   1  18
ATOM     18  C   UNL     1       2.379   6.072  19.803  0.00  0.00    +0.000 C 
BRANCH  18  21
ATOM     19  C   UNL     1       4.082   4.898  18.436  0.00  0.00    +0.000 C 
ATOM     20  O   UNL     1       3.239   4.548  17.614  0.00  0.00    +0.000 OA
ATOM     21  N   UNL     1       3.756   5.704  19.516  0.00  0.00    +0.000 N 
ATOM     22  H   UNL     1       4.478   6.000  20.169  0.00  0.00    +0.000 HD
BRANCH  19  23
ATOM     23  C   UNL     1       5.496   4.395  18.392  0.00  0.00    +0.000 C 
BRANCH  23  29
ATOM     24  C   UNL     1       7.449   6.850  17.852  0.00  0.00    +0.000 C 
ATOM     25  C   UNL     1       7.086   5.776  16.903  0.00  0.00    +0.000 A 
ATOM     26  N   UNL     1       7.451   5.732  15.634  0.00  0.00    +0.000 NA
ATOM     27  C   UNL     1       6.846   4.632  15.090  0.00  0.00    +0.000 A 
ATOM     28  C   UNL     1       6.100   3.970  16.015  0.00  0.00    +0.000 A 
ATOM     29  N   UNL     1       6.261   4.695  17.186  0.00  0.00    +0.000 N 
ENDBRANCH  23  29
ENDBRANCH  19  23
ENDBRANCH  18  21
ENDBRANCH   1  18
TORSDOF 5
ENDMDL
MODEL 3
REMARK VINA RESULT:      -7.5      3.442      4.524
REMARK  Name = 
REMARK  6 active torsions:
REMARK  status: ('A' for Active; 'I' for Inactive)
REMARK    1  A    between atoms: C_1  and  C_2
REMARK    2  A    between atoms: N_6  and  C_7
REMARK    3  A    between atoms: C_7  and  C_8
REMARK    4  A    between atoms: N_10  and  C_11
REMARK    5  A    between atoms: C_11  and  C_12
REMARK    6  A    between atoms: C_16  and  C_18
REMARK                            x       y       z     vdW  Elec       q    Type
REMARK                         _______ _______ _______ _____ _____    ______ ____
ROOT
ATOM      1  C   UNL     1       1.243   8.622  20.450  0.00  0.00    +0.000 C 
ATOM      2  C   UNL     1       1.371   9.091  18.990  0.00  0.00    +0.000 C 
ATOM      3  C   UNL     1       1.174  10.596  18.912  0.00  0.00    +0.000 C 
ATOM      4  N   UNL     1      -0.104  10.966  19.519  0.00  0.00    +0.000 N 
ATOM      5  C   UNL     1      -0.688  12.138  19.031  0.00  0.00    +0.000 C 
ATOM      6  O   UNL     1      -0.021  12.996  18.419  0.00  0.00    +0.000 OA
ATOM      7  C   UNL     1      -0.314  10.509  20.889  0.00  0.00    +0.000 C 
ATOM      8  C   UNL     1      -0.162   8.992  20.949  0.00  0.00    +0.000 C 
ENDROOT
BRANCH   5   9
ATOM      9  C   UNL     1      -2.144  12.348  19.173  0.00  0.00    +0.000 A 
ATOM     10  C   UNL     1      -2.664  12.949  20.309  0.00  0.00    +0.000 A 
ATOM     11  C   UNL     1      -4.025  13.206  20.396  0.00  0.00    +0.000 A 
ATOM     12  C   UNL     1      -4.836  12.276  19.758  0.00  0.00    +0.000 A 
ATOM     13  S   UNL     1      -6.430  11.757  20.143  0.00  0.00    +0.000 S 
ATOM     14  C   UNL     1      -6.357  10.654  18.834  0.00  0.00    +0.000 A 
ATOM     15  N   UNL     1      -5.299  10.739  18.056  0.00  0.00    +0.000 NA
ATOM     16  C   UNL     1      -4.372  11.588  18.637  0.00  0.00    +0.000 A 
ATOM     17  C   UNL     1      -3.035  11.798  18.227  0.00  0.00    +0.000 A 
ENDBRANCH   5   9
BRANCH   1  18
ATOM     18  C   UNL     1       1.539   7.133  20.627  0.00  0.00    +0.000 C 
BRANCH  18  21
ATOM     19  C   UNL     1       3.152   5.532  19.632  0.00  0.00    +0.000 C 
ATOM     20  O   UNL     1       2.277   4.683  19.482  0.00  0.00    +0.000 OA
ATOM     21  N   UNL     1       2.864   6.792  20.134  0.00  0.00    +0.000 N 
ATOM     22  H   UNL     1       3.604   7.487  20.225  0.00  0.00    +0.000 HD
BRANCH  19  23
ATOM     23  C   UNL     1       4.603   5.235  19.387  0.00  0.00    +0.000 C 
BRANCH  23  29
ATOM     24  C   UNL     1       7.607   6.074  18.748  0.00  0.00    +0.000 C 
ATOM     25  C   UNL     1       6.454   6.118  17.824  0.00  0.00    +0.000 A 
ATOM     26  N   UNL     1       6.485   6.613  16.599  0.00  0.00    +0.000 NA
ATOM     27  C   UNL     1       5.207   6.539  16.114  0.00  0.00    +0.000 A 
ATOM     28  C   UNL     1       4.363   5.989  17.028  0.00  0.00    +0.000 A 
ATOM     29  N   UNL     1       5.163   5.704  18.124  0.00  0.00    +0.000 N 
ENDBRANCH  23  29
ENDBRANCH  19  23
ENDBRANCH  18  21
ENDBRANCH   1  18
TORSDOF 5
ENDMDL
MODEL 4
REMARK VINA RESULT:      -7.5      3.676      4.971
REMARK  Name = 
REMARK  6 active torsions:
REMARK  status: ('A' for Active; 'I' for Inactive)
REMARK    1  A    between atoms: C_1  and  C_2
REMARK    2  A    between atoms: N_6  and  C_7
REMARK    3  A    between atoms: C_7  and  C_8
REMARK    4  A    between atoms: N_10  and  C_11
REMARK    5  A    between atoms: C_11  and  C_12
REMARK    6  A    between atoms: C_16  and  C_18
REMARK                            x       y       z     vdW  Elec       q    Type
REMARK                         _______ _______ _______ _____ _____    ______ ____
ROOT
ATOM      1  C   UNL     1       1.025   8.763  21.001  0.00  0.00    +0.000 C 
ATOM      2  C   UNL     1       1.192   9.066  19.502  0.00  0.00    +0.000 C 
ATOM      3  C   UNL     1       0.991  10.552  19.251  0.00  0.00    +0.000 C 
ATOM      4  N   UNL     1      -0.304  10.979  19.778  0.00  0.00    +0.000 N 
ATOM      5  C   UNL     1      -0.880  12.084  19.146  0.00  0.00    +0.000 C 
ATOM      6  O   UNL     1      -0.200  12.873  18.460  0.00  0.00    +0.000 OA
ATOM      7  C   UNL     1      -0.550  10.676  21.185  0.00  0.00    +0.000 C 
ATOM      8  C   UNL     1      -0.394   9.177  21.419  0.00  0.00    +0.000 C 
ENDROOT
BRANCH   5   9
ATOM      9  C   UNL     1      -2.339  12.299  19.225  0.00  0.00    +0.000 A 
ATOM     10  C   UNL     1      -2.900  12.954  20.311  0.00  0.00    +0.000 A 
ATOM     11  C   UNL     1      -4.263  13.213  20.336  0.00  0.00    +0.000 A 
ATOM     12  C   UNL     1      -5.051  12.252  19.716  0.00  0.00    +0.000 A 
ATOM     13  S   UNL     1      -6.657  11.751  20.068  0.00  0.00    +0.000 S 
ATOM     14  C   UNL     1      -6.538  10.585  18.819  0.00  0.00    +0.000 A 
ATOM     15  N   UNL     1      -5.453  10.632  18.076  0.00  0.00    +0.000 NA
ATOM     16  C   UNL     1      -4.547  11.510  18.648  0.00  0.00    +0.000 A 
ATOM     17  C   UNL     1      -3.196  11.702  18.276  0.00  0.00    +0.000 A 
ENDBRANCH   5   9
BRANCH   1  18
ATOM     18  C   UNL     1       1.323   7.305  21.352  0.00  0.00    +0.000 C 
BRANCH  18  21
ATOM     19  C   UNL     1       2.615   5.373  20.487  0.00  0.00    +0.000 C 
ATOM     20  O   UNL     1       2.225   4.652  21.401  0.00  0.00    +0.000 OA
ATOM     21  N   UNL     1       2.173   6.680  20.351  0.00  0.00    +0.000 N 
ATOM     22  H   UNL     1       2.493   7.250  19.569  0.00  0.00    +0.000 HD
BRANCH  19  23
ATOM     23  C   UNL     1       3.676   4.932  19.519  0.00  0.00    +0.000 C 
BRANCH  23  29
ATOM     24  C   UNL     1       1.403   4.220  17.406  0.00  0.00    +0.000 C 
ATOM     25  C   UNL     1       2.442   3.311  17.937  0.00  0.00    +0.000 A 
ATOM     26  N   UNL     1       2.521   2.018  17.678  0.00  0.00    +0.000 NA
ATOM     27  C   UNL     1       3.564   1.532  18.419  0.00  0.00    +0.000 A 
ATOM     28  C   UNL     1       4.155   2.519  19.145  0.00  0.00    +0.000 A 
ATOM     29  N   UNL     1       3.446   3.667  18.829  0.00  0.00    +0.000 N 
ENDBRANCH  23  29
ENDBRANCH  19  23
ENDBRANCH  18  21
ENDBRANCH   1  18
TORSDOF 5
ENDMDL
MODEL 5
REMARK VINA RESULT:      -7.5      6.312      9.889
REMARK  Name = 
REMARK  6 active torsions:
REMARK  status: ('A' for Active; 'I' for Inactive)
REMARK    1  A    between atoms: C_1  and  C_2
REMARK    2  A    between atoms: N_6  and  C_7
REMARK    3  A    between atoms: C_7  and  C_8
REMARK    4  A    between atoms: N_10  and  C_11
REMARK    5  A    between atoms: C_11  and  C_12
REMARK    6  A    between atoms: C_16  and  C_18
REMARK                            x       y       z     vdW  Elec       q    Type
REMARK                         _______ _______ _______ _____ _____    ______ ____
ROOT
ATOM      1  C   UNL     1       7.197   7.407  17.415  0.00  0.00    +0.000 C 
ATOM      2  C   UNL     1       7.727   6.067  16.875  0.00  0.00    +0.000 C 
ATOM      3  C   UNL     1       6.665   5.404  16.013  0.00  0.00    +0.000 C 
ATOM      4  N   UNL     1       5.422   5.261  16.770  0.00  0.00    +0.000 N 
ATOM      5  C   UNL     1       4.594   4.206  16.380  0.00  0.00    +0.000 C 
ATOM      6  O   UNL     1       4.701   3.670  15.259  0.00  0.00    +0.000 OA
ATOM      7  C   UNL     1       4.890   6.488  17.356  0.00  0.00    +0.000 C 
ATOM      8  C   UNL     1       5.944   7.122  18.257  0.00  0.00    +0.000 C 
ENDROOT
BRANCH   5   9
ATOM      9  C   UNL     1       3.608   3.654  17.332  0.00  0.00    +0.000 A 
ATOM     10  C   UNL     1       2.275   4.030  17.268  0.00  0.00    +0.000 A 
ATOM     11  C   UNL     1       1.349   3.448  18.121  0.00  0.00    +0.000 A 
ATOM     12  C   UNL     1       1.841   3.115  19.377  0.00  0.00    +0.000 A 
ATOM     13  S   UNL     1       1.038   3.066  20.897  0.00  0.00    +0.000 S 
ATOM     14  C   UNL     1       2.523   2.640  21.636  0.00  0.00    +0.000 A 
ATOM     15  N   UNL     1       3.532   2.399  20.827  0.00  0.00    +0.000 NA
ATOM     16  C   UNL     1       3.183   2.773  19.540  0.00  0.00    +0.000 A 
ATOM     17  C   UNL     1       4.038   2.859  18.417  0.00  0.00    +0.000 A 
ENDBRANCH   5   9
BRANCH   1  18
ATOM     18  C   UNL     1       8.249   8.190  18.202  0.00  0.00    +0.000 C 
BRANCH  18  21
ATOM     19  C   UNL     1       8.970  10.547  18.473  0.00  0.00    +0.000 C 
ATOM     20  O   UNL     1       9.517  10.299  19.545  0.00  0.00    +0.000 OA
ATOM     21  N   UNL     1       8.373   9.554  17.713  0.00  0.00    +0.000 N 
ATOM     22  H   UNL     1       7.948   9.783  16.816  0.00  0.00    +0.000 HD
BRANCH  19  23
ATOM     23  C   UNL     1       8.816  11.951  17.963  0.00  0.00    +0.000 C 
BRANCH  23  29
ATOM     24  C   UNL     1       9.147  15.115  18.084  0.00  0.00    +0.000 C 
ATOM     25  C   UNL     1      10.210  14.117  17.841  0.00  0.00    +0.000 A 
ATOM     26  N   UNL     1      11.464  14.405  17.537  0.00  0.00    +0.000 NA
ATOM     27  C   UNL     1      12.097  13.213  17.314  0.00  0.00    +0.000 A 
ATOM     28  C   UNL     1      11.248  12.163  17.484  0.00  0.00    +0.000 A 
ATOM     29  N   UNL     1      10.037  12.739  17.836  0.00  0.00    +0.000 N 
ENDBRANCH  23  29
ENDBRANCH  19  23
ENDBRANCH  18  21
ENDBRANCH   1  18
TORSDOF 5
ENDMDL
MODEL 6
REMARK VINA RESULT:      -7.4      3.610      4.765
REMARK  Name = 
REMARK  6 active torsions:
REMARK  status: ('A' for Active; 'I' for Inactive)
REMARK    1  A    between atoms: C_1  and  C_2
REMARK    2  A    between atoms: N_6  and  C_7
REMARK    3  A    between atoms: C_7  and  C_8
REMARK    4  A    between atoms: N_10  and  C_11
REMARK    5  A    between atoms: C_11  and  C_12
REMARK    6  A    between atoms: C_16  and  C_18
REMARK                            x       y       z     vdW  Elec       q    Type
REMARK                         _______ _______ _______ _____ _____    ______ ____
ROOT
ATOM      1  C   UNL     1       1.110   8.935  20.661  0.00  0.00    +0.000 C 
ATOM      2  C   UNL     1       1.200   9.358  19.184  0.00  0.00    +0.000 C 
ATOM      3  C   UNL     1       0.910  10.844  19.056  0.00  0.00    +0.000 C 
ATOM      4  N   UNL     1      -0.385  11.156  19.659  0.00  0.00    +0.000 N 
ATOM      5  C   UNL     1      -1.044  12.270  19.135  0.00  0.00    +0.000 C 
ATOM      6  O   UNL     1      -0.436  13.146  18.488  0.00  0.00    +0.000 OA
ATOM      7  C   UNL     1      -0.559  10.735  21.046  0.00  0.00    +0.000 C 
ATOM      8  C   UNL     1      -0.312   9.234  21.158  0.00  0.00    +0.000 C 
ENDROOT
BRANCH   5   9
ATOM      9  C   UNL     1      -2.509  12.395  19.281  0.00  0.00    +0.000 A 
ATOM     10  C   UNL     1      -3.061  12.958  20.422  0.00  0.00    +0.000 A 
ATOM     11  C   UNL     1      -4.434  13.135  20.514  0.00  0.00    +0.000 A 
ATOM     12  C   UNL     1      -5.192  12.163  19.872  0.00  0.00    +0.000 A 
ATOM     13  S   UNL     1      -6.751  11.550  20.257  0.00  0.00    +0.000 S 
ATOM     14  C   UNL     1      -6.618  10.461  18.942  0.00  0.00    +0.000 A 
ATOM     15  N   UNL     1      -5.569  10.611  18.162  0.00  0.00    +0.000 NA
ATOM     16  C   UNL     1      -4.691  11.509  18.746  0.00  0.00    +0.000 A 
ATOM     17  C   UNL     1      -3.370  11.800  18.334  0.00  0.00    +0.000 A 
ENDBRANCH   5   9
BRANCH   1  18
ATOM     18  C   UNL     1       1.500   7.474  20.887  0.00  0.00    +0.000 C 
BRANCH  18  21
ATOM     19  C   UNL     1       1.986   5.480  19.495  0.00  0.00    +0.000 C 
ATOM     20  O   UNL     1       1.481   4.728  20.324  0.00  0.00    +0.000 OA
ATOM     21  N   UNL     1       1.984   6.856  19.663  0.00  0.00    +0.000 N 
ATOM     22  H   UNL     1       2.388   7.460  18.948  0.00  0.00    +0.000 HD
BRANCH  19  23
ATOM     23  C   UNL     1       2.731   4.963  18.298  0.00  0.00    +0.000 C 
BRANCH  23  29
ATOM     24  C   UNL     1       4.416   2.689  19.755  0.00  0.00    +0.000 C 
ATOM     25  C   UNL     1       4.943   3.900  19.091  0.00  0.00    +0.000 A 
ATOM     26  N   UNL     1       6.211   4.271  19.089  0.00  0.00    +0.000 NA
ATOM     27  C   UNL     1       6.267   5.476  18.442  0.00  0.00    +0.000 A 
ATOM     28  C   UNL     1       5.033   5.869  18.024  0.00  0.00    +0.000 A 
ATOM     29  N   UNL     1       4.180   4.853  18.428  0.00  0.00    +0.000 N 
ENDBRANCH  23  29
ENDBRANCH  19  23
ENDBRANCH  18  21
ENDBRANCH   1  18
TORSDOF 5
ENDMDL
MODEL 7
REMARK VINA RESULT:      -7.4      2.243      3.309
REMARK  Name = 
REMARK  6 active torsions:
REMARK  status: ('A' for Active; 'I' for Inactive)
REMARK    1  A    between atoms: C_1  and  C_2
REMARK    2  A    between atoms: N_6  and  C_7
REMARK    3  A    between atoms: C_7  and  C_8
REMARK    4  A    between atoms: N_10  and  C_11
REMARK    5  A    between atoms: C_11  and  C_12
REMARK    6  A    between atoms: C_16  and  C_18
REMARK                            x       y       z     vdW  Elec       q    Type
REMARK                         _______ _______ _______ _____ _____    ______ ____
ROOT
ATOM      1  C   UNL     1       2.144   7.761  18.476  0.00  0.00    +0.000 C 
ATOM      2  C   UNL     1       2.051   7.871  20.007  0.00  0.00    +0.000 C 
ATOM      3  C   UNL     1       0.834   8.697  20.392  0.00  0.00    +0.000 C 
ATOM      4  N   UNL     1       0.884  10.000  19.729  0.00  0.00    +0.000 N 
ATOM      5  C   UNL     1       0.224  11.040  20.389  0.00  0.00    +0.000 C 
ATOM      6  O   UNL     1      -0.647  10.817  21.254  0.00  0.00    +0.000 OA
ATOM      7  C   UNL     1       1.024   9.970  18.277  0.00  0.00    +0.000 C 
ATOM      8  C   UNL     1       2.273   9.180  17.901  0.00  0.00    +0.000 C 
ENDROOT
BRANCH   5   9
ATOM      9  C   UNL     1       0.604  12.441  20.118  0.00  0.00    +0.000 A 
ATOM     10  C   UNL     1      -0.168  13.236  19.284  0.00  0.00    +0.000 A 
ATOM     11  C   UNL     1       0.161  14.570  19.097  0.00  0.00    +0.000 A 
ATOM     12  C   UNL     1       1.522  14.846  19.133  0.00  0.00    +0.000 A 
ATOM     13  S   UNL     1       2.422  16.059  18.310  0.00  0.00    +0.000 S 
ATOM     14  C   UNL     1       3.854  15.432  19.009  0.00  0.00    +0.000 A 
ATOM     15  N   UNL     1       3.700  14.482  19.908  0.00  0.00    +0.000 NA
ATOM     16  C   UNL     1       2.380  14.064  19.907  0.00  0.00    +0.000 A 
ATOM     17  C   UNL     1       1.841  12.942  20.578  0.00  0.00    +0.000 A 
ENDBRANCH   5   9
BRANCH   1  18
ATOM     18  C   UNL     1       3.280   6.849  18.011  0.00  0.00    +0.000 C 
BRANCH  18  21
ATOM     19  C   UNL     1       4.543   4.862  18.791  0.00  0.00    +0.000 C 
ATOM     20  O   UNL     1       5.438   5.061  17.974  0.00  0.00    +0.000 OA
ATOM     21  N   UNL     1       3.469   5.730  18.920  0.00  0.00    +0.000 N 
ATOM     22  H   UNL     1       2.753   5.555  19.623  0.00  0.00    +0.000 HD
BRANCH  19  23
ATOM     23  C   UNL     1       4.490   3.618  19.629  0.00  0.00    +0.000 C 
BRANCH  23  29
ATOM     24  C   UNL     1       2.387   2.212  17.696  0.00  0.00    +0.000 C 
ATOM     25  C   UNL     1       2.208   2.526  19.130  0.00  0.00    +0.000 A 
ATOM     26  N   UNL     1       1.087   2.352  19.808  0.00  0.00    +0.000 NA
ATOM     27  C   UNL     1       1.312   2.836  21.068  0.00  0.00    +0.000 A 
ATOM     28  C   UNL     1       2.579   3.313  21.195  0.00  0.00    +0.000 A 
ATOM     29  N   UNL     1       3.164   3.104  19.955  0.00  0.00    +0.000 N 
ENDBRANCH  23  29
ENDBRANCH  19  23
ENDBRANCH  18  21
ENDBRANCH   1  18
TORSDOF 5
ENDMDL
MODEL 8
REMARK VINA RESULT:      -7.4      2.764      3.325
REMARK  Name = 
REMARK  6 active torsions:
REMARK  status: ('A' for Active; 'I' for Inactive)
REMARK    1  A    between atoms: C_1  and  C_2
REMARK    2  A    between atoms: N_6  and  C_7
REMARK    3  A    between atoms: C_7  and  C_8
REMARK    4  A    between atoms: N_10  and  C_11
REMARK    5  A    between atoms: C_11  and  C_12
REMARK    6  A    between atoms: C_16  and  C_18
REMARK                            x       y       z     vdW  Elec       q    Type
REMARK                         _______ _______ _______ _____ _____    ______ ____
ROOT
ATOM      1  C   UNL     1       2.344   6.788  19.550  0.00  0.00    +0.000 C 
ATOM      2  C   UNL     1       2.052   7.459  18.197  0.00  0.00    +0.000 C 
ATOM      3  C   UNL     1       2.199   8.966  18.327  0.00  0.00    +0.000 C 
ATOM      4  N   UNL     1       1.343   9.462  19.404  0.00  0.00    +0.000 N 
ATOM      5  C   UNL     1       0.915  10.785  19.277  0.00  0.00    +0.000 C 
ATOM      6  O   UNL     1       1.503  11.594  18.531  0.00  0.00    +0.000 OA
ATOM      7  C   UNL     1       1.531   8.831  20.707  0.00  0.00    +0.000 C 
ATOM      8  C   UNL     1       1.335   7.324  20.577  0.00  0.00    +0.000 C 
ENDROOT
BRANCH   5   9
ATOM      9  C   UNL     1      -0.303  11.236  19.981  0.00  0.00    +0.000 A 
ATOM     10  C   UNL     1      -1.371  11.772  19.277  0.00  0.00    +0.000 A 
ATOM     11  C   UNL     1      -2.535  12.122  19.944  0.00  0.00    +0.000 A 
ATOM     12  C   UNL     1      -2.348  12.591  21.238  0.00  0.00    +0.000 A 
ATOM     13  S   UNL     1      -3.263  13.734  22.139  0.00  0.00    +0.000 S 
ATOM     14  C   UNL     1      -2.148  13.569  23.429  0.00  0.00    +0.000 A 
ATOM     15  N   UNL     1      -1.231  12.635  23.294  0.00  0.00    +0.000 NA
ATOM     16  C   UNL     1      -1.268  12.143  22.000  0.00  0.00    +0.000 A 
ATOM     17  C   UNL     1      -0.332  11.274  21.392  0.00  0.00    +0.000 A 
ENDBRANCH   5   9
BRANCH   1  18
ATOM     18  C   UNL     1       2.326   5.261  19.474  0.00  0.00    +0.000 C 
BRANCH  18  21
ATOM     19  C   UNL     1       3.975   3.828  18.299  0.00  0.00    +0.000 C 
ATOM     20  O   UNL     1       4.294   3.269  19.345  0.00  0.00    +0.000 OA
ATOM     21  N   UNL     1       2.968   4.781  18.261  0.00  0.00    +0.000 N 
ATOM     22  H   UNL     1       2.705   5.211  17.376  0.00  0.00    +0.000 HD
BRANCH  19  23
ATOM     23  C   UNL     1       4.717   3.601  17.014  0.00  0.00    +0.000 C 
BRANCH  23  29
ATOM     24  C   UNL     1       6.289   3.917  14.264  0.00  0.00    +0.000 C 
ATOM     25  C   UNL     1       6.456   4.735  15.484  0.00  0.00    +0.000 A 
ATOM     26  N   UNL     1       7.371   5.675  15.646  0.00  0.00    +0.000 NA
ATOM     27  C   UNL     1       7.243   6.130  16.930  0.00  0.00    +0.000 A 
ATOM     28  C   UNL     1       6.240   5.484  17.585  0.00  0.00    +0.000 A 
ATOM     29  N   UNL     1       5.723   4.595  16.655  0.00  0.00    +0.000 N 
ENDBRANCH  23  29
ENDBRANCH  19  23
ENDBRANCH  18  21
ENDBRANCH   1  18
TORSDOF 5
ENDMDL
MODEL 9
REMARK VINA RESULT:      -7.3      3.086      3.846
REMARK  Name = 
REMARK  6 active torsions:
REMARK  status: ('A' for Active; 'I' for Inactive)
REMARK    1  A    between atoms: C_1  and  C_2
REMARK    2  A    between atoms: N_6  and  C_7
REMARK    3  A    between atoms: C_7  and  C_8
REMARK    4  A    between atoms: N_10  and  C_11
REMARK    5  A    between atoms: C_11  and  C_12
REMARK    6  A    between atoms: C_16  and  C_18
REMARK                            x       y       z     vdW  Elec       q    Type
REMARK                         _______ _______ _______ _____ _____    ______ ____
ROOT
ATOM      1  C   UNL     1       1.893   8.109  19.996  0.00  0.00    +0.000 C 
ATOM      2  C   UNL     1       1.353   8.830  18.749  0.00  0.00    +0.000 C 
ATOM      3  C   UNL     1       1.420  10.335  18.955  0.00  0.00    +0.000 C 
ATOM      4  N   UNL     1       0.711  10.706  20.178  0.00  0.00    +0.000 N 
ATOM      5  C   UNL     1       0.183  11.999  20.204  0.00  0.00    +0.000 C 
ATOM      6  O   UNL     1       0.595  12.889  19.433  0.00  0.00    +0.000 OA
ATOM      7  C   UNL     1       1.138  10.020  21.394  0.00  0.00    +0.000 C 
ATOM      8  C   UNL     1       1.022   8.512  21.196  0.00  0.00    +0.000 C 
ENDROOT
BRANCH   5   9
ATOM      9  C   UNL     1      -0.938  12.318  21.111  0.00  0.00    +0.000 A 
ATOM     10  C   UNL     1      -2.242  12.350  20.641  0.00  0.00    +0.000 A 
ATOM     11  C   UNL     1      -3.291  12.580  21.520  0.00  0.00    +0.000 A 
ATOM     12  C   UNL     1      -2.991  13.430  22.577  0.00  0.00    +0.000 A 
ATOM     13  S   UNL     1      -4.006  14.522  23.434  0.00  0.00    +0.000 S 
ATOM     14  C   UNL     1      -2.650  15.013  24.358  0.00  0.00    +0.000 A 
ATOM     15  N   UNL     1      -1.538  14.334  24.173  0.00  0.00    +0.000 NA
ATOM     16  C   UNL     1      -1.691  13.499  23.079  0.00  0.00    +0.000 A 
ATOM     17  C   UNL     1      -0.681  12.751  22.430  0.00  0.00    +0.000 A 
ENDBRANCH   5   9
BRANCH   1  18
ATOM     18  C   UNL     1       1.963   6.591  19.823  0.00  0.00    +0.000 C 
BRANCH  18  21
ATOM     19  C   UNL     1       4.059   6.004  18.634  0.00  0.00    +0.000 C 
ATOM     20  O   UNL     1       3.606   6.394  17.561  0.00  0.00    +0.000 OA
ATOM     21  N   UNL     1       3.339   6.120  19.813  0.00  0.00    +0.000 N 
ATOM     22  H   UNL     1       3.747   5.811  20.694  0.00  0.00    +0.000 HD
BRANCH  19  23
ATOM     23  C   UNL     1       5.371   5.280  18.731  0.00  0.00    +0.000 C 
BRANCH  23  29
ATOM     24  C   UNL     1       7.516   7.342  17.600  0.00  0.00    +0.000 C 
ATOM     25  C   UNL     1       7.068   6.085  16.964  0.00  0.00    +0.000 A 
ATOM     26  N   UNL     1       7.431   5.674  15.762  0.00  0.00    +0.000 NA
ATOM     27  C   UNL     1       6.739   4.519  15.517  0.00  0.00    +0.000 A 
ATOM     28  C   UNL     1       5.941   4.189  16.569  0.00  0.00    +0.000 A 
ATOM     29  N   UNL     1       6.158   5.187  17.507  0.00  0.00    +0.000 N 
ENDBRANCH  23  29
ENDBRANCH  19  23
ENDBRANCH  18  21
ENDBRANCH   1  18
TORSDOF 5
ENDMDL
