MODEL 1
REMARK VINA RESULT:      -7.5      0.000      0.000
REMARK  Name = 
REMARK  4 active torsions:
REMARK  status: ('A' for Active; 'I' for Inactive)
REMARK    1  A    between atoms: N_9  and  C_10
REMARK    2  A    between atoms: C_10  and  C_11
REMARK    3  A    between atoms: N_20  and  C_21
REMARK    4  A    between atoms: C_21  and  C_22
REMARK                            x       y       z     vdW  Elec       q    Type
REMARK                         _______ _______ _______ _____ _____    ______ ____
ROOT
ATOM      1  O   UNL     1      -3.831  12.458  20.345  0.00  0.00    +0.000 OA
ATOM      2  C   UNL     1      -2.769  12.235  19.779  0.00  0.00    +0.000 C 
ATOM      3  C   UNL     1      -2.749  11.506  18.483  0.00  0.00    +0.000 A 
ATOM      4  C   UNL     1      -3.965  11.377  17.790  0.00  0.00    +0.000 A 
ATOM      5  C   UNL     1      -4.030  10.635  16.615  0.00  0.00    +0.000 A 
ATOM      6  C   UNL     1      -2.888   9.996  16.145  0.00  0.00    +0.000 A 
ATOM      7  C   UNL     1      -1.677  10.111  16.837  0.00  0.00    +0.000 A 
ATOM      8  C   UNL     1      -1.575  10.904  17.990  0.00  0.00    +0.000 A 
ATOM      9  N   UNL     1      -0.331  11.028  18.734  0.00  0.00    +0.000 N 
ATOM     10  S   UNL     1      -0.159  12.563  19.429  0.00  0.00    +0.000 S 
ATOM     11  O   UNL     1      -0.367  13.541  18.384  0.00  0.00    +0.000 OA
ATOM     12  O   UNL     1       1.028  12.591  20.248  0.00  0.00    +0.000 OA
ATOM     13  N   UNL     1      -1.526  12.509  20.399  0.00  0.00    +0.000 N 
ENDROOT
BRANCH   9  14
ATOM     14  C   UNL     1       0.937  10.440  18.222  0.00  0.00    +0.000 C 
BRANCH  14  15
ATOM     15  C   UNL     1       1.343   9.181  18.968  0.00  0.00    +0.000 A 
ATOM     16  C   UNL     1       2.120   8.199  18.335  0.00  0.00    +0.000 A 
ATOM     17  C   UNL     1       2.469   7.026  19.009  0.00  0.00    +0.000 A 
ATOM     18  C   UNL     1       2.063   6.828  20.328  0.00  0.00    +0.000 A 
ATOM     19  C   UNL     1       1.341   7.820  20.987  0.00  0.00    +0.000 A 
ATOM     20  C   UNL     1       0.996   8.994  20.316  0.00  0.00    +0.000 A 
ENDBRANCH  14  15
ENDBRANCH   9  14
BRANCH  13  21
ATOM     21  C   UNL     1      -1.324  12.037  21.796  0.00  0.00    +0.000 C 
BRANCH  21  22
ATOM     22  C   UNL     1      -1.990  12.837  22.899  0.00  0.00    +0.000 A 
ATOM     23  C   UNL     1      -3.172  12.409  23.525  0.00  0.00    +0.000 A 
ATOM     24  C   UNL     1      -3.773  13.176  24.530  0.00  0.00    +0.000 A 
ATOM     25  C   UNL     1      -3.212  14.388  24.920  0.00  0.00    +0.000 A 
ATOM     26  C   UNL     1      -2.046  14.836  24.307  0.00  0.00    +0.000 A 
ATOM     27  C   UNL     1      -1.440  14.068  23.307  0.00  0.00    +0.000 A 
ATOM     28 CL   UNL     1       0.005  14.700  22.593  0.00  0.00    +0.000 Cl
ENDBRANCH  21  22
ENDBRANCH  13  21
TORSDOF 4
ENDMDL
MODEL 2
REMARK VINA RESULT:      -7.5      1.016      1.452
REMARK  Name = 
REMARK  4 active torsions:
REMARK  status: ('A' for Active; 'I' for Inactive)
REMARK    1  A    between atoms: N_9  and  C_10
REMARK    2  A    between atoms: C_10  and  C_11
REMARK    3  A    between atoms: N_20  and  C_21
REMARK    4  A    between atoms: C_21  and  C_22
REMARK                            x       y       z     vdW  Elec       q    Type
REMARK                         _______ _______ _______ _____ _____    ______ ____
ROOT
ATOM      1  O   UNL     1      -3.573  12.823  20.479  0.00  0.00    +0.000 OA
ATOM      2  C   UNL     1      -2.554  12.524  19.870  0.00  0.00    +0.000 C 
ATOM      3  C   UNL     1      -2.628  11.637  18.678  0.00  0.00    +0.000 A 
ATOM      4  C   UNL     1      -3.890  11.431  18.097  0.00  0.00    +0.000 A 
ATOM      5  C   UNL     1      -4.039  10.547  17.032  0.00  0.00    +0.000 A 
ATOM      6  C   UNL     1      -2.932   9.847  16.565  0.00  0.00    +0.000 A 
ATOM      7  C   UNL     1      -1.674  10.040  17.147  0.00  0.00    +0.000 A 
ATOM      8  C   UNL     1      -1.490  10.971  18.180  0.00  0.00    +0.000 A 
ATOM      9  N   UNL     1      -0.196  11.179  18.810  0.00  0.00    +0.000 N 
ATOM     10  S   UNL     1       0.022  12.789  19.292  0.00  0.00    +0.000 S 
ATOM     11  O   UNL     1      -0.265  13.629  18.150  0.00  0.00    +0.000 OA
ATOM     12  O   UNL     1       1.266  12.912  20.012  0.00  0.00    +0.000 OA
ATOM     13  N   UNL     1      -1.270  12.865  20.358  0.00  0.00    +0.000 N 
ENDROOT
BRANCH   9  14
ATOM     14  C   UNL     1       1.033  10.524  18.285  0.00  0.00    +0.000 C 
BRANCH  14  15
ATOM     15  C   UNL     1       1.380   9.246  19.030  0.00  0.00    +0.000 A 
ATOM     16  C   UNL     1       2.152   8.251  18.412  0.00  0.00    +0.000 A 
ATOM     17  C   UNL     1       2.447   7.062  19.084  0.00  0.00    +0.000 A 
ATOM     18  C   UNL     1       1.990   6.860  20.386  0.00  0.00    +0.000 A 
ATOM     19  C   UNL     1       1.272   7.864  21.031  0.00  0.00    +0.000 A 
ATOM     20  C   UNL     1       0.981   9.054  20.363  0.00  0.00    +0.000 A 
ENDBRANCH  14  15
ENDBRANCH   9  14
BRANCH  13  21
ATOM     21  C   UNL     1      -0.965  12.572  21.785  0.00  0.00    +0.000 C 
BRANCH  21  22
ATOM     22  C   UNL     1      -1.213  13.682  22.788  0.00  0.00    +0.000 A 
ATOM     23  C   UNL     1      -0.405  14.830  22.849  0.00  0.00    +0.000 A 
ATOM     24  C   UNL     1      -0.648  15.832  23.795  0.00  0.00    +0.000 A 
ATOM     25  C   UNL     1      -1.695  15.703  24.704  0.00  0.00    +0.000 A 
ATOM     26  C   UNL     1      -2.502  14.570  24.666  0.00  0.00    +0.000 A 
ATOM     27  C   UNL     1      -2.266  13.570  23.717  0.00  0.00    +0.000 A 
ATOM     28 CL   UNL     1      -3.314  12.193  23.743  0.00  0.00    +0.000 Cl
ENDBRANCH  21  22
ENDBRANCH  13  21
TORSDOF 4
ENDMDL
MODEL 3
REMARK VINA RESULT:      -7.4      1.078      1.720
REMARK  Name = 
REMARK  4 active torsions:
REMARK  status: ('A' for Active; 'I' for Inactive)
REMARK    1  A    between atoms: N_9  and  C_10
REMARK    2  A    between atoms: C_10  and  C_11
REMARK    3  A    between atoms: N_20  and  C_21
REMARK    4  A    between atoms: C_21  and  C_22
REMARK                            x       y       z     vdW  Elec       q    Type
REMARK                         _______ _______ _______ _____ _____    ______ ____
ROOT
ATOM      1  O   UNL     1      -4.011  12.650  20.497  0.00  0.00    +0.000 OA
ATOM      2  C   UNL     1      -2.920  12.478  19.969  0.00  0.00    +0.000 C 
ATOM      3  C   UNL     1      -2.809  11.669  18.726  0.00  0.00    +0.000 A 
ATOM      4  C   UNL     1      -3.992  11.397  18.019  0.00  0.00    +0.000 A 
ATOM      5  C   UNL     1      -3.968  10.576  16.895  0.00  0.00    +0.000 A 
ATOM      6  C   UNL     1      -2.766  10.002  16.493  0.00  0.00    +0.000 A 
ATOM      7  C   UNL     1      -1.587  10.261  17.200  0.00  0.00    +0.000 A 
ATOM      8  C   UNL     1      -1.578  11.134  18.298  0.00  0.00    +0.000 A 
ATOM      9  N   UNL     1      -0.367  11.407  19.058  0.00  0.00    +0.000 N 
ATOM     10  S   UNL     1      -0.337  12.995  19.650  0.00  0.00    +0.000 S 
ATOM     11  O   UNL     1      -0.596  13.881  18.537  0.00  0.00    +0.000 OA
ATOM     12  O   UNL     1       0.824  13.173  20.489  0.00  0.00    +0.000 OA
ATOM     13  N   UNL     1      -1.719  12.893  20.593  0.00  0.00    +0.000 N 
ENDROOT
BRANCH   9  14
ATOM     14  C   UNL     1       0.956  10.893  18.612  0.00  0.00    +0.000 C 
BRANCH  14  15
ATOM     15  C   UNL     1       1.290   9.537  19.210  0.00  0.00    +0.000 A 
ATOM     16  C   UNL     1       0.893   9.221  20.518  0.00  0.00    +0.000 A 
ATOM     17  C   UNL     1       1.226   7.986  21.082  0.00  0.00    +0.000 A 
ATOM     18  C   UNL     1       1.942   7.047  20.342  0.00  0.00    +0.000 A 
ATOM     19  C   UNL     1       2.292   7.326  19.023  0.00  0.00    +0.000 A 
ATOM     20  C   UNL     1       1.956   8.556  18.457  0.00  0.00    +0.000 A 
ENDBRANCH  14  15
ENDBRANCH   9  14
BRANCH  13  21
ATOM     21  C   UNL     1      -1.516  12.532  22.023  0.00  0.00    +0.000 C 
BRANCH  21  22
ATOM     22  C   UNL     1      -1.684  13.639  23.046  0.00  0.00    +0.000 A 
ATOM     23  C   UNL     1      -0.776  14.705  23.152  0.00  0.00    +0.000 A 
ATOM     24  C   UNL     1      -0.949  15.704  24.117  0.00  0.00    +0.000 A 
ATOM     25  C   UNL     1      -2.024  15.653  24.999  0.00  0.00    +0.000 A 
ATOM     26  C   UNL     1      -2.932  14.601  24.916  0.00  0.00    +0.000 A 
ATOM     27  C   UNL     1      -2.765  13.604  23.949  0.00  0.00    +0.000 A 
ATOM     28 CL   UNL     1      -3.936  12.330  23.919  0.00  0.00    +0.000 Cl
ENDBRANCH  21  22
ENDBRANCH  13  21
TORSDOF 4
ENDMDL
MODEL 4
REMARK VINA RESULT:      -7.3      4.595      7.619
REMARK  Name = 
REMARK  4 active torsions:
REMARK  status: ('A' for Active; 'I' for Inactive)
REMARK    1  A    between atoms: N_9  and  C_10
REMARK    2  A    between atoms: C_10  and  C_11
REMARK    3  A    between atoms: N_20  and  C_21
REMARK    4  A    between atoms: C_21  and  C_22
REMARK                            x       y       z     vdW  Elec       q    Type
REMARK                         _______ _______ _______ _____ _____    ______ ____
ROOT
ATOM      1  O   UNL     1       0.938   6.105  21.343  0.00  0.00    +0.000 OA
ATOM      2  C   UNL     1       1.651   5.777  20.405  0.00  0.00    +0.000 C 
ATOM      3  C   UNL     1       2.414   4.500  20.455  0.00  0.00    +0.000 A 
ATOM      4  C   UNL     1       2.044   3.560  21.432  0.00  0.00    +0.000 A 
ATOM      5  C   UNL     1       2.771   2.383  21.586  0.00  0.00    +0.000 A 
ATOM      6  C   UNL     1       3.885   2.157  20.785  0.00  0.00    +0.000 A 
ATOM      7  C   UNL     1       4.264   3.095  19.818  0.00  0.00    +0.000 A 
ATOM      8  C   UNL     1       3.510   4.259  19.604  0.00  0.00    +0.000 A 
ATOM      9  N   UNL     1       3.892   5.255  18.615  0.00  0.00    +0.000 N 
ATOM     10  S   UNL     1       2.542   6.003  17.916  0.00  0.00    +0.000 S 
ATOM     11  O   UNL     1       1.659   4.957  17.448  0.00  0.00    +0.000 OA
ATOM     12  O   UNL     1       2.979   7.057  17.034  0.00  0.00    +0.000 OA
ATOM     13  N   UNL     1       1.909   6.654  19.324  0.00  0.00    +0.000 N 
ENDROOT
BRANCH   9  14
ATOM     14  C   UNL     1       5.019   5.015  17.673  0.00  0.00    +0.000 C 
BRANCH  14  15
ATOM     15  C   UNL     1       6.211   5.917  17.943  0.00  0.00    +0.000 A 
ATOM     16  C   UNL     1       7.144   5.583  18.936  0.00  0.00    +0.000 A 
ATOM     17  C   UNL     1       8.225   6.426  19.208  0.00  0.00    +0.000 A 
ATOM     18  C   UNL     1       8.397   7.602  18.479  0.00  0.00    +0.000 A 
ATOM     19  C   UNL     1       7.510   7.917  17.452  0.00  0.00    +0.000 A 
ATOM     20  C   UNL     1       6.434   7.073  17.177  0.00  0.00    +0.000 A 
ENDBRANCH  14  15
ENDBRANCH   9  14
BRANCH  13  21
ATOM     21  C   UNL     1       2.310   8.052  19.642  0.00  0.00    +0.000 C 
BRANCH  21  22
ATOM     22  C   UNL     1       1.223   9.109  19.600  0.00  0.00    +0.000 A 
ATOM     23  C   UNL     1       0.684   9.582  18.392  0.00  0.00    +0.000 A 
ATOM     24  C   UNL     1      -0.307  10.570  18.384  0.00  0.00    +0.000 A 
ATOM     25  C   UNL     1      -0.772  11.111  19.579  0.00  0.00    +0.000 A 
ATOM     26  C   UNL     1      -0.246  10.662  20.787  0.00  0.00    +0.000 A 
ATOM     27  C   UNL     1       0.740   9.671  20.799  0.00  0.00    +0.000 A 
ATOM     28 CL   UNL     1       1.343   9.174  22.344  0.00  0.00    +0.000 Cl
ENDBRANCH  21  22
ENDBRANCH  13  21
TORSDOF 4
ENDMDL
MODEL 5
REMARK VINA RESULT:      -7.1      2.430      6.265
REMARK  Name = 
REMARK  4 active torsions:
REMARK  status: ('A' for Active; 'I' for Inactive)
REMARK    1  A    between atoms: N_9  and  C_10
REMARK    2  A    between atoms: C_10  and  C_11
REMARK    3  A    between atoms: N_20  and  C_21
REMARK    4  A    between atoms: C_21  and  C_22
REMARK                            x       y       z     vdW  Elec       q    Type
REMARK                         _______ _______ _______ _____ _____    ______ ____
ROOT
ATOM      1  O   UNL     1      -0.107   9.949  18.423  0.00  0.00    +0.000 OA
ATOM      2  C   UNL     1      -0.054  10.739  19.356  0.00  0.00    +0.000 C 
ATOM      3  C   UNL     1      -0.139  10.248  20.758  0.00  0.00    +0.000 A 
ATOM      4  C   UNL     1       0.045   8.872  20.978  0.00  0.00    +0.000 A 
ATOM      5  C   UNL     1      -0.105   8.338  22.254  0.00  0.00    +0.000 A 
ATOM      6  C   UNL     1      -0.468   9.170  23.307  0.00  0.00    +0.000 A 
ATOM      7  C   UNL     1      -0.664  10.539  23.091  0.00  0.00    +0.000 A 
ATOM      8  C   UNL     1      -0.458  11.110  21.826  0.00  0.00    +0.000 A 
ATOM      9  N   UNL     1      -0.669  12.527  21.574  0.00  0.00    +0.000 N 
ATOM     10  S   UNL     1       0.405  13.130  20.411  0.00  0.00    +0.000 S 
ATOM     11  O   UNL     1       1.742  12.755  20.815  0.00  0.00    +0.000 OA
ATOM     12  O   UNL     1       0.075  14.503  20.117  0.00  0.00    +0.000 OA
ATOM     13  N   UNL     1      -0.076  12.139  19.148  0.00  0.00    +0.000 N 
ENDROOT
BRANCH   9  14
ATOM     14  C   UNL     1      -0.967  13.472  22.685  0.00  0.00    +0.000 C 
BRANCH  14  15
ATOM     15  C   UNL     1      -2.450  13.767  22.822  0.00  0.00    +0.000 A 
ATOM     16  C   UNL     1      -3.311  12.826  23.407  0.00  0.00    +0.000 A 
ATOM     17  C   UNL     1      -4.682  13.083  23.507  0.00  0.00    +0.000 A 
ATOM     18  C   UNL     1      -5.205  14.288  23.040  0.00  0.00    +0.000 A 
ATOM     19  C   UNL     1      -4.353  15.254  22.509  0.00  0.00    +0.000 A 
ATOM     20  C   UNL     1      -2.984  15.001  22.414  0.00  0.00    +0.000 A 
ENDBRANCH  14  15
ENDBRANCH   9  14
BRANCH  13  21
ATOM     21  C   UNL     1      -1.113  12.692  18.235  0.00  0.00    +0.000 C 
BRANCH  21  22
ATOM     22  C   UNL     1      -2.547  12.258  18.473  0.00  0.00    +0.000 A 
ATOM     23  C   UNL     1      -3.257  12.624  19.628  0.00  0.00    +0.000 A 
ATOM     24  C   UNL     1      -4.575  12.195  19.829  0.00  0.00    +0.000 A 
ATOM     25  C   UNL     1      -5.203  11.386  18.887  0.00  0.00    +0.000 A 
ATOM     26  C   UNL     1      -4.514  11.005  17.739  0.00  0.00    +0.000 A 
ATOM     27  C   UNL     1      -3.200  11.437  17.533  0.00  0.00    +0.000 A 
ATOM     28 CL   UNL     1      -2.415  10.913  16.081  0.00  0.00    +0.000 Cl
ENDBRANCH  21  22
ENDBRANCH  13  21
TORSDOF 4
ENDMDL
MODEL 6
REMARK VINA RESULT:      -7.0      2.628      7.039
REMARK  Name = 
REMARK  4 active torsions:
REMARK  status: ('A' for Active; 'I' for Inactive)
REMARK    1  A    between atoms: N_9  and  C_10
REMARK    2  A    between atoms: C_10  and  C_11
REMARK    3  A    between atoms: N_20  and  C_21
REMARK    4  A    between atoms: C_21  and  C_22
REMARK                            x       y       z     vdW  Elec       q    Type
REMARK                         _______ _______ _______ _____ _____    ______ ____
ROOT
ATOM      1  O   UNL     1       0.887   8.580  22.029  0.00  0.00    +0.000 OA
ATOM      2  C   UNL     1       0.636   9.495  21.256  0.00  0.00    +0.000 C 
ATOM      3  C   UNL     1      -0.355  10.540  21.628  0.00  0.00    +0.000 A 
ATOM      4  C   UNL     1      -0.733  10.625  22.979  0.00  0.00    +0.000 A 
ATOM      5  C   UNL     1      -1.718  11.525  23.378  0.00  0.00    +0.000 A 
ATOM      6  C   UNL     1      -2.346  12.320  22.425  0.00  0.00    +0.000 A 
ATOM      7  C   UNL     1      -1.981  12.230  21.077  0.00  0.00    +0.000 A 
ATOM      8  C   UNL     1      -0.949  11.375  20.661  0.00  0.00    +0.000 A 
ATOM      9  N   UNL     1      -0.562  11.254  19.264  0.00  0.00    +0.000 N 
ATOM     10  S   UNL     1       1.097  10.959  19.091  0.00  0.00    +0.000 S 
ATOM     11  O   UNL     1       1.802  11.965  19.855  0.00  0.00    +0.000 OA
ATOM     12  O   UNL     1       1.403  10.732  17.699  0.00  0.00    +0.000 OA
ATOM     13  N   UNL     1       1.142   9.510  19.933  0.00  0.00    +0.000 N 
ENDROOT
BRANCH   9  14
ATOM     14  C   UNL     1      -1.139  12.148  18.224  0.00  0.00    +0.000 C 
BRANCH  14  15
ATOM     15  C   UNL     1      -2.240  11.478  17.420  0.00  0.00    +0.000 A 
ATOM     16  C   UNL     1      -1.927  10.502  16.462  0.00  0.00    +0.000 A 
ATOM     17  C   UNL     1      -2.935   9.905  15.700  0.00  0.00    +0.000 A 
ATOM     18  C   UNL     1      -4.268  10.264  15.897  0.00  0.00    +0.000 A 
ATOM     19  C   UNL     1      -4.597  11.190  16.884  0.00  0.00    +0.000 A 
ATOM     20  C   UNL     1      -3.592  11.781  17.650  0.00  0.00    +0.000 A 
ENDBRANCH  14  15
ENDBRANCH   9  14
BRANCH  13  21
ATOM     21  C   UNL     1       1.005   8.271  19.120  0.00  0.00    +0.000 C 
BRANCH  21  22
ATOM     22  C   UNL     1       2.280   7.518  18.788  0.00  0.00    +0.000 A 
ATOM     23  C   UNL     1       3.142   7.925  17.757  0.00  0.00    +0.000 A 
ATOM     24  C   UNL     1       4.303   7.202  17.462  0.00  0.00    +0.000 A 
ATOM     25  C   UNL     1       4.621   6.055  18.184  0.00  0.00    +0.000 A 
ATOM     26  C   UNL     1       3.776   5.630  19.205  0.00  0.00    +0.000 A 
ATOM     27  C   UNL     1       2.617   6.354  19.506  0.00  0.00    +0.000 A 
ATOM     28 CL   UNL     1       1.620   5.753  20.787  0.00  0.00    +0.000 Cl
ENDBRANCH  21  22
ENDBRANCH  13  21
TORSDOF 4
ENDMDL
MODEL 7
REMARK VINA RESULT:      -6.9      8.597     10.155
REMARK  Name = 
REMARK  4 active torsions:
REMARK  status: ('A' for Active; 'I' for Inactive)
REMARK    1  A    between atoms: N_9  and  C_10
REMARK    2  A    between atoms: C_10  and  C_11
REMARK    3  A    between atoms: N_20  and  C_21
REMARK    4  A    between atoms: C_21  and  C_22
REMARK                            x       y       z     vdW  Elec       q    Type
REMARK                         _______ _______ _______ _____ _____    ______ ____
ROOT
ATOM      1  O   UNL     1       5.525  15.752  22.796  0.00  0.00    +0.000 OA
ATOM      2  C   UNL     1       5.994  15.937  21.680  0.00  0.00    +0.000 C 
ATOM      3  C   UNL     1       5.274  15.446  20.475  0.00  0.00    +0.000 A 
ATOM      4  C   UNL     1       3.929  15.070  20.628  0.00  0.00    +0.000 A 
ATOM      5  C   UNL     1       3.225  14.523  19.559  0.00  0.00    +0.000 A 
ATOM      6  C   UNL     1       3.872  14.325  18.344  0.00  0.00    +0.000 A 
ATOM      7  C   UNL     1       5.215  14.686  18.189  0.00  0.00    +0.000 A 
ATOM      8  C   UNL     1       5.925  15.295  19.234  0.00  0.00    +0.000 A 
ATOM      9  N   UNL     1       7.326  15.667  19.102  0.00  0.00    +0.000 N 
ATOM     10  S   UNL     1       7.695  17.065  19.985  0.00  0.00    +0.000 S 
ATOM     11  O   UNL     1       6.736  18.082  19.614  0.00  0.00    +0.000 OA
ATOM     12  O   UNL     1       9.113  17.319  19.913  0.00  0.00    +0.000 OA
ATOM     13  N   UNL     1       7.293  16.469  21.499  0.00  0.00    +0.000 N 
ENDROOT
BRANCH   9  14
ATOM     14  C   UNL     1       8.032  15.560  17.797  0.00  0.00    +0.000 C 
BRANCH  14  15
ATOM     15  C   UNL     1       8.996  14.387  17.746  0.00  0.00    +0.000 A 
ATOM     16  C   UNL     1      10.378  14.607  17.648  0.00  0.00    +0.000 A 
ATOM     17  C   UNL     1      11.265  13.530  17.570  0.00  0.00    +0.000 A 
ATOM     18  C   UNL     1      10.784  12.222  17.608  0.00  0.00    +0.000 A 
ATOM     19  C   UNL     1       9.420  11.990  17.763  0.00  0.00    +0.000 A 
ATOM     20  C   UNL     1       8.534  13.065  17.846  0.00  0.00    +0.000 A 
ENDBRANCH  14  15
ENDBRANCH   9  14
BRANCH  13  21
ATOM     21  C   UNL     1       8.406  15.876  22.291  0.00  0.00    +0.000 C 
BRANCH  21  22
ATOM     22  C   UNL     1       8.804  14.450  21.962  0.00  0.00    +0.000 A 
ATOM     23  C   UNL     1       7.959  13.358  22.222  0.00  0.00    +0.000 A 
ATOM     24  C   UNL     1       8.360  12.051  21.923  0.00  0.00    +0.000 A 
ATOM     25  C   UNL     1       9.614  11.808  21.369  0.00  0.00    +0.000 A 
ATOM     26  C   UNL     1      10.470  12.875  21.111  0.00  0.00    +0.000 A 
ATOM     27  C   UNL     1      10.069  14.183  21.403  0.00  0.00    +0.000 A 
ATOM     28 CL   UNL     1      11.197  15.450  21.056  0.00  0.00    +0.000 Cl
ENDBRANCH  21  22
ENDBRANCH  13  21
TORSDOF 4
ENDMDL
MODEL 8
REMARK VINA RESULT:      -6.9      4.637      7.494
REMARK  Name = 
REMARK  4 active torsions:
REMARK  status: ('A' for Active; 'I' for Inactive)
REMARK    1  A    between atoms: N_9  and  C_10
REMARK    2  A    between atoms: C_10  and  C_11
REMARK    3  A    between atoms: N_20  and  C_21
REMARK    4  A    between atoms: C_21  and  C_22
REMARK                            x       y       z     vdW  Elec       q    Type
REMARK                         _______ _______ _______ _____ _____    ______ ____
ROOT
ATOM      1  O   UNL     1       0.978   6.122  21.446  0.00  0.00    +0.000 OA
ATOM      2  C   UNL     1       1.664   5.821  20.478  0.00  0.00    +0.000 C 
ATOM      3  C   UNL     1       2.405   4.531  20.457  0.00  0.00    +0.000 A 
ATOM      4  C   UNL     1       2.041   3.557  21.402  0.00  0.00    +0.000 A 
ATOM      5  C   UNL     1       2.751   2.363  21.489  0.00  0.00    +0.000 A 
ATOM      6  C   UNL     1       3.842   2.152  20.653  0.00  0.00    +0.000 A 
ATOM      7  C   UNL     1       4.216   3.124  19.719  0.00  0.00    +0.000 A 
ATOM      8  C   UNL     1       3.478   4.308  19.571  0.00  0.00    +0.000 A 
ATOM      9  N   UNL     1       3.855   5.339  18.617  0.00  0.00    +0.000 N 
ATOM     10  S   UNL     1       2.502   6.138  17.981  0.00  0.00    +0.000 S 
ATOM     11  O   UNL     1       1.591   5.128  17.489  0.00  0.00    +0.000 OA
ATOM     12  O   UNL     1       2.938   7.222  17.134  0.00  0.00    +0.000 OA
ATOM     13  N   UNL     1       1.913   6.740  19.430  0.00  0.00    +0.000 N 
ENDROOT
BRANCH   9  14
ATOM     14  C   UNL     1       4.955   5.121  17.639  0.00  0.00    +0.000 C 
BRANCH  14  15
ATOM     15  C   UNL     1       6.175   5.980  17.928  0.00  0.00    +0.000 A 
ATOM     16  C   UNL     1       7.089   5.605  18.924  0.00  0.00    +0.000 A 
ATOM     17  C   UNL     1       8.195   6.409  19.212  0.00  0.00    +0.000 A 
ATOM     18  C   UNL     1       8.410   7.586  18.498  0.00  0.00    +0.000 A 
ATOM     19  C   UNL     1       7.543   7.941  17.468  0.00  0.00    +0.000 A 
ATOM     20  C   UNL     1       6.441   7.136  17.175  0.00  0.00    +0.000 A 
ENDBRANCH  14  15
ENDBRANCH   9  14
BRANCH  13  21
ATOM     21  C   UNL     1       2.345   8.116  19.796  0.00  0.00    +0.000 C 
BRANCH  21  22
ATOM     22  C   UNL     1       1.292   9.039  20.379  0.00  0.00    +0.000 A 
ATOM     23  C   UNL     1       1.125   9.203  21.764  0.00  0.00    +0.000 A 
ATOM     24  C   UNL     1       0.134  10.050  22.274  0.00  0.00    +0.000 A 
ATOM     25  C   UNL     1      -0.713  10.741  21.412  0.00  0.00    +0.000 A 
ATOM     26  C   UNL     1      -0.569  10.587  20.036  0.00  0.00    +0.000 A 
ATOM     27  C   UNL     1       0.424   9.745  19.524  0.00  0.00    +0.000 A 
ATOM     28 CL   UNL     1       0.530   9.608  17.802  0.00  0.00    +0.000 Cl
ENDBRANCH  21  22
ENDBRANCH  13  21
TORSDOF 4
ENDMDL
MODEL 9
REMARK VINA RESULT:      -6.9      9.132     10.543
REMARK  Name = 
REMARK  4 active torsions:
REMARK  status: ('A' for Active; 'I' for Inactive)
REMARK    1  A    between atoms: N_9  and  C_10
REMARK    2  A    between atoms: C_10  and  C_11
REMARK    3  A    between atoms: N_20  and  C_21
REMARK    4  A    between atoms: C_21  and  C_22
REMARK                            x       y       z     vdW  Elec       q    Type
REMARK                         _______ _______ _______ _____ _____    ______ ____
ROOT
ATOM      1  O   UNL     1       6.160  16.260  22.391  0.00  0.00    +0.000 OA
ATOM      2  C   UNL     1       6.885  16.278  21.405  0.00  0.00    +0.000 C 
ATOM      3  C   UNL     1       6.376  15.792  20.094  0.00  0.00    +0.000 A 
ATOM      4  C   UNL     1       4.988  15.629  19.955  0.00  0.00    +0.000 A 
ATOM      5  C   UNL     1       4.456  15.099  18.782  0.00  0.00    +0.000 A 
ATOM      6  C   UNL     1       5.312  14.704  17.760  0.00  0.00    +0.000 A 
ATOM      7  C   UNL     1       6.697  14.853  17.898  0.00  0.00    +0.000 A 
ATOM      8  C   UNL     1       7.250  15.442  19.045  0.00  0.00    +0.000 A 
ATOM      9  N   UNL     1       8.687  15.595  19.218  0.00  0.00    +0.000 N 
ATOM     10  S   UNL     1       9.073  16.997  20.088  0.00  0.00    +0.000 S 
ATOM     11  O   UNL     1       8.393  18.105  19.455  0.00  0.00    +0.000 OA
ATOM     12  O   UNL     1      10.495  17.037  20.329  0.00  0.00    +0.000 OA
ATOM     13  N   UNL     1       8.260  16.599  21.499  0.00  0.00    +0.000 N 
ENDROOT
BRANCH   9  14
ATOM     14  C   UNL     1       9.635  15.275  18.117  0.00  0.00    +0.000 C 
BRANCH  14  15
ATOM     15  C   UNL     1      10.397  13.983  18.357  0.00  0.00    +0.000 A 
ATOM     16  C   UNL     1       9.978  12.788  17.754  0.00  0.00    +0.000 A 
ATOM     17  C   UNL     1      10.659  11.592  17.998  0.00  0.00    +0.000 A 
ATOM     18  C   UNL     1      11.776  11.579  18.832  0.00  0.00    +0.000 A 
ATOM     19  C   UNL     1      12.236  12.768  19.391  0.00  0.00    +0.000 A 
ATOM     20  C   UNL     1      11.560  13.964  19.144  0.00  0.00    +0.000 A 
ENDBRANCH  14  15
ENDBRANCH   9  14
BRANCH  13  21
ATOM     21  C   UNL     1       9.064  15.923  22.554  0.00  0.00    +0.000 C 
BRANCH  21  22
ATOM     22  C   UNL     1       8.844  14.434  22.743  0.00  0.00    +0.000 A 
ATOM     23  C   UNL     1       9.165  13.498  21.747  0.00  0.00    +0.000 A 
ATOM     24  C   UNL     1       8.936  12.131  21.944  0.00  0.00    +0.000 A 
ATOM     25  C   UNL     1       8.374  11.675  23.132  0.00  0.00    +0.000 A 
ATOM     26  C   UNL     1       8.041  12.587  24.129  0.00  0.00    +0.000 A 
ATOM     27  C   UNL     1       8.274  13.953  23.938  0.00  0.00    +0.000 A 
ATOM     28 CL   UNL     1       7.826  15.018  25.227  0.00  0.00    +0.000 Cl
ENDBRANCH  21  22
ENDBRANCH  13  21
TORSDOF 4
ENDMDL
