MODEL 1
REMARK VINA RESULT:      -7.8      0.000      0.000
REMARK  Name = 
REMARK  2 active torsions:
REMARK  status: ('A' for Active; 'I' for Inactive)
REMARK    1  A    between atoms: N_6  and  C_7
REMARK    2  A    between atoms: N_13  and  C_14
REMARK                            x       y       z     vdW  Elec       q    Type
REMARK                         _______ _______ _______ _____ _____    ______ ____
ROOT
ATOM      1  O   UNL     1       0.691   3.949  17.407  0.00  0.00    +0.000 OA
ATOM      2  C   UNL     1       1.716   3.598  17.998  0.00  0.00    +0.000 C 
ATOM      3  C   UNL     1       1.742   2.238  18.663  0.00  0.00    +0.000 C 
ATOM      4  C   UNL     1       3.111   1.619  18.661  0.00  0.00    +0.000 C 
ATOM      5  C   UNL     1       4.072   2.566  19.352  0.00  0.00    +0.000 C 
ATOM      6  N   UNL     1       4.081   3.857  18.663  0.00  0.00    +0.000 N 
ATOM      7  N   UNL     1       2.803   4.431  18.325  0.00  0.00    +0.000 N 
ENDROOT
BRANCH   6   8
ATOM      8  C   UNL     1       5.180   4.207  17.836  0.00  0.00    +0.000 A 
ATOM      9  C   UNL     1       6.380   4.739  18.342  0.00  0.00    +0.000 A 
ATOM     10  C   UNL     1       7.473   5.040  17.509  0.00  0.00    +0.000 A 
ATOM     11  C   UNL     1       7.396   4.819  16.138  0.00  0.00    +0.000 A 
ATOM     12  C   UNL     1       6.232   4.275  15.610  0.00  0.00    +0.000 A 
ATOM     13  C   UNL     1       5.156   3.959  16.447  0.00  0.00    +0.000 A 
ENDBRANCH   6   8
BRANCH   7  14
ATOM     14  C   UNL     1       2.534   5.740  18.849  0.00  0.00    +0.000 A 
ATOM     15  C   UNL     1       2.089   5.900  20.169  0.00  0.00    +0.000 A 
ATOM     16  C   UNL     1       1.688   7.153  20.640  0.00  0.00    +0.000 A 
ATOM     17  C   UNL     1       1.776   8.271  19.815  0.00  0.00    +0.000 A 
ATOM     18  C   UNL     1       2.268   8.140  18.520  0.00  0.00    +0.000 A 
ATOM     19  C   UNL     1       2.636   6.880  18.039  0.00  0.00    +0.000 A 
ENDBRANCH   7  14
TORSDOF 2
ENDMDL
MODEL 2
REMARK VINA RESULT:      -7.8      1.229      4.948
REMARK  Name = 
REMARK  2 active torsions:
REMARK  status: ('A' for Active; 'I' for Inactive)
REMARK    1  A    between atoms: N_6  and  C_7
REMARK    2  A    between atoms: N_13  and  C_14
REMARK                            x       y       z     vdW  Elec       q    Type
REMARK                         _______ _______ _______ _____ _____    ______ ____
ROOT
ATOM      1  O   UNL     1       4.822   2.256  20.061  0.00  0.00    +0.000 OA
ATOM      2  C   UNL     1       3.870   2.716  19.425  0.00  0.00    +0.000 C 
ATOM      3  C   UNL     1       2.679   1.823  19.151  0.00  0.00    +0.000 C 
ATOM      4  C   UNL     1       1.385   2.585  19.094  0.00  0.00    +0.000 C 
ATOM      5  C   UNL     1       1.501   3.657  18.027  0.00  0.00    +0.000 C 
ATOM      6  N   UNL     1       2.620   4.548  18.338  0.00  0.00    +0.000 N 
ATOM      7  N   UNL     1       3.867   3.932  18.715  0.00  0.00    +0.000 N 
ENDROOT
BRANCH   6   8
ATOM      8  C   UNL     1       2.365   5.846  18.850  0.00  0.00    +0.000 A 
ATOM      9  C   UNL     1       2.419   7.008  18.057  0.00  0.00    +0.000 A 
ATOM     10  C   UNL     1       2.123   8.281  18.575  0.00  0.00    +0.000 A 
ATOM     11  C   UNL     1       1.763   8.432  19.910  0.00  0.00    +0.000 A 
ATOM     12  C   UNL     1       1.679   7.302  20.714  0.00  0.00    +0.000 A 
ATOM     13  C   UNL     1       1.957   6.036  20.187  0.00  0.00    +0.000 A 
ENDBRANCH   6   8
BRANCH   7  14
ATOM     14  C   UNL     1       5.010   4.264  17.913  0.00  0.00    +0.000 A 
ATOM     15  C   UNL     1       5.044   3.932  16.551  0.00  0.00    +0.000 A 
ATOM     16  C   UNL     1       6.207   4.121  15.800  0.00  0.00    +0.000 A 
ATOM     17  C   UNL     1       7.333   4.693  16.386  0.00  0.00    +0.000 A 
ATOM     18  C   UNL     1       7.298   5.080  17.722  0.00  0.00    +0.000 A 
ATOM     19  C   UNL     1       6.146   4.858  18.481  0.00  0.00    +0.000 A 
ENDBRANCH   7  14
TORSDOF 2
ENDMDL
MODEL 3
REMARK VINA RESULT:      -7.8      0.291      1.125
REMARK  Name = 
REMARK  2 active torsions:
REMARK  status: ('A' for Active; 'I' for Inactive)
REMARK    1  A    between atoms: N_6  and  C_7
REMARK    2  A    between atoms: N_13  and  C_14
REMARK                            x       y       z     vdW  Elec       q    Type
REMARK                         _______ _______ _______ _____ _____    ______ ____
ROOT
ATOM      1  O   UNL     1       0.649   3.702  17.730  0.00  0.00    +0.000 OA
ATOM      2  C   UNL     1       1.749   3.423  18.213  0.00  0.00    +0.000 C 
ATOM      3  C   UNL     1       1.917   2.094  18.920  0.00  0.00    +0.000 C 
ATOM      4  C   UNL     1       3.306   1.538  18.785  0.00  0.00    +0.000 C 
ATOM      5  C   UNL     1       4.291   2.556  19.328  0.00  0.00    +0.000 C 
ATOM      6  N   UNL     1       4.158   3.816  18.595  0.00  0.00    +0.000 N 
ATOM      7  N   UNL     1       2.824   4.317  18.384  0.00  0.00    +0.000 N 
ENDROOT
BRANCH   6   8
ATOM      8  C   UNL     1       5.139   4.180  17.637  0.00  0.00    +0.000 A 
ATOM      9  C   UNL     1       4.893   4.186  16.252  0.00  0.00    +0.000 A 
ATOM     10  C   UNL     1       5.867   4.591  15.322  0.00  0.00    +0.000 A 
ATOM     11  C   UNL     1       7.124   5.001  15.752  0.00  0.00    +0.000 A 
ATOM     12  C   UNL     1       7.392   5.027  17.115  0.00  0.00    +0.000 A 
ATOM     13  C   UNL     1       6.412   4.642  18.036  0.00  0.00    +0.000 A 
ENDBRANCH   6   8
BRANCH   7  14
ATOM     14  C   UNL     1       2.550   5.633  18.887  0.00  0.00    +0.000 A 
ATOM     15  C   UNL     1       2.092   5.812  20.200  0.00  0.00    +0.000 A 
ATOM     16  C   UNL     1       1.687   7.072  20.649  0.00  0.00    +0.000 A 
ATOM     17  C   UNL     1       1.784   8.179  19.810  0.00  0.00    +0.000 A 
ATOM     18  C   UNL     1       2.290   8.029  18.522  0.00  0.00    +0.000 A 
ATOM     19  C   UNL     1       2.662   6.762  18.062  0.00  0.00    +0.000 A 
ENDBRANCH   7  14
TORSDOF 2
ENDMDL
MODEL 4
REMARK VINA RESULT:      -7.8      1.231      4.861
REMARK  Name = 
REMARK  2 active torsions:
REMARK  status: ('A' for Active; 'I' for Inactive)
REMARK    1  A    between atoms: N_6  and  C_7
REMARK    2  A    between atoms: N_13  and  C_14
REMARK                            x       y       z     vdW  Elec       q    Type
REMARK                         _______ _______ _______ _____ _____    ______ ____
ROOT
ATOM      1  O   UNL     1       4.826   2.137  20.038  0.00  0.00    +0.000 OA
ATOM      2  C   UNL     1       3.873   2.591  19.400  0.00  0.00    +0.000 C 
ATOM      3  C   UNL     1       2.704   1.680  19.090  0.00  0.00    +0.000 C 
ATOM      4  C   UNL     1       1.395   2.416  19.032  0.00  0.00    +0.000 C 
ATOM      5  C   UNL     1       1.503   3.515  17.992  0.00  0.00    +0.000 C 
ATOM      6  N   UNL     1       2.598   4.421  18.337  0.00  0.00    +0.000 N 
ATOM      7  N   UNL     1       3.853   3.823  18.717  0.00  0.00    +0.000 N 
ENDROOT
BRANCH   6   8
ATOM      8  C   UNL     1       2.310   5.702  18.875  0.00  0.00    +0.000 A 
ATOM      9  C   UNL     1       1.955   5.907  20.221  0.00  0.00    +0.000 A 
ATOM     10  C   UNL     1       1.714   7.189  20.744  0.00  0.00    +0.000 A 
ATOM     11  C   UNL     1       1.818   8.313  19.930  0.00  0.00    +0.000 A 
ATOM     12  C   UNL     1       2.187   8.146  18.601  0.00  0.00    +0.000 A 
ATOM     13  C   UNL     1       2.445   6.869  18.092  0.00  0.00    +0.000 A 
ENDBRANCH   6   8
BRANCH   7  14
ATOM     14  C   UNL     1       4.999   4.197  17.939  0.00  0.00    +0.000 A 
ATOM     15  C   UNL     1       5.061   3.890  16.572  0.00  0.00    +0.000 A 
ATOM     16  C   UNL     1       6.230   4.120  15.841  0.00  0.00    +0.000 A 
ATOM     17  C   UNL     1       7.333   4.709  16.454  0.00  0.00    +0.000 A 
ATOM     18  C   UNL     1       7.270   5.071  17.796  0.00  0.00    +0.000 A 
ATOM     19  C   UNL     1       6.112   4.808  18.534  0.00  0.00    +0.000 A 
ENDBRANCH   7  14
TORSDOF 2
ENDMDL
MODEL 5
REMARK VINA RESULT:      -7.7      1.305      4.753
REMARK  Name = 
REMARK  2 active torsions:
REMARK  status: ('A' for Active; 'I' for Inactive)
REMARK    1  A    between atoms: N_6  and  C_7
REMARK    2  A    between atoms: N_13  and  C_14
REMARK                            x       y       z     vdW  Elec       q    Type
REMARK                         _______ _______ _______ _____ _____    ______ ____
ROOT
ATOM      1  O   UNL     1       4.865   2.198  20.163  0.00  0.00    +0.000 OA
ATOM      2  C   UNL     1       3.967   2.666  19.459  0.00  0.00    +0.000 C 
ATOM      3  C   UNL     1       2.867   1.744  18.975  0.00  0.00    +0.000 C 
ATOM      4  C   UNL     1       1.547   2.446  18.828  0.00  0.00    +0.000 C 
ATOM      5  C   UNL     1       1.722   3.612  17.873  0.00  0.00    +0.000 C 
ATOM      6  N   UNL     1       2.745   4.524  18.385  0.00  0.00    +0.000 N 
ATOM      7  N   UNL     1       3.974   3.938  18.855  0.00  0.00    +0.000 N 
ENDROOT
BRANCH   6   8
ATOM      8  C   UNL     1       2.359   5.759  18.968  0.00  0.00    +0.000 A 
ATOM      9  C   UNL     1       1.920   5.875  20.300  0.00  0.00    +0.000 A 
ATOM     10  C   UNL     1       1.582   7.115  20.870  0.00  0.00    +0.000 A 
ATOM     11  C   UNL     1       1.672   8.283  20.121  0.00  0.00    +0.000 A 
ATOM     12  C   UNL     1       2.123   8.206  18.808  0.00  0.00    +0.000 A 
ATOM     13  C   UNL     1       2.477   6.971  18.253  0.00  0.00    +0.000 A 
ENDBRANCH   6   8
BRANCH   7  14
ATOM     14  C   UNL     1       5.180   4.393  18.224  0.00  0.00    +0.000 A 
ATOM     15  C   UNL     1       6.105   5.171  18.934  0.00  0.00    +0.000 A 
ATOM     16  C   UNL     1       7.207   5.737  18.288  0.00  0.00    +0.000 A 
ATOM     17  C   UNL     1       7.428   5.489  16.935  0.00  0.00    +0.000 A 
ATOM     18  C   UNL     1       6.550   4.673  16.228  0.00  0.00    +0.000 A 
ATOM     19  C   UNL     1       5.429   4.137  16.868  0.00  0.00    +0.000 A 
ENDBRANCH   7  14
TORSDOF 2
ENDMDL
MODEL 6
REMARK VINA RESULT:      -7.7      1.275      4.835
REMARK  Name = 
REMARK  2 active torsions:
REMARK  status: ('A' for Active; 'I' for Inactive)
REMARK    1  A    between atoms: N_6  and  C_7
REMARK    2  A    between atoms: N_13  and  C_14
REMARK                            x       y       z     vdW  Elec       q    Type
REMARK                         _______ _______ _______ _____ _____    ______ ____
ROOT
ATOM      1  O   UNL     1       4.847   2.268  20.090  0.00  0.00    +0.000 OA
ATOM      2  C   UNL     1       3.943   2.749  19.403  0.00  0.00    +0.000 C 
ATOM      3  C   UNL     1       2.802   1.852  18.969  0.00  0.00    +0.000 C 
ATOM      4  C   UNL     1       1.500   2.591  18.846  0.00  0.00    +0.000 C 
ATOM      5  C   UNL     1       1.681   3.732  17.862  0.00  0.00    +0.000 C 
ATOM      6  N   UNL     1       2.745   4.622  18.326  0.00  0.00    +0.000 N 
ATOM      7  N   UNL     1       3.970   4.009  18.772  0.00  0.00    +0.000 N 
ENDROOT
BRANCH   6   8
ATOM      8  C   UNL     1       2.414   5.880  18.893  0.00  0.00    +0.000 A 
ATOM      9  C   UNL     1       2.440   7.082  18.162  0.00  0.00    +0.000 A 
ATOM     10  C   UNL     1       2.067   8.312  18.733  0.00  0.00    +0.000 A 
ATOM     11  C   UNL     1       1.659   8.377  20.061  0.00  0.00    +0.000 A 
ATOM     12  C   UNL     1       1.603   7.204  20.804  0.00  0.00    +0.000 A 
ATOM     13  C   UNL     1       1.955   5.981  20.224  0.00  0.00    +0.000 A 
ENDBRANCH   6   8
BRANCH   7  14
ATOM     14  C   UNL     1       5.169   4.414  18.097  0.00  0.00    +0.000 A 
ATOM     15  C   UNL     1       6.141   5.173  18.766  0.00  0.00    +0.000 A 
ATOM     16  C   UNL     1       7.240   5.692  18.077  0.00  0.00    +0.000 A 
ATOM     17  C   UNL     1       7.411   5.415  16.723  0.00  0.00    +0.000 A 
ATOM     18  C   UNL     1       6.486   4.618  16.056  0.00  0.00    +0.000 A 
ATOM     19  C   UNL     1       5.369   4.128  16.738  0.00  0.00    +0.000 A 
ENDBRANCH   7  14
TORSDOF 2
ENDMDL
MODEL 7
REMARK VINA RESULT:      -7.7      0.373      1.166
REMARK  Name = 
REMARK  2 active torsions:
REMARK  status: ('A' for Active; 'I' for Inactive)
REMARK    1  A    between atoms: N_6  and  C_7
REMARK    2  A    between atoms: N_13  and  C_14
REMARK                            x       y       z     vdW  Elec       q    Type
REMARK                         _______ _______ _______ _____ _____    ______ ____
ROOT
ATOM      1  O   UNL     1       0.671   3.449  17.795  0.00  0.00    +0.000 OA
ATOM      2  C   UNL     1       1.783   3.270  18.297  0.00  0.00    +0.000 C 
ATOM      3  C   UNL     1       2.044   1.979  19.045  0.00  0.00    +0.000 C 
ATOM      4  C   UNL     1       3.474   1.528  18.940  0.00  0.00    +0.000 C 
ATOM      5  C   UNL     1       4.370   2.634  19.463  0.00  0.00    +0.000 C 
ATOM      6  N   UNL     1       4.150   3.859  18.692  0.00  0.00    +0.000 N 
ATOM      7  N   UNL     1       2.784   4.249  18.453  0.00  0.00    +0.000 N 
ENDROOT
BRANCH   6   8
ATOM      8  C   UNL     1       5.112   4.270  17.734  0.00  0.00    +0.000 A 
ATOM      9  C   UNL     1       6.416   4.671  18.080  0.00  0.00    +0.000 A 
ATOM     10  C   UNL     1       7.367   5.035  17.111  0.00  0.00    +0.000 A 
ATOM     11  C   UNL     1       7.040   5.012  15.759  0.00  0.00    +0.000 A 
ATOM     12  C   UNL     1       5.767   4.601  15.383  0.00  0.00    +0.000 A 
ATOM     13  C   UNL     1       4.832   4.221  16.352  0.00  0.00    +0.000 A 
ENDBRANCH   6   8
BRANCH   7  14
ATOM     14  C   UNL     1       2.403   5.554  18.914  0.00  0.00    +0.000 A 
ATOM     15  C   UNL     1       2.508   6.666  18.066  0.00  0.00    +0.000 A 
ATOM     16  C   UNL     1       2.277   7.957  18.551  0.00  0.00    +0.000 A 
ATOM     17  C   UNL     1       1.887   8.148  19.874  0.00  0.00    +0.000 A 
ATOM     18  C   UNL     1       1.725   7.050  20.714  0.00  0.00    +0.000 A 
ATOM     19  C   UNL     1       1.990   5.763  20.237  0.00  0.00    +0.000 A 
ENDBRANCH   7  14
TORSDOF 2
ENDMDL
MODEL 8
REMARK VINA RESULT:      -7.6      0.544      1.647
REMARK  Name = 
REMARK  2 active torsions:
REMARK  status: ('A' for Active; 'I' for Inactive)
REMARK    1  A    between atoms: N_6  and  C_7
REMARK    2  A    between atoms: N_13  and  C_14
REMARK                            x       y       z     vdW  Elec       q    Type
REMARK                         _______ _______ _______ _____ _____    ______ ____
ROOT
ATOM      1  O   UNL     1       0.871   3.738  17.471  0.00  0.00    +0.000 OA
ATOM      2  C   UNL     1       1.906   3.517  18.103  0.00  0.00    +0.000 C 
ATOM      3  C   UNL     1       2.096   2.154  18.735  0.00  0.00    +0.000 C 
ATOM      4  C   UNL     1       3.539   1.735  18.785  0.00  0.00    +0.000 C 
ATOM      5  C   UNL     1       4.322   2.787  19.548  0.00  0.00    +0.000 C 
ATOM      6  N   UNL     1       4.177   4.087  18.891  0.00  0.00    +0.000 N 
ATOM      7  N   UNL     1       2.848   4.485  18.505  0.00  0.00    +0.000 N 
ENDROOT
BRANCH   6   8
ATOM      8  C   UNL     1       5.252   4.615  18.130  0.00  0.00    +0.000 A 
ATOM      9  C   UNL     1       5.275   4.600  16.723  0.00  0.00    +0.000 A 
ATOM     10  C   UNL     1       6.330   5.166  15.987  0.00  0.00    +0.000 A 
ATOM     11  C   UNL     1       7.402   5.766  16.639  0.00  0.00    +0.000 A 
ATOM     12  C   UNL     1       7.399   5.817  18.028  0.00  0.00    +0.000 A 
ATOM     13  C   UNL     1       6.336   5.269  18.754  0.00  0.00    +0.000 A 
ENDBRANCH   6   8
BRANCH   7  14
ATOM     14  C   UNL     1       2.370   5.725  19.047  0.00  0.00    +0.000 A 
ATOM     15  C   UNL     1       2.440   6.905  18.292  0.00  0.00    +0.000 A 
ATOM     16  C   UNL     1       2.112   8.138  18.863  0.00  0.00    +0.000 A 
ATOM     17  C   UNL     1       1.659   8.201  20.179  0.00  0.00    +0.000 A 
ATOM     18  C   UNL     1       1.531   7.033  20.924  0.00  0.00    +0.000 A 
ATOM     19  C   UNL     1       1.893   5.805  20.363  0.00  0.00    +0.000 A 
ENDBRANCH   7  14
TORSDOF 2
ENDMDL
MODEL 9
REMARK VINA RESULT:      -7.4      1.643      4.710
REMARK  Name = 
REMARK  2 active torsions:
REMARK  status: ('A' for Active; 'I' for Inactive)
REMARK    1  A    between atoms: N_6  and  C_7
REMARK    2  A    between atoms: N_13  and  C_14
REMARK                            x       y       z     vdW  Elec       q    Type
REMARK                         _______ _______ _______ _____ _____    ______ ____
ROOT
ATOM      1  O   UNL     1       2.498   3.040  16.501  0.00  0.00    +0.000 OA
ATOM      2  C   UNL     1       3.214   3.918  16.989  0.00  0.00    +0.000 C 
ATOM      3  C   UNL     1       4.593   4.142  16.402  0.00  0.00    +0.000 C 
ATOM      4  C   UNL     1       5.034   5.575  16.491  0.00  0.00    +0.000 C 
ATOM      5  C   UNL     1       5.000   6.003  17.945  0.00  0.00    +0.000 C 
ATOM      6  N   UNL     1       3.648   5.838  18.481  0.00  0.00    +0.000 N 
ATOM      7  N   UNL     1       2.976   4.595  18.201  0.00  0.00    +0.000 N 
ENDROOT
BRANCH   6   8
ATOM      8  C   UNL     1       2.828   6.978  18.687  0.00  0.00    +0.000 A 
ATOM      9  C   UNL     1       2.229   7.277  19.925  0.00  0.00    +0.000 A 
ATOM     10  C   UNL     1       1.453   8.434  20.119  0.00  0.00    +0.000 A 
ATOM     11  C   UNL     1       1.251   9.330  19.075  0.00  0.00    +0.000 A 
ATOM     12  C   UNL     1       1.848   9.074  17.846  0.00  0.00    +0.000 A 
ATOM     13  C   UNL     1       2.634   7.932  17.665  0.00  0.00    +0.000 A 
ENDBRANCH   6   8
BRANCH   7  14
ATOM     14  C   UNL     1       2.539   3.836  19.338  0.00  0.00    +0.000 A 
ATOM     15  C   UNL     1       1.181   3.794  19.684  0.00  0.00    +0.000 A 
ATOM     16  C   UNL     1       0.765   3.178  20.868  0.00  0.00    +0.000 A 
ATOM     17  C   UNL     1       1.695   2.551  21.694  0.00  0.00    +0.000 A 
ATOM     18  C   UNL     1       3.040   2.536  21.337  0.00  0.00    +0.000 A 
ATOM     19  C   UNL     1       3.458   3.182  20.170  0.00  0.00    +0.000 A 
ENDBRANCH   7  14
TORSDOF 2
ENDMDL
