MODEL 1
REMARK VINA RESULT:      -7.4      0.000      0.000
REMARK  Name = 
REMARK  9 active torsions:
REMARK  status: ('A' for Active; 'I' for Inactive)
REMARK    1  A    between atoms: C_1  and  C_2
REMARK    2  A    between atoms: C_2  and  C_3
REMARK    3  A    between atoms: C_2  and  C_4
REMARK    4  A    between atoms: C_9  and  S_10
REMARK    5  A    between atoms: S_10  and  C_11
REMARK    6  A    between atoms: C_11  and  C_12
REMARK    7  A    between atoms: C_12  and  C_14
REMARK    8  A    between atoms: N_23  and  C_24
REMARK    9  A    between atoms: N_27  and  C_28
REMARK                            x       y       z     vdW  Elec       q    Type
REMARK                         _______ _______ _______ _____ _____    ______ ____
ROOT
ATOM      1  C   UNL     1       1.650   7.405  20.471  0.00  0.00    +0.000 A 
ATOM      2  C   UNL     1       1.471   6.201  21.148  0.00  0.00    +0.000 A 
ATOM      3  N   UNL     1       1.926   5.010  20.728  0.00  0.00    +0.000 NA
ATOM      4  C   UNL     1       2.625   4.963  19.574  0.00  0.00    +0.000 A 
ATOM      5  C   UNL     1       2.952   6.108  18.852  0.00  0.00    +0.000 A 
ATOM      6  C   UNL     1       2.443   7.365  19.293  0.00  0.00    +0.000 A 
ATOM      7  C   UNL     1       3.814   5.905  17.662  0.00  0.00    +0.000 A 
ATOM      8  O   UNL     1       4.384   6.855  17.133  0.00  0.00    +0.000 OA
ATOM      9  N   UNL     1       4.011   4.598  17.227  0.00  0.00    +0.000 N 
ATOM     10  C   UNL     1       4.793   4.373  16.024  0.00  0.00    +0.000 C 
ATOM     11  C   UNL     1       3.640   3.464  17.932  0.00  0.00    +0.000 A 
ATOM     12  O   UNL     1       3.911   2.333  17.523  0.00  0.00    +0.000 OA
ATOM     13  N   UNL     1       2.973   3.676  19.115  0.00  0.00    +0.000 N 
ATOM     14  C   UNL     1       2.502   2.534  19.890  0.00  0.00    +0.000 C 
ENDROOT
BRANCH   1  16
ATOM     15  C   UNL     1      -0.549   8.282  21.338  0.00  0.00    +0.000 C 
ATOM     16  C   UNL     1       0.915   8.627  21.012  0.00  0.00    +0.000 C 
ATOM     17  C   UNL     1       1.604   9.215  22.251  0.00  0.00    +0.000 C 
ENDBRANCH   1  16
BRANCH   6  18
ATOM     18  S   UNL     1       2.545   8.862  18.270  0.00  0.00    +0.000 S 
BRANCH  18  19
ATOM     19  C   UNL     1       0.817   9.068  17.675  0.00  0.00    +0.000 C 
BRANCH  19  20
ATOM     20  C   UNL     1       0.195  10.374  18.188  0.00  0.00    +0.000 C 
ATOM     21  O   UNL     1       0.840  11.287  18.703  0.00  0.00    +0.000 OA
BRANCH  20  22
ATOM     22  C   UNL     1      -1.289  10.574  18.045  0.00  0.00    +0.000 A 
ATOM     23  C   UNL     1      -2.061   9.871  17.111  0.00  0.00    +0.000 A 
ATOM     24  C   UNL     1      -3.440  10.106  17.009  0.00  0.00    +0.000 A 
ATOM     25  C   UNL     1      -4.056  11.040  17.839  0.00  0.00    +0.000 A 
ATOM     26 CL   UNL     1      -5.748  11.321  17.707  0.00  0.00    +0.000 Cl
ATOM     27  C   UNL     1      -3.306  11.749  18.773  0.00  0.00    +0.000 A 
ATOM     28  C   UNL     1      -1.927  11.515  18.874  0.00  0.00    +0.000 A 
ENDBRANCH  20  22
ENDBRANCH  19  20
ENDBRANCH  18  19
ENDBRANCH   6  18
TORSDOF 5
ENDMDL
MODEL 2
REMARK VINA RESULT:      -7.3      5.294      9.341
REMARK  Name = 
REMARK  9 active torsions:
REMARK  status: ('A' for Active; 'I' for Inactive)
REMARK    1  A    between atoms: C_1  and  C_2
REMARK    2  A    between atoms: C_2  and  C_3
REMARK    3  A    between atoms: C_2  and  C_4
REMARK    4  A    between atoms: C_9  and  S_10
REMARK    5  A    between atoms: S_10  and  C_11
REMARK    6  A    between atoms: C_11  and  C_12
REMARK    7  A    between atoms: C_12  and  C_14
REMARK    8  A    between atoms: N_23  and  C_24
REMARK    9  A    between atoms: N_27  and  C_28
REMARK                            x       y       z     vdW  Elec       q    Type
REMARK                         _______ _______ _______ _____ _____    ______ ____
ROOT
ATOM      1  C   UNL     1      -3.564  11.492  17.871  0.00  0.00    +0.000 A 
ATOM      2  C   UNL     1      -4.876  11.049  17.723  0.00  0.00    +0.000 A 
ATOM      3  N   UNL     1      -5.848  11.212  18.634  0.00  0.00    +0.000 NA
ATOM      4  C   UNL     1      -5.551  11.868  19.776  0.00  0.00    +0.000 A 
ATOM      5  C   UNL     1      -4.303  12.442  20.005  0.00  0.00    +0.000 A 
ATOM      6  C   UNL     1      -3.270  12.242  19.042  0.00  0.00    +0.000 A 
ATOM      7  C   UNL     1      -4.162  13.220  21.259  0.00  0.00    +0.000 A 
ATOM      8  O   UNL     1      -3.217  13.988  21.417  0.00  0.00    +0.000 OA
ATOM      9  N   UNL     1      -5.178  13.106  22.203  0.00  0.00    +0.000 N 
ATOM     10  C   UNL     1      -5.035  13.801  23.471  0.00  0.00    +0.000 C 
ATOM     11  C   UNL     1      -6.400  12.492  21.981  0.00  0.00    +0.000 A 
ATOM     12  O   UNL     1      -7.287  12.490  22.838  0.00  0.00    +0.000 OA
ATOM     13  N   UNL     1      -6.571  11.905  20.749  0.00  0.00    +0.000 N 
ATOM     14  C   UNL     1      -7.809  11.193  20.457  0.00  0.00    +0.000 C 
ENDROOT
BRANCH   1  16
ATOM     15  C   UNL     1      -1.899   9.727  17.188  0.00  0.00    +0.000 C 
ATOM     16  C   UNL     1      -2.557  11.064  16.808  0.00  0.00    +0.000 C 
ATOM     17  C   UNL     1      -3.196  10.958  15.416  0.00  0.00    +0.000 C 
ENDBRANCH   1  16
BRANCH   6  18
ATOM     18  S   UNL     1      -1.538  12.674  19.378  0.00  0.00    +0.000 S 
BRANCH  18  19
ATOM     19  C   UNL     1      -0.927  11.212  20.312  0.00  0.00    +0.000 C 
BRANCH  19  20
ATOM     20  C   UNL     1       0.604  11.100  20.248  0.00  0.00    +0.000 C 
ATOM     21  O   UNL     1       1.374  11.958  20.678  0.00  0.00    +0.000 OA
BRANCH  20  22
ATOM     22  C   UNL     1       1.213   9.866  19.641  0.00  0.00    +0.000 A 
ATOM     23  C   UNL     1       1.600   9.795  18.297  0.00  0.00    +0.000 A 
ATOM     24  C   UNL     1       2.152   8.613  17.779  0.00  0.00    +0.000 A 
ATOM     25  C   UNL     1       2.321   7.499  18.598  0.00  0.00    +0.000 A 
ATOM     26 CL   UNL     1       2.999   6.056  17.952  0.00  0.00    +0.000 Cl
ATOM     27  C   UNL     1       1.942   7.551  19.936  0.00  0.00    +0.000 A 
ATOM     28  C   UNL     1       1.390   8.731  20.454  0.00  0.00    +0.000 A 
ENDBRANCH  20  22
ENDBRANCH  19  20
ENDBRANCH  18  19
ENDBRANCH   6  18
TORSDOF 5
ENDMDL
MODEL 3
REMARK VINA RESULT:      -7.0      5.383      9.543
REMARK  Name = 
REMARK  9 active torsions:
REMARK  status: ('A' for Active; 'I' for Inactive)
REMARK    1  A    between atoms: C_1  and  C_2
REMARK    2  A    between atoms: C_2  and  C_3
REMARK    3  A    between atoms: C_2  and  C_4
REMARK    4  A    between atoms: C_9  and  S_10
REMARK    5  A    between atoms: S_10  and  C_11
REMARK    6  A    between atoms: C_11  and  C_12
REMARK    7  A    between atoms: C_12  and  C_14
REMARK    8  A    between atoms: N_23  and  C_24
REMARK    9  A    between atoms: N_27  and  C_28
REMARK                            x       y       z     vdW  Elec       q    Type
REMARK                         _______ _______ _______ _____ _____    ______ ____
ROOT
ATOM      1  C   UNL     1      -3.956  11.613  18.410  0.00  0.00    +0.000 A 
ATOM      2  C   UNL     1      -5.288  11.207  18.443  0.00  0.00    +0.000 A 
ATOM      3  N   UNL     1      -6.134  11.436  19.459  0.00  0.00    +0.000 NA
ATOM      4  C   UNL     1      -5.680  12.124  20.528  0.00  0.00    +0.000 A 
ATOM      5  C   UNL     1      -4.397  12.665  20.578  0.00  0.00    +0.000 A 
ATOM      6  C   UNL     1      -3.498  12.395  19.505  0.00  0.00    +0.000 A 
ATOM      7  C   UNL     1      -4.080  13.485  21.772  0.00  0.00    +0.000 A 
ATOM      8  O   UNL     1      -3.102  14.226  21.781  0.00  0.00    +0.000 OA
ATOM      9  N   UNL     1      -4.974  13.440  22.838  0.00  0.00    +0.000 N 
ATOM     10  C   UNL     1      -4.656  14.176  24.048  0.00  0.00    +0.000 C 
ATOM     11  C   UNL     1      -6.231  12.858  22.793  0.00  0.00    +0.000 A 
ATOM     12  O   UNL     1      -7.004  12.917  23.752  0.00  0.00    +0.000 OA
ATOM     13  N   UNL     1      -6.569  12.231  21.617  0.00  0.00    +0.000 N 
ATOM     14  C   UNL     1      -7.854  11.550  21.508  0.00  0.00    +0.000 C 
ENDROOT
BRANCH   1  16
ATOM     15  C   UNL     1      -2.642   9.665  17.496  0.00  0.00    +0.000 C 
ATOM     16  C   UNL     1      -3.101  11.112  17.250  0.00  0.00    +0.000 C 
ATOM     17  C   UNL     1      -3.837  11.208  15.907  0.00  0.00    +0.000 C 
ENDBRANCH   1  16
BRANCH   6  18
ATOM     18  S   UNL     1      -1.726  12.783  19.607  0.00  0.00    +0.000 S 
BRANCH  18  19
ATOM     19  C   UNL     1      -1.002  11.215  20.241  0.00  0.00    +0.000 C 
BRANCH  19  20
ATOM     20  C   UNL     1       0.512  11.150  19.989  0.00  0.00    +0.000 C 
ATOM     21  O   UNL     1       1.274  12.105  20.135  0.00  0.00    +0.000 OA
BRANCH  20  22
ATOM     22  C   UNL     1       1.117   9.843  19.556  0.00  0.00    +0.000 A 
ATOM     23  C   UNL     1       1.308   8.769  20.434  0.00  0.00    +0.000 A 
ATOM     24  C   UNL     1       1.890   7.576  19.980  0.00  0.00    +0.000 A 
ATOM     25  C   UNL     1       2.283   7.448  18.650  0.00  0.00    +0.000 A 
ATOM     26 CL   UNL     1       2.996   5.981  18.103  0.00  0.00    +0.000 Cl
ATOM     27  C   UNL     1       2.102   8.505  17.762  0.00  0.00    +0.000 A 
ATOM     28  C   UNL     1       1.520   9.697  18.216  0.00  0.00    +0.000 A 
ENDBRANCH  20  22
ENDBRANCH  19  20
ENDBRANCH  18  19
ENDBRANCH   6  18
TORSDOF 5
ENDMDL
MODEL 4
REMARK VINA RESULT:      -7.0      4.095      7.944
REMARK  Name = 
REMARK  9 active torsions:
REMARK  status: ('A' for Active; 'I' for Inactive)
REMARK    1  A    between atoms: C_1  and  C_2
REMARK    2  A    between atoms: C_2  and  C_3
REMARK    3  A    between atoms: C_2  and  C_4
REMARK    4  A    between atoms: C_9  and  S_10
REMARK    5  A    between atoms: S_10  and  C_11
REMARK    6  A    between atoms: C_11  and  C_12
REMARK    7  A    between atoms: C_12  and  C_14
REMARK    8  A    between atoms: N_23  and  C_24
REMARK    9  A    between atoms: N_27  and  C_28
REMARK                            x       y       z     vdW  Elec       q    Type
REMARK                         _______ _______ _______ _____ _____    ______ ____
ROOT
ATOM      1  C   UNL     1       2.753   4.999  19.578  0.00  0.00    +0.000 A 
ATOM      2  C   UNL     1       1.916   5.155  20.680  0.00  0.00    +0.000 A 
ATOM      3  N   UNL     1       1.316   6.303  21.030  0.00  0.00    +0.000 NA
ATOM      4  C   UNL     1       1.515   7.392  20.256  0.00  0.00    +0.000 A 
ATOM      5  C   UNL     1       2.254   7.344  19.077  0.00  0.00    +0.000 A 
ATOM      6  C   UNL     1       2.908   6.126  18.726  0.00  0.00    +0.000 A 
ATOM      7  C   UNL     1       2.295   8.594  18.281  0.00  0.00    +0.000 A 
ATOM      8  O   UNL     1       2.669   8.581  17.112  0.00  0.00    +0.000 OA
ATOM      9  N   UNL     1       1.820   9.755  18.884  0.00  0.00    +0.000 N 
ATOM     10  C   UNL     1       1.912  11.009  18.157  0.00  0.00    +0.000 C 
ATOM     11  C   UNL     1       1.126   9.798  20.083  0.00  0.00    +0.000 A 
ATOM     12  O   UNL     1       0.668  10.853  20.526  0.00  0.00    +0.000 OA
ATOM     13  N   UNL     1       0.964   8.598  20.734  0.00  0.00    +0.000 N 
ATOM     14  C   UNL     1       0.290   8.566  22.027  0.00  0.00    +0.000 C 
ENDROOT
BRANCH   1  16
ATOM     15  C   UNL     1       3.338   2.828  20.718  0.00  0.00    +0.000 C 
ATOM     16  C   UNL     1       3.482   3.666  19.437  0.00  0.00    +0.000 C 
ATOM     17  C   UNL     1       2.988   2.862  18.226  0.00  0.00    +0.000 C 
ENDBRANCH   1  16
BRANCH   6  18
ATOM     18  S   UNL     1       4.136   6.037  17.391  0.00  0.00    +0.000 S 
BRANCH  18  19
ATOM     19  C   UNL     1       5.733   6.057  18.303  0.00  0.00    +0.000 C 
BRANCH  19  20
ATOM     20  C   UNL     1       6.737   5.060  17.707  0.00  0.00    +0.000 C 
ATOM     21  O   UNL     1       7.665   4.558  18.341  0.00  0.00    +0.000 OA
BRANCH  20  22
ATOM     22  C   UNL     1       6.580   4.647  16.269  0.00  0.00    +0.000 A 
ATOM     23  C   UNL     1       5.695   3.641  15.864  0.00  0.00    +0.000 A 
ATOM     24  C   UNL     1       5.598   3.285  14.510  0.00  0.00    +0.000 A 
ATOM     25  C   UNL     1       6.380   3.932  13.556  0.00  0.00    +0.000 A 
ATOM     26 CL   UNL     1       6.253   3.489  11.898  0.00  0.00    +0.000 Cl
ATOM     27  C   UNL     1       7.266   4.934  13.941  0.00  0.00    +0.000 A 
ATOM     28  C   UNL     1       7.364   5.289  15.293  0.00  0.00    +0.000 A 
ENDBRANCH  20  22
ENDBRANCH  19  20
ENDBRANCH  18  19
ENDBRANCH   6  18
TORSDOF 5
ENDMDL
MODEL 5
REMARK VINA RESULT:      -7.0      2.642      4.013
REMARK  Name = 
REMARK  9 active torsions:
REMARK  status: ('A' for Active; 'I' for Inactive)
REMARK    1  A    between atoms: C_1  and  C_2
REMARK    2  A    between atoms: C_2  and  C_3
REMARK    3  A    between atoms: C_2  and  C_4
REMARK    4  A    between atoms: C_9  and  S_10
REMARK    5  A    between atoms: S_10  and  C_11
REMARK    6  A    between atoms: C_11  and  C_12
REMARK    7  A    between atoms: C_12  and  C_14
REMARK    8  A    between atoms: N_23  and  C_24
REMARK    9  A    between atoms: N_27  and  C_28
REMARK                            x       y       z     vdW  Elec       q    Type
REMARK                         _______ _______ _______ _____ _____    ______ ____
ROOT
ATOM      1  C   UNL     1       1.962   8.549  18.620  0.00  0.00    +0.000 A 
ATOM      2  C   UNL     1       2.959   8.318  17.676  0.00  0.00    +0.000 A 
ATOM      3  N   UNL     1       3.703   7.203  17.603  0.00  0.00    +0.000 NA
ATOM      4  C   UNL     1       3.466   6.216  18.493  0.00  0.00    +0.000 A 
ATOM      5  C   UNL     1       2.435   6.285  19.427  0.00  0.00    +0.000 A 
ATOM      6  C   UNL     1       1.667   7.484  19.514  0.00  0.00    +0.000 A 
ATOM      7  C   UNL     1       2.232   5.080  20.265  0.00  0.00    +0.000 A 
ATOM      8  O   UNL     1       1.196   4.928  20.906  0.00  0.00    +0.000 OA
ATOM      9  N   UNL     1       3.220   4.100  20.232  0.00  0.00    +0.000 N 
ATOM     10  C   UNL     1       3.085   2.940  21.095  0.00  0.00    +0.000 C 
ATOM     11  C   UNL     1       4.270   4.065  19.327  0.00  0.00    +0.000 A 
ATOM     12  O   UNL     1       5.071   3.128  19.304  0.00  0.00    +0.000 OA
ATOM     13  N   UNL     1       4.353   5.122  18.451  0.00  0.00    +0.000 N 
ATOM     14  C   UNL     1       5.459   5.185  17.503  0.00  0.00    +0.000 C 
ENDROOT
BRANCH   1  16
ATOM     15  C   UNL     1       2.282  10.974  18.010  0.00  0.00    +0.000 C 
ATOM     16  C   UNL     1       1.342   9.943  18.657  0.00  0.00    +0.000 C 
ATOM     17  C   UNL     1      -0.031   9.983  17.973  0.00  0.00    +0.000 C 
ENDBRANCH   1  16
BRANCH   6  18
ATOM     18  S   UNL     1       0.517   7.799  20.884  0.00  0.00    +0.000 S 
BRANCH  18  19
ATOM     19  C   UNL     1       1.403   9.070  21.875  0.00  0.00    +0.000 C 
BRANCH  19  20
ATOM     20  C   UNL     1       0.469   9.748  22.889  0.00  0.00    +0.000 C 
ATOM     21  O   UNL     1       0.433   9.463  24.086  0.00  0.00    +0.000 OA
BRANCH  20  22
ATOM     22  C   UNL     1      -0.450  10.838  22.410  0.00  0.00    +0.000 A 
ATOM     23  C   UNL     1      -0.208  11.573  21.242  0.00  0.00    +0.000 A 
ATOM     24  C   UNL     1      -1.091  12.590  20.849  0.00  0.00    +0.000 A 
ATOM     25  C   UNL     1      -2.218  12.877  21.615  0.00  0.00    +0.000 A 
ATOM     26 CL   UNL     1      -3.294  14.126  21.123  0.00  0.00    +0.000 Cl
ATOM     27  C   UNL     1      -2.474  12.158  22.779  0.00  0.00    +0.000 A 
ATOM     28  C   UNL     1      -1.592  11.143  23.173  0.00  0.00    +0.000 A 
ENDBRANCH  20  22
ENDBRANCH  19  20
ENDBRANCH  18  19
ENDBRANCH   6  18
TORSDOF 5
ENDMDL
MODEL 6
REMARK VINA RESULT:      -6.8      3.076      4.755
REMARK  Name = 
REMARK  9 active torsions:
REMARK  status: ('A' for Active; 'I' for Inactive)
REMARK    1  A    between atoms: C_1  and  C_2
REMARK    2  A    between atoms: C_2  and  C_3
REMARK    3  A    between atoms: C_2  and  C_4
REMARK    4  A    between atoms: C_9  and  S_10
REMARK    5  A    between atoms: S_10  and  C_11
REMARK    6  A    between atoms: C_11  and  C_12
REMARK    7  A    between atoms: C_12  and  C_14
REMARK    8  A    between atoms: N_23  and  C_24
REMARK    9  A    between atoms: N_27  and  C_28
REMARK                            x       y       z     vdW  Elec       q    Type
REMARK                         _______ _______ _______ _____ _____    ______ ____
ROOT
ATOM      1  C   UNL     1       2.621   3.390  18.628  0.00  0.00    +0.000 A 
ATOM      2  C   UNL     1       2.835   2.801  17.384  0.00  0.00    +0.000 A 
ATOM      3  N   UNL     1       3.846   3.108  16.555  0.00  0.00    +0.000 NA
ATOM      4  C   UNL     1       4.738   4.041  16.951  0.00  0.00    +0.000 A 
ATOM      5  C   UNL     1       4.688   4.636  18.209  0.00  0.00    +0.000 A 
ATOM      6  C   UNL     1       3.597   4.322  19.072  0.00  0.00    +0.000 A 
ATOM      7  C   UNL     1       5.797   5.563  18.537  0.00  0.00    +0.000 A 
ATOM      8  O   UNL     1       6.000   5.911  19.697  0.00  0.00    +0.000 OA
ATOM      9  N   UNL     1       6.638   5.952  17.499  0.00  0.00    +0.000 N 
ATOM     10  C   UNL     1       7.690   6.914  17.774  0.00  0.00    +0.000 C 
ATOM     11  C   UNL     1       6.648   5.385  16.234  0.00  0.00    +0.000 A 
ATOM     12  O   UNL     1       7.470   5.727  15.380  0.00  0.00    +0.000 OA
ATOM     13  N   UNL     1       5.706   4.413  15.996  0.00  0.00    +0.000 N 
ATOM     14  C   UNL     1       5.618   3.805  14.674  0.00  0.00    +0.000 C 
ENDROOT
BRANCH   1  16
ATOM     15  C   UNL     1       0.480   2.063  18.517  0.00  0.00    +0.000 C 
ATOM     16  C   UNL     1       1.324   3.040  19.352  0.00  0.00    +0.000 C 
ATOM     17  C   UNL     1       1.582   2.451  20.746  0.00  0.00    +0.000 C 
ENDBRANCH   1  16
BRANCH   6  18
ATOM     18  S   UNL     1       3.266   5.260  20.592  0.00  0.00    +0.000 S 
BRANCH  18  19
ATOM     19  C   UNL     1       1.678   6.107  20.211  0.00  0.00    +0.000 C 
BRANCH  19  20
ATOM     20  C   UNL     1       1.902   7.569  19.799  0.00  0.00    +0.000 C 
ATOM     21  O   UNL     1       2.651   7.919  18.887  0.00  0.00    +0.000 OA
BRANCH  20  22
ATOM     22  C   UNL     1       1.154   8.650  20.531  0.00  0.00    +0.000 A 
ATOM     23  C   UNL     1       0.559   9.735  19.876  0.00  0.00    +0.000 A 
ATOM     24  C   UNL     1      -0.116  10.723  20.609  0.00  0.00    +0.000 A 
ATOM     25  C   UNL     1      -0.201  10.633  21.996  0.00  0.00    +0.000 A 
ATOM     26 CL   UNL     1      -1.030  11.849  22.886  0.00  0.00    +0.000 Cl
ATOM     27  C   UNL     1       0.385   9.561  22.665  0.00  0.00    +0.000 A 
ATOM     28  C   UNL     1       1.060   8.575  21.932  0.00  0.00    +0.000 A 
ENDBRANCH  20  22
ENDBRANCH  19  20
ENDBRANCH  18  19
ENDBRANCH   6  18
TORSDOF 5
ENDMDL
MODEL 7
REMARK VINA RESULT:      -6.8      4.939      9.095
REMARK  Name = 
REMARK  9 active torsions:
REMARK  status: ('A' for Active; 'I' for Inactive)
REMARK    1  A    between atoms: C_1  and  C_2
REMARK    2  A    between atoms: C_2  and  C_3
REMARK    3  A    between atoms: C_2  and  C_4
REMARK    4  A    between atoms: C_9  and  S_10
REMARK    5  A    between atoms: S_10  and  C_11
REMARK    6  A    between atoms: C_11  and  C_12
REMARK    7  A    between atoms: C_12  and  C_14
REMARK    8  A    between atoms: N_23  and  C_24
REMARK    9  A    between atoms: N_27  and  C_28
REMARK                            x       y       z     vdW  Elec       q    Type
REMARK                         _______ _______ _______ _____ _____    ______ ____
ROOT
ATOM      1  C   UNL     1      -2.931  11.693  17.954  0.00  0.00    +0.000 A 
ATOM      2  C   UNL     1      -4.303  11.523  18.117  0.00  0.00    +0.000 A 
ATOM      3  N   UNL     1      -4.994  11.869  19.214  0.00  0.00    +0.000 NA
ATOM      4  C   UNL     1      -4.325  12.443  20.237  0.00  0.00    +0.000 A 
ATOM      5  C   UNL     1      -2.969  12.752  20.162  0.00  0.00    +0.000 A 
ATOM      6  C   UNL     1      -2.239  12.357  19.003  0.00  0.00    +0.000 A 
ATOM      7  C   UNL     1      -2.400  13.475  21.325  0.00  0.00    +0.000 A 
ATOM      8  O   UNL     1      -1.311  14.036  21.242  0.00  0.00    +0.000 OA
ATOM      9  N   UNL     1      -3.180  13.558  22.474  0.00  0.00    +0.000 N 
ATOM     10  C   UNL     1      -2.623  14.199  23.653  0.00  0.00    +0.000 C 
ATOM     11  C   UNL     1      -4.518  13.204  22.551  0.00  0.00    +0.000 A 
ATOM     12  O   UNL     1      -5.172  13.372  23.583  0.00  0.00    +0.000 OA
ATOM     13  N   UNL     1      -5.072  12.674  21.410  0.00  0.00    +0.000 N 
ATOM     14  C   UNL     1      -6.460  12.228  21.425  0.00  0.00    +0.000 C 
ENDROOT
BRANCH   1  16
ATOM     15  C   UNL     1      -1.842   9.636  16.983  0.00  0.00    +0.000 C 
ATOM     16  C   UNL     1      -2.293  11.081  16.710  0.00  0.00    +0.000 C 
ATOM     17  C   UNL     1      -3.236  11.117  15.500  0.00  0.00    +0.000 C 
ENDBRANCH   1  16
BRANCH   6  18
ATOM     18  S   UNL     1      -0.426  12.430  18.931  0.00  0.00    +0.000 S 
BRANCH  18  19
ATOM     19  C   UNL     1       0.076  10.809  19.641  0.00  0.00    +0.000 C 
BRANCH  19  20
ATOM     20  C   UNL     1       1.282  10.216  18.898  0.00  0.00    +0.000 C 
ATOM     21  O   UNL     1       1.982  10.850  18.108  0.00  0.00    +0.000 OA
BRANCH  20  22
ATOM     22  C   UNL     1       1.655   8.781  19.153  0.00  0.00    +0.000 A 
ATOM     23  C   UNL     1       1.468   8.160  20.394  0.00  0.00    +0.000 A 
ATOM     24  C   UNL     1       1.846   6.822  20.581  0.00  0.00    +0.000 A 
ATOM     25  C   UNL     1       2.411   6.098  19.534  0.00  0.00    +0.000 A 
ATOM     26 CL   UNL     1       2.871   4.458  19.774  0.00  0.00    +0.000 Cl
ATOM     27  C   UNL     1       2.605   6.700  18.293  0.00  0.00    +0.000 A 
ATOM     28  C   UNL     1       2.228   8.036  18.106  0.00  0.00    +0.000 A 
ENDBRANCH  20  22
ENDBRANCH  19  20
ENDBRANCH  18  19
ENDBRANCH   6  18
TORSDOF 5
ENDMDL
MODEL 8
REMARK VINA RESULT:      -6.7      2.616      4.043
REMARK  Name = 
REMARK  9 active torsions:
REMARK  status: ('A' for Active; 'I' for Inactive)
REMARK    1  A    between atoms: C_1  and  C_2
REMARK    2  A    between atoms: C_2  and  C_3
REMARK    3  A    between atoms: C_2  and  C_4
REMARK    4  A    between atoms: C_9  and  S_10
REMARK    5  A    between atoms: S_10  and  C_11
REMARK    6  A    between atoms: C_11  and  C_12
REMARK    7  A    between atoms: C_12  and  C_14
REMARK    8  A    between atoms: N_23  and  C_24
REMARK    9  A    between atoms: N_27  and  C_28
REMARK                            x       y       z     vdW  Elec       q    Type
REMARK                         _______ _______ _______ _____ _____    ______ ____
ROOT
ATOM      1  C   UNL     1       1.983   8.496  18.568  0.00  0.00    +0.000 A 
ATOM      2  C   UNL     1       3.010   8.257  17.658  0.00  0.00    +0.000 A 
ATOM      3  N   UNL     1       3.755   7.142  17.619  0.00  0.00    +0.000 NA
ATOM      4  C   UNL     1       3.490   6.163  18.510  0.00  0.00    +0.000 A 
ATOM      5  C   UNL     1       2.431   6.240  19.410  0.00  0.00    +0.000 A 
ATOM      6  C   UNL     1       1.660   7.439  19.461  0.00  0.00    +0.000 A 
ATOM      7  C   UNL     1       2.202   5.042  20.253  0.00  0.00    +0.000 A 
ATOM      8  O   UNL     1       1.146   4.897  20.862  0.00  0.00    +0.000 OA
ATOM      9  N   UNL     1       3.190   4.063  20.259  0.00  0.00    +0.000 N 
ATOM     10  C   UNL     1       3.028   2.911  21.129  0.00  0.00    +0.000 C 
ATOM     11  C   UNL     1       4.268   4.020  19.389  0.00  0.00    +0.000 A 
ATOM     12  O   UNL     1       5.070   3.083  19.400  0.00  0.00    +0.000 OA
ATOM     13  N   UNL     1       4.379   5.068  18.506  0.00  0.00    +0.000 N 
ATOM     14  C   UNL     1       5.514   5.124  17.593  0.00  0.00    +0.000 C 
ENDROOT
BRANCH   1  16
ATOM     15  C   UNL     1       2.296  10.904  17.889  0.00  0.00    +0.000 C 
ATOM     16  C   UNL     1       1.363   9.890  18.572  0.00  0.00    +0.000 C 
ATOM     17  C   UNL     1      -0.017   9.911  17.899  0.00  0.00    +0.000 C 
ENDBRANCH   1  16
BRANCH   6  18
ATOM     18  S   UNL     1       0.468   7.767  20.791  0.00  0.00    +0.000 S 
BRANCH  18  19
ATOM     19  C   UNL     1       1.391   8.913  21.894  0.00  0.00    +0.000 C 
BRANCH  19  20
ATOM     20  C   UNL     1       0.493  10.046  22.412  0.00  0.00    +0.000 C 
ATOM     21  O   UNL     1      -0.054  10.040  23.514  0.00  0.00    +0.000 OA
BRANCH  20  22
ATOM     22  C   UNL     1       0.272  11.251  21.538  0.00  0.00    +0.000 A 
ATOM     23  C   UNL     1       1.294  12.156  21.226  0.00  0.00    +0.000 A 
ATOM     24  C   UNL     1       1.030  13.272  20.418  0.00  0.00    +0.000 A 
ATOM     25  C   UNL     1      -0.251  13.489  19.916  0.00  0.00    +0.000 A 
ATOM     26 CL   UNL     1      -0.564  14.860  18.925  0.00  0.00    +0.000 Cl
ATOM     27  C   UNL     1      -1.280  12.600  20.216  0.00  0.00    +0.000 A 
ATOM     28  C   UNL     1      -1.016  11.485  21.025  0.00  0.00    +0.000 A 
ENDBRANCH  20  22
ENDBRANCH  19  20
ENDBRANCH  18  19
ENDBRANCH   6  18
TORSDOF 5
ENDMDL
MODEL 9
REMARK VINA RESULT:      -6.7      2.853      4.454
REMARK  Name = 
REMARK  9 active torsions:
REMARK  status: ('A' for Active; 'I' for Inactive)
REMARK    1  A    between atoms: C_1  and  C_2
REMARK    2  A    between atoms: C_2  and  C_3
REMARK    3  A    between atoms: C_2  and  C_4
REMARK    4  A    between atoms: C_9  and  S_10
REMARK    5  A    between atoms: S_10  and  C_11
REMARK    6  A    between atoms: C_11  and  C_12
REMARK    7  A    between atoms: C_12  and  C_14
REMARK    8  A    between atoms: N_23  and  C_24
REMARK    9  A    between atoms: N_27  and  C_28
REMARK                            x       y       z     vdW  Elec       q    Type
REMARK                         _______ _______ _______ _____ _____    ______ ____
ROOT
ATOM      1  C   UNL     1       2.628   3.468  18.654  0.00  0.00    +0.000 A 
ATOM      2  C   UNL     1       2.923   2.733  17.508  0.00  0.00    +0.000 A 
ATOM      3  N   UNL     1       3.964   2.968  16.694  0.00  0.00    +0.000 NA
ATOM      4  C   UNL     1       4.804   3.978  17.004  0.00  0.00    +0.000 A 
ATOM      5  C   UNL     1       4.672   4.727  18.171  0.00  0.00    +0.000 A 
ATOM      6  C   UNL     1       3.550   4.486  19.017  0.00  0.00    +0.000 A 
ATOM      7  C   UNL     1       5.733   5.731  18.425  0.00  0.00    +0.000 A 
ATOM      8  O   UNL     1       5.867   6.234  19.537  0.00  0.00    +0.000 OA
ATOM      9  N   UNL     1       6.612   6.015  17.384  0.00  0.00    +0.000 N 
ATOM     10  C   UNL     1       7.618   7.044  17.579  0.00  0.00    +0.000 C 
ATOM     11  C   UNL     1       6.704   5.291  16.206  0.00  0.00    +0.000 A 
ATOM     12  O   UNL     1       7.556   5.551  15.354  0.00  0.00    +0.000 OA
ATOM     13  N   UNL     1       5.807   4.261  16.054  0.00  0.00    +0.000 N 
ATOM     14  C   UNL     1       5.804   3.484  14.820  0.00  0.00    +0.000 C 
ENDROOT
BRANCH   1  16
ATOM     15  C   UNL     1       0.483   2.146  18.554  0.00  0.00    +0.000 C 
ATOM     16  C   UNL     1       1.308   3.165  19.358  0.00  0.00    +0.000 C 
ATOM     17  C   UNL     1       1.522   2.654  20.790  0.00  0.00    +0.000 C 
ENDBRANCH   1  16
BRANCH   6  18
ATOM     18  S   UNL     1       3.113   5.599  20.384  0.00  0.00    +0.000 S 
BRANCH  18  19
ATOM     19  C   UNL     1       2.401   7.055  19.514  0.00  0.00    +0.000 C 
BRANCH  19  20
ATOM     20  C   UNL     1       1.540   7.910  20.455  0.00  0.00    +0.000 C 
ATOM     21  O   UNL     1       1.258   7.590  21.609  0.00  0.00    +0.000 OA
BRANCH  20  22
ATOM     22  C   UNL     1       1.015   9.229  19.956  0.00  0.00    +0.000 A 
ATOM     23  C   UNL     1       0.186  10.053  20.727  0.00  0.00    +0.000 A 
ATOM     24  C   UNL     1      -0.287  11.268  20.208  0.00  0.00    +0.000 A 
ATOM     25  C   UNL     1       0.065  11.666  18.920  0.00  0.00    +0.000 A 
ATOM     26 CL   UNL     1      -0.519  13.157  18.293  0.00  0.00    +0.000 Cl
ATOM     27  C   UNL     1       0.888  10.859  18.139  0.00  0.00    +0.000 A 
ATOM     28  C   UNL     1       1.360   9.645  18.658  0.00  0.00    +0.000 A 
ENDBRANCH  20  22
ENDBRANCH  19  20
ENDBRANCH  18  19
ENDBRANCH   6  18
TORSDOF 5
ENDMDL
