MODEL 1
REMARK VINA RESULT:      -6.7      0.000      0.000
REMARK  Name = 
REMARK  6 active torsions:
REMARK  status: ('A' for Active; 'I' for Inactive)
REMARK    1  A    between atoms: C_1  and  C_2
REMARK    2  A    between atoms: C_2  and  O_3
REMARK    3  A    between atoms: O_3  and  C_4
REMARK    4  A    between atoms: C_9  and  O_10
REMARK    5  A    between atoms: O_10  and  C_11
REMARK    6  A    between atoms: C_14  and  C_15
REMARK                            x       y       z     vdW  Elec       q    Type
REMARK                         _______ _______ _______ _____ _____    ______ ____
ROOT
ATOM      1  C   UNL     1       6.473   4.757  14.486  0.00  0.00    +0.000 C 
ATOM      2  O   UNL     1       7.277   5.594  14.093  0.00  0.00    +0.000 OA
ATOM      3  N   UNL     1       5.509   5.007  15.444  0.00  0.00    +0.000 N 
ATOM      4  C   UNL     1       5.345   6.364  15.939  0.00  0.00    +0.000 C 
ATOM      5  C   UNL     1       5.362   6.357  17.456  0.00  0.00    +0.000 C 
ATOM      6  C   UNL     1       4.269   5.432  18.009  0.00  0.00    +0.000 C 
ATOM      7  C   UNL     1       4.405   4.025  17.403  0.00  0.00    +0.000 C 
ATOM      8  C   UNL     1       4.500   4.049  15.878  0.00  0.00    +0.000 C 
ENDROOT
BRANCH   1   9
ATOM      9  O   UNL     1       6.389   3.499  13.982  0.00  0.00    +0.000 OA
BRANCH   9  11
ATOM     10  C   UNL     1       4.952   3.403  12.077  0.00  0.00    +0.000 C 
ATOM     11  C   UNL     1       6.394   3.429  12.550  0.00  0.00    +0.000 C 
ENDBRANCH   9  11
ENDBRANCH   1   9
BRANCH   6  12
ATOM     12  O   UNL     1       2.956   5.922  17.679  0.00  0.00    +0.000 OA
BRANCH  12  13
ATOM     13  C   UNL     1       2.428   6.780  18.614  0.00  0.00    +0.000 A 
ATOM     14  C   UNL     1       2.221   6.265  19.887  0.00  0.00    +0.000 A 
ATOM     15  C   UNL     1       1.705   7.118  20.862  0.00  0.00    +0.000 A 
ATOM     16  C   UNL     1       1.391   8.437  20.537  0.00  0.00    +0.000 A 
ATOM     17  C   UNL     1       1.603   8.841  19.224  0.00  0.00    +0.000 A 
ATOM     18  N   UNL     1       2.117   8.041  18.262  0.00  0.00    +0.000 NA
BRANCH  16  19
ATOM     19  C   UNL     1       0.852   9.420  21.530  0.00  0.00    +0.000 C 
ATOM     20  F   UNL     1      -0.503   9.535  21.496  0.00  0.00    +0.000 F 
ATOM     21  F   UNL     1       1.166   9.089  22.812  0.00  0.00    +0.000 F 
ATOM     22  F   UNL     1       1.340  10.676  21.339  0.00  0.00    +0.000 F 
ENDBRANCH  16  19
ENDBRANCH  12  13
ENDBRANCH   6  12
TORSDOF 5
ENDMDL
MODEL 2
REMARK VINA RESULT:      -6.6      0.723      1.165
REMARK  Name = 
REMARK  6 active torsions:
REMARK  status: ('A' for Active; 'I' for Inactive)
REMARK    1  A    between atoms: C_1  and  C_2
REMARK    2  A    between atoms: C_2  and  O_3
REMARK    3  A    between atoms: O_3  and  C_4
REMARK    4  A    between atoms: C_9  and  O_10
REMARK    5  A    between atoms: O_10  and  C_11
REMARK    6  A    between atoms: C_14  and  C_15
REMARK                            x       y       z     vdW  Elec       q    Type
REMARK                         _______ _______ _______ _____ _____    ______ ____
ROOT
ATOM      1  C   UNL     1       6.697   4.796  14.845  0.00  0.00    +0.000 C 
ATOM      2  O   UNL     1       7.566   5.624  14.596  0.00  0.00    +0.000 OA
ATOM      3  N   UNL     1       5.650   5.019  15.718  0.00  0.00    +0.000 N 
ATOM      4  C   UNL     1       5.484   6.343  16.293  0.00  0.00    +0.000 C 
ATOM      5  C   UNL     1       5.346   6.230  17.800  0.00  0.00    +0.000 C 
ATOM      6  C   UNL     1       4.171   5.315  18.172  0.00  0.00    +0.000 C 
ATOM      7  C   UNL     1       4.319   3.949  17.481  0.00  0.00    +0.000 C 
ATOM      8  C   UNL     1       4.570   4.076  15.979  0.00  0.00    +0.000 C 
ENDROOT
BRANCH   1   9
ATOM      9  O   UNL     1       6.621   3.581  14.243  0.00  0.00    +0.000 OA
BRANCH   9  11
ATOM     10  C   UNL     1       7.019   3.620  11.889  0.00  0.00    +0.000 C 
ATOM     11  C   UNL     1       5.957   3.585  12.972  0.00  0.00    +0.000 C 
ENDBRANCH   9  11
ENDBRANCH   1   9
BRANCH   6  12
ATOM     12  O   UNL     1       2.916   5.882  17.750  0.00  0.00    +0.000 OA
BRANCH  12  13
ATOM     13  C   UNL     1       2.408   6.820  18.617  0.00  0.00    +0.000 A 
ATOM     14  C   UNL     1       2.162   8.083  18.096  0.00  0.00    +0.000 A 
ATOM     15  C   UNL     1       1.628   9.050  18.947  0.00  0.00    +0.000 A 
ATOM     16  C   UNL     1       1.382   8.740  20.285  0.00  0.00    +0.000 A 
ATOM     17  C   UNL     1       1.699   7.456  20.714  0.00  0.00    +0.000 A 
ATOM     18  N   UNL     1       2.201   6.494  19.907  0.00  0.00    +0.000 NA
BRANCH  16  19
ATOM     19  C   UNL     1       0.793   9.714  21.257  0.00  0.00    +0.000 C 
ATOM     20  F   UNL     1      -0.562   9.804  21.178  0.00  0.00    +0.000 F 
ATOM     21  F   UNL     1       1.071   9.390  22.550  0.00  0.00    +0.000 F 
ATOM     22  F   UNL     1       1.264  10.978  21.080  0.00  0.00    +0.000 F 
ENDBRANCH  16  19
ENDBRANCH  12  13
ENDBRANCH   6  12
TORSDOF 5
ENDMDL
MODEL 3
REMARK VINA RESULT:      -6.5      1.073      1.649
REMARK  Name = 
REMARK  6 active torsions:
REMARK  status: ('A' for Active; 'I' for Inactive)
REMARK    1  A    between atoms: C_1  and  C_2
REMARK    2  A    between atoms: C_2  and  O_3
REMARK    3  A    between atoms: O_3  and  C_4
REMARK    4  A    between atoms: C_9  and  O_10
REMARK    5  A    between atoms: O_10  and  C_11
REMARK    6  A    between atoms: C_14  and  C_15
REMARK                            x       y       z     vdW  Elec       q    Type
REMARK                         _______ _______ _______ _____ _____    ______ ____
ROOT
ATOM      1  C   UNL     1       6.838   5.087  15.689  0.00  0.00    +0.000 C 
ATOM      2  O   UNL     1       7.702   5.949  15.789  0.00  0.00    +0.000 OA
ATOM      3  N   UNL     1       5.681   5.067  16.443  0.00  0.00    +0.000 N 
ATOM      4  C   UNL     1       5.397   6.186  17.326  0.00  0.00    +0.000 C 
ATOM      5  C   UNL     1       5.072   5.669  18.715  0.00  0.00    +0.000 C 
ATOM      6  C   UNL     1       3.890   4.689  18.669  0.00  0.00    +0.000 C 
ATOM      7  C   UNL     1       4.172   3.561  17.662  0.00  0.00    +0.000 C 
ATOM      8  C   UNL     1       4.609   4.090  16.296  0.00  0.00    +0.000 C 
ENDROOT
BRANCH   1   9
ATOM      9  O   UNL     1       6.881   4.080  14.779  0.00  0.00    +0.000 OA
BRANCH   9  11
ATOM     10  C   UNL     1       5.924   3.552  12.655  0.00  0.00    +0.000 C 
ATOM     11  C   UNL     1       6.828   4.510  13.411  0.00  0.00    +0.000 C 
ENDBRANCH   9  11
ENDBRANCH   1   9
BRANCH   6  12
ATOM     12  O   UNL     1       2.681   5.351  18.252  0.00  0.00    +0.000 OA
BRANCH  12  13
ATOM     13  C   UNL     1       2.220   6.286  19.148  0.00  0.00    +0.000 A 
ATOM     14  C   UNL     1       2.226   7.609  18.729  0.00  0.00    +0.000 A 
ATOM     15  C   UNL     1       1.745   8.578  19.610  0.00  0.00    +0.000 A 
ATOM     16  C   UNL     1       1.302   8.205  20.878  0.00  0.00    +0.000 A 
ATOM     17  C   UNL     1       1.372   6.858  21.212  0.00  0.00    +0.000 A 
ATOM     18  N   UNL     1       1.818   5.895  20.372  0.00  0.00    +0.000 NA
BRANCH  16  19
ATOM     19  C   UNL     1       0.754   9.180  21.874  0.00  0.00    +0.000 C 
ATOM     20  F   UNL     1       1.484   9.250  23.020  0.00  0.00    +0.000 F 
ATOM     21  F   UNL     1       0.705  10.450  21.386  0.00  0.00    +0.000 F 
ATOM     22  F   UNL     1      -0.516   8.878  22.257  0.00  0.00    +0.000 F 
ENDBRANCH  16  19
ENDBRANCH  12  13
ENDBRANCH   6  12
TORSDOF 5
ENDMDL
MODEL 4
REMARK VINA RESULT:      -6.3      3.512      4.002
REMARK  Name = 
REMARK  6 active torsions:
REMARK  status: ('A' for Active; 'I' for Inactive)
REMARK    1  A    between atoms: C_1  and  C_2
REMARK    2  A    between atoms: C_2  and  O_3
REMARK    3  A    between atoms: O_3  and  C_4
REMARK    4  A    between atoms: C_9  and  O_10
REMARK    5  A    between atoms: O_10  and  C_11
REMARK    6  A    between atoms: C_14  and  C_15
REMARK                            x       y       z     vdW  Elec       q    Type
REMARK                         _______ _______ _______ _____ _____    ______ ____
ROOT
ATOM      1  C   UNL     1       7.149   4.907  13.972  0.00  0.00    +0.000 C 
ATOM      2  O   UNL     1       7.856   5.689  13.348  0.00  0.00    +0.000 OA
ATOM      3  N   UNL     1       6.599   5.186  15.208  0.00  0.00    +0.000 N 
ATOM      4  C   UNL     1       6.758   6.520  15.763  0.00  0.00    +0.000 C 
ATOM      5  C   UNL     1       7.288   6.422  17.182  0.00  0.00    +0.000 C 
ATOM      6  C   UNL     1       6.355   5.569  18.054  0.00  0.00    +0.000 C 
ATOM      7  C   UNL     1       6.128   4.193  17.403  0.00  0.00    +0.000 C 
ATOM      8  C   UNL     1       5.702   4.300  15.939  0.00  0.00    +0.000 C 
ENDROOT
BRANCH   1   9
ATOM      9  O   UNL     1       6.766   3.694  13.497  0.00  0.00    +0.000 OA
BRANCH   9  11
ATOM     10  C   UNL     1       5.506   2.580  11.801  0.00  0.00    +0.000 C 
ATOM     11  C   UNL     1       6.544   3.651  12.080  0.00  0.00    +0.000 C 
ENDBRANCH   9  11
ENDBRANCH   1   9
BRANCH   6  12
ATOM     12  O   UNL     1       5.068   6.195  18.206  0.00  0.00    +0.000 OA
BRANCH  12  13
ATOM     13  C   UNL     1       4.080   5.341  18.637  0.00  0.00    +0.000 A 
ATOM     14  C   UNL     1       2.875   5.382  17.948  0.00  0.00    +0.000 A 
ATOM     15  C   UNL     1       1.861   4.513  18.350  0.00  0.00    +0.000 A 
ATOM     16  C   UNL     1       2.067   3.657  19.432  0.00  0.00    +0.000 A 
ATOM     17  C   UNL     1       3.297   3.722  20.075  0.00  0.00    +0.000 A 
ATOM     18  N   UNL     1       4.305   4.542  19.696  0.00  0.00    +0.000 NA
BRANCH  16  19
ATOM     19  C   UNL     1       1.037   2.682  19.913  0.00  0.00    +0.000 C 
ATOM     20  F   UNL     1       1.462   1.389  19.885  0.00  0.00    +0.000 F 
ATOM     21  F   UNL     1       0.655   2.921  21.197  0.00  0.00    +0.000 F 
ATOM     22  F   UNL     1      -0.103   2.718  19.172  0.00  0.00    +0.000 F 
ENDBRANCH  16  19
ENDBRANCH  12  13
ENDBRANCH   6  12
TORSDOF 5
ENDMDL
MODEL 5
REMARK VINA RESULT:      -6.3      3.300      4.206
REMARK  Name = 
REMARK  6 active torsions:
REMARK  status: ('A' for Active; 'I' for Inactive)
REMARK    1  A    between atoms: C_1  and  C_2
REMARK    2  A    between atoms: C_2  and  O_3
REMARK    3  A    between atoms: O_3  and  C_4
REMARK    4  A    between atoms: C_9  and  O_10
REMARK    5  A    between atoms: O_10  and  C_11
REMARK    6  A    between atoms: C_14  and  C_15
REMARK                            x       y       z     vdW  Elec       q    Type
REMARK                         _______ _______ _______ _____ _____    ______ ____
ROOT
ATOM      1  C   UNL     1       6.010   4.041  13.850  0.00  0.00    +0.000 C 
ATOM      2  O   UNL     1       4.954   3.766  13.293  0.00  0.00    +0.000 OA
ATOM      3  N   UNL     1       6.106   4.408  15.178  0.00  0.00    +0.000 N 
ATOM      4  C   UNL     1       4.915   4.358  16.009  0.00  0.00    +0.000 C 
ATOM      5  C   UNL     1       4.745   5.678  16.736  0.00  0.00    +0.000 C 
ATOM      6  C   UNL     1       5.989   6.003  17.575  0.00  0.00    +0.000 C 
ATOM      7  C   UNL     1       7.250   5.963  16.695  0.00  0.00    +0.000 C 
ATOM      8  C   UNL     1       7.356   4.674  15.879  0.00  0.00    +0.000 C 
ENDROOT
BRANCH   1   9
ATOM      9  O   UNL     1       7.224   3.955  13.247  0.00  0.00    +0.000 OA
BRANCH   9  11
ATOM     10  C   UNL     1       8.411   5.905  12.545  0.00  0.00    +0.000 C 
ATOM     11  C   UNL     1       7.402   4.847  12.137  0.00  0.00    +0.000 C 
ENDBRANCH   9  11
ENDBRANCH   1   9
BRANCH   6  12
ATOM     12  O   UNL     1       6.169   5.044  18.634  0.00  0.00    +0.000 OA
BRANCH  12  13
ATOM     13  C   UNL     1       4.992   4.580  19.172  0.00  0.00    +0.000 A 
ATOM     14  C   UNL     1       4.048   5.535  19.526  0.00  0.00    +0.000 A 
ATOM     15  C   UNL     1       2.837   5.093  20.057  0.00  0.00    +0.000 A 
ATOM     16  C   UNL     1       2.614   3.728  20.239  0.00  0.00    +0.000 A 
ATOM     17  C   UNL     1       3.639   2.859  19.884  0.00  0.00    +0.000 A 
ATOM     18  N   UNL     1       4.817   3.258  19.353  0.00  0.00    +0.000 NA
BRANCH  16  19
ATOM     19  C   UNL     1       1.335   3.172  20.783  0.00  0.00    +0.000 C 
ATOM     20  F   UNL     1       1.390   2.890  22.113  0.00  0.00    +0.000 F 
ATOM     21  F   UNL     1       0.288   4.028  20.627  0.00  0.00    +0.000 F 
ATOM     22  F   UNL     1       0.965   2.016  20.170  0.00  0.00    +0.000 F 
ENDBRANCH  16  19
ENDBRANCH  12  13
ENDBRANCH   6  12
TORSDOF 5
ENDMDL
MODEL 6
REMARK VINA RESULT:      -6.3      0.712      1.441
REMARK  Name = 
REMARK  6 active torsions:
REMARK  status: ('A' for Active; 'I' for Inactive)
REMARK    1  A    between atoms: C_1  and  C_2
REMARK    2  A    between atoms: C_2  and  O_3
REMARK    3  A    between atoms: O_3  and  C_4
REMARK    4  A    between atoms: C_9  and  O_10
REMARK    5  A    between atoms: O_10  and  C_11
REMARK    6  A    between atoms: C_14  and  C_15
REMARK                            x       y       z     vdW  Elec       q    Type
REMARK                         _______ _______ _______ _____ _____    ______ ____
ROOT
ATOM      1  C   UNL     1       6.812   4.839  14.500  0.00  0.00    +0.000 C 
ATOM      2  O   UNL     1       7.771   5.570  14.278  0.00  0.00    +0.000 OA
ATOM      3  N   UNL     1       5.778   5.166  15.354  0.00  0.00    +0.000 N 
ATOM      4  C   UNL     1       5.744   6.495  15.942  0.00  0.00    +0.000 C 
ATOM      5  C   UNL     1       5.563   6.382  17.445  0.00  0.00    +0.000 C 
ATOM      6  C   UNL     1       4.287   5.597  17.782  0.00  0.00    +0.000 C 
ATOM      7  C   UNL     1       4.300   4.230  17.077  0.00  0.00    +0.000 C 
ATOM      8  C   UNL     1       4.595   4.344  15.582  0.00  0.00    +0.000 C 
ENDROOT
BRANCH   1   9
ATOM      9  O   UNL     1       6.617   3.646  13.882  0.00  0.00    +0.000 OA
BRANCH   9  11
ATOM     10  C   UNL     1       6.315   2.367  11.887  0.00  0.00    +0.000 C 
ATOM     11  C   UNL     1       6.190   3.743  12.516  0.00  0.00    +0.000 C 
ENDBRANCH   9  11
ENDBRANCH   1   9
BRANCH   6  12
ATOM     12  O   UNL     1       3.111   6.301  17.342  0.00  0.00    +0.000 OA
BRANCH  12  13
ATOM     13  C   UNL     1       2.524   7.071  18.318  0.00  0.00    +0.000 A 
ATOM     14  C   UNL     1       2.058   8.321  17.932  0.00  0.00    +0.000 A 
ATOM     15  C   UNL     1       1.440   9.116  18.897  0.00  0.00    +0.000 A 
ATOM     16  C   UNL     1       1.329   8.658  20.209  0.00  0.00    +0.000 A 
ATOM     17  C   UNL     1       1.862   7.407  20.498  0.00  0.00    +0.000 A 
ATOM     18  N   UNL     1       2.451   6.607  19.580  0.00  0.00    +0.000 NA
BRANCH  16  19
ATOM     19  C   UNL     1       0.664   9.441  21.298  0.00  0.00    +0.000 C 
ATOM     20  F   UNL     1       1.307  10.603  21.598  0.00  0.00    +0.000 F 
ATOM     21  F   UNL     1      -0.612   9.793  20.979  0.00  0.00    +0.000 F 
ATOM     22  F   UNL     1       0.579   8.747  22.464  0.00  0.00    +0.000 F 
ENDBRANCH  16  19
ENDBRANCH  12  13
ENDBRANCH   6  12
TORSDOF 5
ENDMDL
MODEL 7
REMARK VINA RESULT:      -6.3      3.334      4.110
REMARK  Name = 
REMARK  6 active torsions:
REMARK  status: ('A' for Active; 'I' for Inactive)
REMARK    1  A    between atoms: C_1  and  C_2
REMARK    2  A    between atoms: C_2  and  O_3
REMARK    3  A    between atoms: O_3  and  C_4
REMARK    4  A    between atoms: C_9  and  O_10
REMARK    5  A    between atoms: O_10  and  C_11
REMARK    6  A    between atoms: C_14  and  C_15
REMARK                            x       y       z     vdW  Elec       q    Type
REMARK                         _______ _______ _______ _____ _____    ______ ____
ROOT
ATOM      1  C   UNL     1       5.923   4.046  13.834  0.00  0.00    +0.000 C 
ATOM      2  O   UNL     1       4.855   3.753  13.310  0.00  0.00    +0.000 OA
ATOM      3  N   UNL     1       6.053   4.425  15.156  0.00  0.00    +0.000 N 
ATOM      4  C   UNL     1       4.887   4.365  16.022  0.00  0.00    +0.000 C 
ATOM      5  C   UNL     1       4.721   5.689  16.744  0.00  0.00    +0.000 C 
ATOM      6  C   UNL     1       5.985   6.037  17.543  0.00  0.00    +0.000 C 
ATOM      7  C   UNL     1       7.220   6.006  16.626  0.00  0.00    +0.000 C 
ATOM      8  C   UNL     1       7.319   4.713  15.818  0.00  0.00    +0.000 C 
ENDROOT
BRANCH   1   9
ATOM      9  O   UNL     1       7.119   3.971  13.196  0.00  0.00    +0.000 OA
BRANCH   9  11
ATOM     10  C   UNL     1       7.226   2.390  11.409  0.00  0.00    +0.000 C 
ATOM     11  C   UNL     1       7.028   3.851  11.769  0.00  0.00    +0.000 C 
ENDBRANCH   9  11
ENDBRANCH   1   9
BRANCH   6  12
ATOM     12  O   UNL     1       6.208   5.088  18.603  0.00  0.00    +0.000 OA
BRANCH  12  13
ATOM     13  C   UNL     1       5.053   4.598  19.165  0.00  0.00    +0.000 A 
ATOM     14  C   UNL     1       4.091   5.531  19.530  0.00  0.00    +0.000 A 
ATOM     15  C   UNL     1       2.901   5.062  20.084  0.00  0.00    +0.000 A 
ATOM     16  C   UNL     1       2.717   3.693  20.281  0.00  0.00    +0.000 A 
ATOM     17  C   UNL     1       3.757   2.848  19.915  0.00  0.00    +0.000 A 
ATOM     18  N   UNL     1       4.916   3.274  19.359  0.00  0.00    +0.000 NA
BRANCH  16  19
ATOM     19  C   UNL     1       1.462   3.109  20.852  0.00  0.00    +0.000 C 
ATOM     20  F   UNL     1       1.140   1.898  20.321  0.00  0.00    +0.000 F 
ATOM     21  F   UNL     1       1.544   2.916  22.197  0.00  0.00    +0.000 F 
ATOM     22  F   UNL     1       0.378   3.905  20.655  0.00  0.00    +0.000 F 
ENDBRANCH  16  19
ENDBRANCH  12  13
ENDBRANCH   6  12
TORSDOF 5
ENDMDL
MODEL 8
REMARK VINA RESULT:      -6.1      3.179      3.784
REMARK  Name = 
REMARK  6 active torsions:
REMARK  status: ('A' for Active; 'I' for Inactive)
REMARK    1  A    between atoms: C_1  and  C_2
REMARK    2  A    between atoms: C_2  and  O_3
REMARK    3  A    between atoms: O_3  and  C_4
REMARK    4  A    between atoms: C_9  and  O_10
REMARK    5  A    between atoms: O_10  and  C_11
REMARK    6  A    between atoms: C_14  and  C_15
REMARK                            x       y       z     vdW  Elec       q    Type
REMARK                         _______ _______ _______ _____ _____    ______ ____
ROOT
ATOM      1  C   UNL     1       6.408   3.765  12.892  0.00  0.00    +0.000 C 
ATOM      2  O   UNL     1       7.243   4.279  12.156  0.00  0.00    +0.000 OA
ATOM      3  N   UNL     1       6.156   4.189  14.182  0.00  0.00    +0.000 N 
ATOM      4  C   UNL     1       6.822   5.384  14.673  0.00  0.00    +0.000 C 
ATOM      5  C   UNL     1       7.477   5.089  16.010  0.00  0.00    +0.000 C 
ATOM      6  C   UNL     1       6.442   4.578  17.023  0.00  0.00    +0.000 C 
ATOM      7  C   UNL     1       5.685   3.369  16.448  0.00  0.00    +0.000 C 
ATOM      8  C   UNL     1       5.124   3.637  15.052  0.00  0.00    +0.000 C 
ENDROOT
BRANCH   1   9
ATOM      9  O   UNL     1       5.585   2.757  12.506  0.00  0.00    +0.000 OA
BRANCH   9  11
ATOM     10  C   UNL     1       3.756   3.339  11.085  0.00  0.00    +0.000 C 
ATOM     11  C   UNL     1       5.178   2.812  11.132  0.00  0.00    +0.000 C 
ENDBRANCH   9  11
ENDBRANCH   1   9
BRANCH   6  12
ATOM     12  O   UNL     1       5.468   5.593  17.330  0.00  0.00    +0.000 OA
BRANCH  12  13
ATOM     13  C   UNL     1       4.396   5.136  18.059  0.00  0.00    +0.000 A 
ATOM     14  C   UNL     1       3.133   5.428  17.563  0.00  0.00    +0.000 A 
ATOM     15  C   UNL     1       2.027   4.960  18.271  0.00  0.00    +0.000 A 
ATOM     16  C   UNL     1       2.210   4.245  19.454  0.00  0.00    +0.000 A 
ATOM     17  C   UNL     1       3.517   4.038  19.882  0.00  0.00    +0.000 A 
ATOM     18  N   UNL     1       4.608   4.466  19.207  0.00  0.00    +0.000 NA
BRANCH  16  19
ATOM     19  C   UNL     1       1.077   3.692  20.262  0.00  0.00    +0.000 C 
ATOM     20  F   UNL     1       1.482   3.039  21.385  0.00  0.00    +0.000 F 
ATOM     21  F   UNL     1       0.219   4.661  20.684  0.00  0.00    +0.000 F 
ATOM     22  F   UNL     1       0.322   2.803  19.563  0.00  0.00    +0.000 F 
ENDBRANCH  16  19
ENDBRANCH  12  13
ENDBRANCH   6  12
TORSDOF 5
ENDMDL
MODEL 9
REMARK VINA RESULT:      -6.0      3.311      3.813
REMARK  Name = 
REMARK  6 active torsions:
REMARK  status: ('A' for Active; 'I' for Inactive)
REMARK    1  A    between atoms: C_1  and  C_2
REMARK    2  A    between atoms: C_2  and  O_3
REMARK    3  A    between atoms: O_3  and  C_4
REMARK    4  A    between atoms: C_9  and  O_10
REMARK    5  A    between atoms: O_10  and  C_11
REMARK    6  A    between atoms: C_14  and  C_15
REMARK                            x       y       z     vdW  Elec       q    Type
REMARK                         _______ _______ _______ _____ _____    ______ ____
ROOT
ATOM      1  C   UNL     1       6.667   3.685  12.418  0.00  0.00    +0.000 C 
ATOM      2  O   UNL     1       7.525   4.262  11.761  0.00  0.00    +0.000 OA
ATOM      3  N   UNL     1       6.270   4.082  13.680  0.00  0.00    +0.000 N 
ATOM      4  C   UNL     1       6.802   5.318  14.229  0.00  0.00    +0.000 C 
ATOM      5  C   UNL     1       7.353   5.063  15.619  0.00  0.00    +0.000 C 
ATOM      6  C   UNL     1       6.271   4.474  16.535  0.00  0.00    +0.000 C 
ATOM      7  C   UNL     1       5.657   3.217  15.895  0.00  0.00    +0.000 C 
ATOM      8  C   UNL     1       5.206   3.453  14.454  0.00  0.00    +0.000 C 
ENDROOT
BRANCH   1   9
ATOM      9  O   UNL     1       5.955   2.624  11.960  0.00  0.00    +0.000 OA
BRANCH   9  11
ATOM     10  C   UNL     1       6.204   0.353  11.264  0.00  0.00    +0.000 C 
ATOM     11  C   UNL     1       6.664   1.782  11.041  0.00  0.00    +0.000 C 
ENDBRANCH   9  11
ENDBRANCH   1   9
BRANCH   6  12
ATOM     12  O   UNL     1       5.203   5.415  16.752  0.00  0.00    +0.000 OA
BRANCH  12  13
ATOM     13  C   UNL     1       4.309   5.030  17.723  0.00  0.00    +0.000 A 
ATOM     14  C   UNL     1       3.021   4.729  17.301  0.00  0.00    +0.000 A 
ATOM     15  C   UNL     1       2.097   4.317  18.261  0.00  0.00    +0.000 A 
ATOM     16  C   UNL     1       2.473   4.242  19.602  0.00  0.00    +0.000 A 
ATOM     17  C   UNL     1       3.778   4.601  19.922  0.00  0.00    +0.000 A 
ATOM     18  N   UNL     1       4.699   4.988  19.010  0.00  0.00    +0.000 NA
BRANCH  16  19
ATOM     19  C   UNL     1       1.548   3.791  20.689  0.00  0.00    +0.000 C 
ATOM     20  F   UNL     1       1.167   2.490  20.569  0.00  0.00    +0.000 F 
ATOM     21  F   UNL     1       2.106   3.903  21.926  0.00  0.00    +0.000 F 
ATOM     22  F   UNL     1       0.399   4.517  20.731  0.00  0.00    +0.000 F 
ENDBRANCH  16  19
ENDBRANCH  12  13
ENDBRANCH   6  12
TORSDOF 5
ENDMDL
