MODEL 1
REMARK VINA RESULT:      -8.5      0.000      0.000
REMARK  Name = 
REMARK  3 active torsions:
REMARK  status: ('A' for Active; 'I' for Inactive)
REMARK    1  A    between atoms: C_2  and  C_4
REMARK    2  A    between atoms: N_6  and  S_7
REMARK    3  A    between atoms: S_7  and  C_10
REMARK                            x       y       z     vdW  Elec       q    Type
REMARK                         _______ _______ _______ _____ _____    ______ ____
ROOT
ATOM      1  C   UNL     1       3.484   6.888  17.649  0.00  0.00    +0.000 A 
ATOM      2  C   UNL     1       4.786   6.997  17.191  0.00  0.00    +0.000 A 
ATOM      3  N   UNL     1       5.266   5.730  16.967  0.00  0.00    +0.000 N 
ATOM      4  C   UNL     1       4.332   4.775  17.307  0.00  0.00    +0.000 A 
ATOM      5  C   UNL     1       4.346   3.368  17.273  0.00  0.00    +0.000 A 
ATOM      6  C   UNL     1       3.191   2.678  17.655  0.00  0.00    +0.000 A 
ATOM      7  C   UNL     1       2.054   3.360  18.067  0.00  0.00    +0.000 A 
ATOM      8  C   UNL     1       2.048   4.756  18.115  0.00  0.00    +0.000 A 
ATOM      9  C   UNL     1       3.197   5.484  17.732  0.00  0.00    +0.000 A 
ENDROOT
BRANCH   1  11
ATOM     10  N   UNL     1       2.135   7.986  19.282  0.00  0.00    +0.000 N 
ATOM     11  C   UNL     1       2.593   7.987  17.995  0.00  0.00    +0.000 C 
ATOM     12  O   UNL     1       2.286   8.888  17.224  0.00  0.00    +0.000 OA
ATOM     13  H   UNL     1       1.634   8.814  19.575  0.00  0.00    +0.000 HD
ATOM     14  H   UNL     1       2.580   7.425  19.993  0.00  0.00    +0.000 HD
ENDBRANCH   1  11
BRANCH   3  15
ATOM     15  S   UNL     1       6.883   5.434  16.507  0.00  0.00    +0.000 S 
ATOM     16  O   UNL     1       7.567   6.709  16.525  0.00  0.00    +0.000 OA
ATOM     17  O   UNL     1       7.327   4.323  17.332  0.00  0.00    +0.000 OA
BRANCH  15  18
ATOM     18  C   UNL     1       6.754   4.871  14.830  0.00  0.00    +0.000 A 
ATOM     19  C   UNL     1       5.710   4.019  14.462  0.00  0.00    +0.000 A 
ATOM     20  C   UNL     1       5.620   3.572  13.143  0.00  0.00    +0.000 A 
ATOM     21  C   UNL     1       6.557   3.991  12.198  0.00  0.00    +0.000 A 
ATOM     22  C   UNL     1       7.579   4.869  12.563  0.00  0.00    +0.000 A 
ATOM     23  C   UNL     1       7.679   5.317  13.881  0.00  0.00    +0.000 A 
ENDBRANCH  15  18
ENDBRANCH   3  15
TORSDOF 3
ENDMDL
MODEL 2
REMARK VINA RESULT:      -8.4      1.807      3.115
REMARK  Name = 
REMARK  3 active torsions:
REMARK  status: ('A' for Active; 'I' for Inactive)
REMARK    1  A    between atoms: C_2  and  C_4
REMARK    2  A    between atoms: N_6  and  S_7
REMARK    3  A    between atoms: S_7  and  C_10
REMARK                            x       y       z     vdW  Elec       q    Type
REMARK                         _______ _______ _______ _____ _____    ______ ____
ROOT
ATOM      1  C   UNL     1       3.985   3.691  18.180  0.00  0.00    +0.000 A 
ATOM      2  C   UNL     1       5.275   3.613  17.682  0.00  0.00    +0.000 A 
ATOM      3  N   UNL     1       5.654   4.870  17.280  0.00  0.00    +0.000 N 
ATOM      4  C   UNL     1       4.632   5.779  17.455  0.00  0.00    +0.000 A 
ATOM      5  C   UNL     1       4.522   7.158  17.193  0.00  0.00    +0.000 A 
ATOM      6  C   UNL     1       3.334   7.811  17.536  0.00  0.00    +0.000 A 
ATOM      7  C   UNL     1       2.279   7.119  18.116  0.00  0.00    +0.000 A 
ATOM      8  C   UNL     1       2.385   5.748  18.360  0.00  0.00    +0.000 A 
ATOM      9  C   UNL     1       3.573   5.059  18.031  0.00  0.00    +0.000 A 
ENDROOT
BRANCH   1  11
ATOM     10  N   UNL     1       2.610   1.778  17.807  0.00  0.00    +0.000 N 
ATOM     11  C   UNL     1       3.201   2.594  18.729  0.00  0.00    +0.000 C 
ATOM     12  O   UNL     1       3.090   2.365  19.927  0.00  0.00    +0.000 OA
ATOM     13  H   UNL     1       2.183   0.936  18.169  0.00  0.00    +0.000 HD
ATOM     14  H   UNL     1       2.904   1.784  16.842  0.00  0.00    +0.000 HD
ENDBRANCH   1  11
BRANCH   3  15
ATOM     15  S   UNL     1       7.141   5.169  16.497  0.00  0.00    +0.000 S 
ATOM     16  O   UNL     1       7.365   6.598  16.548  0.00  0.00    +0.000 OA
ATOM     17  O   UNL     1       8.084   4.232  17.081  0.00  0.00    +0.000 OA
BRANCH  15  18
ATOM     18  C   UNL     1       6.842   4.690  14.816  0.00  0.00    +0.000 A 
ATOM     19  C   UNL     1       5.731   3.902  14.505  0.00  0.00    +0.000 A 
ATOM     20  C   UNL     1       5.508   3.521  13.182  0.00  0.00    +0.000 A 
ATOM     21  C   UNL     1       6.380   3.941  12.177  0.00  0.00    +0.000 A 
ATOM     22  C   UNL     1       7.470   4.756  12.488  0.00  0.00    +0.000 A 
ATOM     23  C   UNL     1       7.703   5.138  13.809  0.00  0.00    +0.000 A 
ENDBRANCH  15  18
ENDBRANCH   3  15
TORSDOF 3
ENDMDL
MODEL 3
REMARK VINA RESULT:      -8.3      1.828      3.293
REMARK  Name = 
REMARK  3 active torsions:
REMARK  status: ('A' for Active; 'I' for Inactive)
REMARK    1  A    between atoms: C_2  and  C_4
REMARK    2  A    between atoms: N_6  and  S_7
REMARK    3  A    between atoms: S_7  and  C_10
REMARK                            x       y       z     vdW  Elec       q    Type
REMARK                         _______ _______ _______ _____ _____    ______ ____
ROOT
ATOM      1  C   UNL     1       4.034   3.675  18.242  0.00  0.00    +0.000 A 
ATOM      2  C   UNL     1       5.329   3.601  17.757  0.00  0.00    +0.000 A 
ATOM      3  N   UNL     1       5.695   4.851  17.324  0.00  0.00    +0.000 N 
ATOM      4  C   UNL     1       4.660   5.751  17.466  0.00  0.00    +0.000 A 
ATOM      5  C   UNL     1       4.534   7.120  17.165  0.00  0.00    +0.000 A 
ATOM      6  C   UNL     1       3.335   7.767  17.479  0.00  0.00    +0.000 A 
ATOM      7  C   UNL     1       2.284   7.077  18.069  0.00  0.00    +0.000 A 
ATOM      8  C   UNL     1       2.405   5.715  18.352  0.00  0.00    +0.000 A 
ATOM      9  C   UNL     1       3.605   5.032  18.052  0.00  0.00    +0.000 A 
ENDROOT
BRANCH   1  11
ATOM     10  N   UNL     1       2.618   1.784  17.911  0.00  0.00    +0.000 N 
ATOM     11  C   UNL     1       3.259   2.583  18.815  0.00  0.00    +0.000 C 
ATOM     12  O   UNL     1       3.196   2.345  20.014  0.00  0.00    +0.000 OA
ATOM     13  H   UNL     1       2.196   0.944  18.283  0.00  0.00    +0.000 HD
ATOM     14  H   UNL     1       2.872   1.794  16.934  0.00  0.00    +0.000 HD
ENDBRANCH   1  11
BRANCH   3  15
ATOM     15  S   UNL     1       7.185   5.148  16.546  0.00  0.00    +0.000 S 
ATOM     16  O   UNL     1       7.429   6.572  16.631  0.00  0.00    +0.000 OA
ATOM     17  O   UNL     1       8.116   4.184  17.105  0.00  0.00    +0.000 OA
BRANCH  15  18
ATOM     18  C   UNL     1       6.877   4.715  14.854  0.00  0.00    +0.000 A 
ATOM     19  C   UNL     1       7.718   5.199  13.849  0.00  0.00    +0.000 A 
ATOM     20  C   UNL     1       7.464   4.861  12.519  0.00  0.00    +0.000 A 
ATOM     21  C   UNL     1       6.388   4.032  12.201  0.00  0.00    +0.000 A 
ATOM     22  C   UNL     1       5.570   3.524  13.212  0.00  0.00    +0.000 A 
ATOM     23  C   UNL     1       5.814   3.860  14.544  0.00  0.00    +0.000 A 
ENDBRANCH  15  18
ENDBRANCH   3  15
TORSDOF 3
ENDMDL
MODEL 4
REMARK VINA RESULT:      -8.3      2.845      6.020
REMARK  Name = 
REMARK  3 active torsions:
REMARK  status: ('A' for Active; 'I' for Inactive)
REMARK    1  A    between atoms: C_2  and  C_4
REMARK    2  A    between atoms: N_6  and  S_7
REMARK    3  A    between atoms: S_7  and  C_10
REMARK                            x       y       z     vdW  Elec       q    Type
REMARK                         _______ _______ _______ _____ _____    ______ ____
ROOT
ATOM      1  C   UNL     1       6.684   5.490  18.669  0.00  0.00    +0.000 A 
ATOM      2  C   UNL     1       5.471   5.329  19.318  0.00  0.00    +0.000 A 
ATOM      3  N   UNL     1       4.576   4.795  18.424  0.00  0.00    +0.000 N 
ATOM      4  C   UNL     1       5.148   4.638  17.179  0.00  0.00    +0.000 A 
ATOM      5  C   UNL     1       4.654   4.153  15.953  0.00  0.00    +0.000 A 
ATOM      6  C   UNL     1       5.526   4.080  14.863  0.00  0.00    +0.000 A 
ATOM      7  C   UNL     1       6.849   4.484  14.978  0.00  0.00    +0.000 A 
ATOM      8  C   UNL     1       7.333   4.979  16.190  0.00  0.00    +0.000 A 
ATOM      9  C   UNL     1       6.480   5.061  17.313  0.00  0.00    +0.000 A 
ENDROOT
BRANCH   1  11
ATOM     10  N   UNL     1       8.479   5.231  20.218  0.00  0.00    +0.000 N 
ATOM     11  C   UNL     1       7.915   6.010  19.248  0.00  0.00    +0.000 C 
ATOM     12  O   UNL     1       8.455   7.048  18.887  0.00  0.00    +0.000 OA
ATOM     13  H   UNL     1       9.402   5.508  20.527  0.00  0.00    +0.000 HD
ATOM     14  H   UNL     1       8.209   4.266  20.334  0.00  0.00    +0.000 HD
ENDBRANCH   1  11
BRANCH   3  15
ATOM     15  S   UNL     1       2.931   4.557  18.811  0.00  0.00    +0.000 S 
ATOM     16  O   UNL     1       2.273   4.114  17.601  0.00  0.00    +0.000 OA
ATOM     17  O   UNL     1       2.927   3.748  20.017  0.00  0.00    +0.000 OA
BRANCH  15  18
ATOM     18  C   UNL     1       2.350   6.181  19.223  0.00  0.00    +0.000 A 
ATOM     19  C   UNL     1       1.853   6.436  20.504  0.00  0.00    +0.000 A 
ATOM     20  C   UNL     1       1.388   7.714  20.819  0.00  0.00    +0.000 A 
ATOM     21  C   UNL     1       1.438   8.730  19.865  0.00  0.00    +0.000 A 
ATOM     22  C   UNL     1       1.966   8.479  18.597  0.00  0.00    +0.000 A 
ATOM     23  C   UNL     1       2.429   7.203  18.272  0.00  0.00    +0.000 A 
ENDBRANCH  15  18
ENDBRANCH   3  15
TORSDOF 3
ENDMDL
MODEL 5
REMARK VINA RESULT:      -8.3      2.901      6.168
REMARK  Name = 
REMARK  3 active torsions:
REMARK  status: ('A' for Active; 'I' for Inactive)
REMARK    1  A    between atoms: C_2  and  C_4
REMARK    2  A    between atoms: N_6  and  S_7
REMARK    3  A    between atoms: S_7  and  C_10
REMARK                            x       y       z     vdW  Elec       q    Type
REMARK                         _______ _______ _______ _____ _____    ______ ____
ROOT
ATOM      1  C   UNL     1       5.966   4.491  15.763  0.00  0.00    +0.000 A 
ATOM      2  C   UNL     1       4.645   4.143  15.993  0.00  0.00    +0.000 A 
ATOM      3  N   UNL     1       4.378   4.343  17.325  0.00  0.00    +0.000 N 
ATOM      4  C   UNL     1       5.500   4.772  18.001  0.00  0.00    +0.000 A 
ATOM      5  C   UNL     1       5.740   5.098  19.349  0.00  0.00    +0.000 A 
ATOM      6  C   UNL     1       7.011   5.555  19.711  0.00  0.00    +0.000 A 
ATOM      7  C   UNL     1       8.021   5.680  18.767  0.00  0.00    +0.000 A 
ATOM      8  C   UNL     1       7.786   5.342  17.433  0.00  0.00    +0.000 A 
ATOM      9  C   UNL     1       6.512   4.882  17.032  0.00  0.00    +0.000 A 
ENDROOT
BRANCH   1  11
ATOM     10  N   UNL     1       6.273   3.448  13.639  0.00  0.00    +0.000 N 
ATOM     11  C   UNL     1       6.663   4.448  14.485  0.00  0.00    +0.000 C 
ATOM     12  O   UNL     1       7.514   5.259  14.143  0.00  0.00    +0.000 OA
ATOM     13  H   UNL     1       6.645   3.492  12.700  0.00  0.00    +0.000 HD
ATOM     14  H   UNL     1       5.407   2.951  13.784  0.00  0.00    +0.000 HD
ENDBRANCH   1  11
BRANCH   3  15
ATOM     15  S   UNL     1       2.884   3.915  18.031  0.00  0.00    +0.000 S 
ATOM     16  O   UNL     1       1.951   3.700  16.946  0.00  0.00    +0.000 OA
ATOM     17  O   UNL     1       3.190   2.865  18.988  0.00  0.00    +0.000 OA
BRANCH  15  18
ATOM     18  C   UNL     1       2.403   5.368  18.927  0.00  0.00    +0.000 A 
ATOM     19  C   UNL     1       1.922   5.251  20.234  0.00  0.00    +0.000 A 
ATOM     20  C   UNL     1       1.537   6.397  20.929  0.00  0.00    +0.000 A 
ATOM     21  C   UNL     1       1.650   7.651  20.328  0.00  0.00    +0.000 A 
ATOM     22  C   UNL     1       2.162   7.766  19.034  0.00  0.00    +0.000 A 
ATOM     23  C   UNL     1       2.545   6.624  18.330  0.00  0.00    +0.000 A 
ENDBRANCH  15  18
ENDBRANCH   3  15
TORSDOF 3
ENDMDL
MODEL 6
REMARK VINA RESULT:      -8.2      2.904      6.237
REMARK  Name = 
REMARK  3 active torsions:
REMARK  status: ('A' for Active; 'I' for Inactive)
REMARK    1  A    between atoms: C_2  and  C_4
REMARK    2  A    between atoms: N_6  and  S_7
REMARK    3  A    between atoms: S_7  and  C_10
REMARK                            x       y       z     vdW  Elec       q    Type
REMARK                         _______ _______ _______ _____ _____    ______ ____
ROOT
ATOM      1  C   UNL     1       5.943   4.475  15.769  0.00  0.00    +0.000 A 
ATOM      2  C   UNL     1       4.617   4.145  15.995  0.00  0.00    +0.000 A 
ATOM      3  N   UNL     1       4.346   4.351  17.325  0.00  0.00    +0.000 N 
ATOM      4  C   UNL     1       5.471   4.767  18.004  0.00  0.00    +0.000 A 
ATOM      5  C   UNL     1       5.710   5.093  19.353  0.00  0.00    +0.000 A 
ATOM      6  C   UNL     1       6.985   5.533  19.719  0.00  0.00    +0.000 A 
ATOM      7  C   UNL     1       8.001   5.643  18.779  0.00  0.00    +0.000 A 
ATOM      8  C   UNL     1       7.767   5.305  17.445  0.00  0.00    +0.000 A 
ATOM      9  C   UNL     1       6.488   4.861  17.040  0.00  0.00    +0.000 A 
ENDROOT
BRANCH   1  11
ATOM     10  N   UNL     1       6.265   3.406  13.661  0.00  0.00    +0.000 N 
ATOM     11  C   UNL     1       6.644   4.420  14.494  0.00  0.00    +0.000 C 
ATOM     12  O   UNL     1       7.490   5.233  14.144  0.00  0.00    +0.000 OA
ATOM     13  H   UNL     1       6.640   3.440  12.722  0.00  0.00    +0.000 HD
ATOM     14  H   UNL     1       5.402   2.905  13.809  0.00  0.00    +0.000 HD
ENDBRANCH   1  11
BRANCH   3  15
ATOM     15  S   UNL     1       2.843   3.945  18.025  0.00  0.00    +0.000 S 
ATOM     16  O   UNL     1       1.911   3.746  16.936  0.00  0.00    +0.000 OA
ATOM     17  O   UNL     1       3.131   2.889  18.981  0.00  0.00    +0.000 OA
BRANCH  15  18
ATOM     18  C   UNL     1       2.382   5.404  18.922  0.00  0.00    +0.000 A 
ATOM     19  C   UNL     1       2.502   6.658  18.318  0.00  0.00    +0.000 A 
ATOM     20  C   UNL     1       2.147   7.802  19.033  0.00  0.00    +0.000 A 
ATOM     21  C   UNL     1       1.658   7.689  20.335  0.00  0.00    +0.000 A 
ATOM     22  C   UNL     1       1.509   6.431  20.922  0.00  0.00    +0.000 A 
ATOM     23  C   UNL     1       1.866   5.282  20.216  0.00  0.00    +0.000 A 
ENDBRANCH  15  18
ENDBRANCH   3  15
TORSDOF 3
ENDMDL
MODEL 7
REMARK VINA RESULT:      -8.2      2.785      6.102
REMARK  Name = 
REMARK  3 active torsions:
REMARK  status: ('A' for Active; 'I' for Inactive)
REMARK    1  A    between atoms: C_2  and  C_4
REMARK    2  A    between atoms: N_6  and  S_7
REMARK    3  A    between atoms: S_7  and  C_10
REMARK                            x       y       z     vdW  Elec       q    Type
REMARK                         _______ _______ _______ _____ _____    ______ ____
ROOT
ATOM      1  C   UNL     1       6.556   5.104  18.009  0.00  0.00    +0.000 A 
ATOM      2  C   UNL     1       5.464   4.412  18.507  0.00  0.00    +0.000 A 
ATOM      3  N   UNL     1       4.853   3.768  17.459  0.00  0.00    +0.000 N 
ATOM      4  C   UNL     1       5.483   4.048  16.265  0.00  0.00    +0.000 A 
ATOM      5  C   UNL     1       5.239   3.650  14.937  0.00  0.00    +0.000 A 
ATOM      6  C   UNL     1       6.113   4.086  13.937  0.00  0.00    +0.000 A 
ATOM      7  C   UNL     1       7.195   4.902  14.239  0.00  0.00    +0.000 A 
ATOM      8  C   UNL     1       7.426   5.309  15.554  0.00  0.00    +0.000 A 
ATOM      9  C   UNL     1       6.566   4.882  16.590  0.00  0.00    +0.000 A 
ENDROOT
BRANCH   1  11
ATOM     10  N   UNL     1       7.942   5.342  19.936  0.00  0.00    +0.000 N 
ATOM     11  C   UNL     1       7.495   5.910  18.777  0.00  0.00    +0.000 C 
ATOM     12  O   UNL     1       7.906   7.006  18.419  0.00  0.00    +0.000 OA
ATOM     13  H   UNL     1       8.697   5.825  20.403  0.00  0.00    +0.000 HD
ATOM     14  H   UNL     1       7.834   4.353  20.107  0.00  0.00    +0.000 HD
ENDBRANCH   1  11
BRANCH   3  15
ATOM     15  S   UNL     1       3.395   2.901  17.646  0.00  0.00    +0.000 S 
ATOM     16  O   UNL     1       2.465   3.424  16.668  0.00  0.00    +0.000 OA
ATOM     17  O   UNL     1       3.774   1.498  17.658  0.00  0.00    +0.000 OA
BRANCH  15  18
ATOM     18  C   UNL     1       2.838   3.346  19.269  0.00  0.00    +0.000 A 
ATOM     19  C   UNL     1       2.210   4.577  19.475  0.00  0.00    +0.000 A 
ATOM     20  C   UNL     1       1.783   4.925  20.757  0.00  0.00    +0.000 A 
ATOM     21  C   UNL     1       1.968   4.040  21.819  0.00  0.00    +0.000 A 
ATOM     22  C   UNL     1       2.566   2.797  21.603  0.00  0.00    +0.000 A 
ATOM     23  C   UNL     1       3.000   2.443  20.325  0.00  0.00    +0.000 A 
ENDBRANCH  15  18
ENDBRANCH   3  15
TORSDOF 3
ENDMDL
MODEL 8
REMARK VINA RESULT:      -8.2      2.789      6.075
REMARK  Name = 
REMARK  3 active torsions:
REMARK  status: ('A' for Active; 'I' for Inactive)
REMARK    1  A    between atoms: C_2  and  C_4
REMARK    2  A    between atoms: N_6  and  S_7
REMARK    3  A    between atoms: S_7  and  C_10
REMARK                            x       y       z     vdW  Elec       q    Type
REMARK                         _______ _______ _______ _____ _____    ______ ____
ROOT
ATOM      1  C   UNL     1       6.543   5.088  18.007  0.00  0.00    +0.000 A 
ATOM      2  C   UNL     1       5.450   4.396  18.503  0.00  0.00    +0.000 A 
ATOM      3  N   UNL     1       4.840   3.754  17.454  0.00  0.00    +0.000 N 
ATOM      4  C   UNL     1       5.472   4.035  16.262  0.00  0.00    +0.000 A 
ATOM      5  C   UNL     1       5.229   3.637  14.933  0.00  0.00    +0.000 A 
ATOM      6  C   UNL     1       6.104   4.074  13.934  0.00  0.00    +0.000 A 
ATOM      7  C   UNL     1       7.186   4.889  14.237  0.00  0.00    +0.000 A 
ATOM      8  C   UNL     1       7.416   5.295  15.553  0.00  0.00    +0.000 A 
ATOM      9  C   UNL     1       6.554   4.867  16.588  0.00  0.00    +0.000 A 
ENDROOT
BRANCH   1  11
ATOM     10  N   UNL     1       7.920   5.327  19.940  0.00  0.00    +0.000 N 
ATOM     11  C   UNL     1       7.481   5.893  18.777  0.00  0.00    +0.000 C 
ATOM     12  O   UNL     1       7.898   6.987  18.417  0.00  0.00    +0.000 OA
ATOM     13  H   UNL     1       8.674   5.810  20.410  0.00  0.00    +0.000 HD
ATOM     14  H   UNL     1       7.807   4.340  20.115  0.00  0.00    +0.000 HD
ENDBRANCH   1  11
BRANCH   3  15
ATOM     15  S   UNL     1       3.381   2.887  17.638  0.00  0.00    +0.000 S 
ATOM     16  O   UNL     1       2.450   3.417  16.666  0.00  0.00    +0.000 OA
ATOM     17  O   UNL     1       3.759   1.484  17.641  0.00  0.00    +0.000 OA
BRANCH  15  18
ATOM     18  C   UNL     1       2.829   3.322  19.266  0.00  0.00    +0.000 A 
ATOM     19  C   UNL     1       3.038   2.440  20.330  0.00  0.00    +0.000 A 
ATOM     20  C   UNL     1       2.592   2.785  21.606  0.00  0.00    +0.000 A 
ATOM     21  C   UNL     1       1.958   4.009  21.818  0.00  0.00    +0.000 A 
ATOM     22  C   UNL     1       1.781   4.901  20.759  0.00  0.00    +0.000 A 
ATOM     23  C   UNL     1       2.220   4.563  19.478  0.00  0.00    +0.000 A 
ENDBRANCH  15  18
ENDBRANCH   3  15
TORSDOF 3
ENDMDL
MODEL 9
REMARK VINA RESULT:      -8.2      2.813      6.099
REMARK  Name = 
REMARK  3 active torsions:
REMARK  status: ('A' for Active; 'I' for Inactive)
REMARK    1  A    between atoms: C_2  and  C_4
REMARK    2  A    between atoms: N_6  and  S_7
REMARK    3  A    between atoms: S_7  and  C_10
REMARK                            x       y       z     vdW  Elec       q    Type
REMARK                         _______ _______ _______ _____ _____    ______ ____
ROOT
ATOM      1  C   UNL     1       6.685   5.351  18.686  0.00  0.00    +0.000 A 
ATOM      2  C   UNL     1       5.458   5.205  19.312  0.00  0.00    +0.000 A 
ATOM      3  N   UNL     1       4.552   4.764  18.378  0.00  0.00    +0.000 N 
ATOM      4  C   UNL     1       5.133   4.654  17.133  0.00  0.00    +0.000 A 
ATOM      5  C   UNL     1       4.635   4.263  15.876  0.00  0.00    +0.000 A 
ATOM      6  C   UNL     1       5.517   4.216  14.792  0.00  0.00    +0.000 A 
ATOM      7  C   UNL     1       6.855   4.555  14.944  0.00  0.00    +0.000 A 
ATOM      8  C   UNL     1       7.344   4.957  16.188  0.00  0.00    +0.000 A 
ATOM      9  C   UNL     1       6.480   5.011  17.305  0.00  0.00    +0.000 A 
ENDROOT
BRANCH   1  11
ATOM     10  N   UNL     1       8.365   7.024  18.942  0.00  0.00    +0.000 N 
ATOM     11  C   UNL     1       7.929   5.782  19.307  0.00  0.00    +0.000 C 
ATOM     12  O   UNL     1       8.545   5.121  20.133  0.00  0.00    +0.000 OA
ATOM     13  H   UNL     1       9.146   7.392  19.469  0.00  0.00    +0.000 HD
ATOM     14  H   UNL     1       7.748   7.681  18.488  0.00  0.00    +0.000 HD
ENDBRANCH   1  11
BRANCH   3  15
ATOM     15  S   UNL     1       2.893   4.575  18.733  0.00  0.00    +0.000 S 
ATOM     16  O   UNL     1       2.246   4.152  17.511  0.00  0.00    +0.000 OA
ATOM     17  O   UNL     1       2.842   3.766  19.939  0.00  0.00    +0.000 OA
BRANCH  15  18
ATOM     18  C   UNL     1       2.354   6.216  19.136  0.00  0.00    +0.000 A 
ATOM     19  C   UNL     1       2.402   7.221  18.166  0.00  0.00    +0.000 A 
ATOM     20  C   UNL     1       1.985   8.512  18.492  0.00  0.00    +0.000 A 
ATOM     21  C   UNL     1       1.506   8.788  19.773  0.00  0.00    +0.000 A 
ATOM     22  C   UNL     1       1.429   7.773  20.728  0.00  0.00    +0.000 A 
ATOM     23  C   UNL     1       1.848   6.481  20.412  0.00  0.00    +0.000 A 
ENDBRANCH  15  18
ENDBRANCH   3  15
TORSDOF 3
ENDMDL
