MODEL 1
REMARK VINA RESULT:      -6.9      0.000      0.000
REMARK  Name = 
REMARK  5 active torsions:
REMARK  status: ('A' for Active; 'I' for Inactive)
REMARK    1  A    between atoms: O_1  and  N_2
REMARK    2  A    between atoms: C_3  and  C_4
REMARK    3  A    between atoms: C_3  and  C_13
REMARK    4  A    between atoms: C_4  and  S_5
REMARK    5  A    between atoms: S_5  and  C_6
REMARK                            x       y       z     vdW  Elec       q    Type
REMARK                         _______ _______ _______ _____ _____    ______ ____
ROOT
ATOM      1  N   UNL     1       1.626   3.095  18.151  0.00  0.00    +0.000 NA
ATOM      2  C   UNL     1       2.737   3.779  18.122  0.00  0.00    +0.000 C 
ENDROOT
BRANCH   2   3
ATOM      3  C   UNL     1       2.546   5.161  18.618  0.00  0.00    +0.000 A 
ATOM      4  C   UNL     1       2.519   6.323  17.751  0.00  0.00    +0.000 A 
ATOM      5  C   UNL     1       2.288   7.485  18.437  0.00  0.00    +0.000 A 
ATOM      6 CL   UNL     1       2.190   9.066  17.777  0.00  0.00    +0.000 Cl
ATOM      7  S   UNL     1       2.082   7.248  20.093  0.00  0.00    +0.000 S 
ATOM      8  C   UNL     1       2.301   5.568  19.919  0.00  0.00    +0.000 A 
ATOM      9 CL   UNL     1       2.125   4.631  21.357  0.00  0.00    +0.000 Cl
ENDBRANCH   2   3
BRANCH   1  10
ATOM     10  O   UNL     1       1.771   1.751  17.826  0.00  0.00    +0.000 OA
ATOM     11  H   UNL     1       1.039   1.332  18.317  0.00  0.00    +0.000 HD
ENDBRANCH   1  10
BRANCH   2  12
ATOM     12  C   UNL     1       4.136   3.300  17.744  0.00  0.00    +0.000 C 
BRANCH  12  13
ATOM     13  S   UNL     1       4.901   4.050  16.272  0.00  0.00    +0.000 S 
BRANCH  13  14
ATOM     14  C   UNL     1       6.039   5.175  17.069  0.00  0.00    +0.000 A 
ATOM     15  C   UNL     1       6.972   4.683  17.996  0.00  0.00    +0.000 A 
ATOM     16  C   UNL     1       7.869   5.552  18.625  0.00  0.00    +0.000 A 
ATOM     17  C   UNL     1       7.851   6.917  18.335  0.00  0.00    +0.000 A 
ATOM     18  C   UNL     1       6.936   7.417  17.417  0.00  0.00    +0.000 A 
ATOM     19  C   UNL     1       6.045   6.547  16.790  0.00  0.00    +0.000 A 
ATOM     20  F   UNL     1       5.182   7.062  15.898  0.00  0.00    +0.000 F 
ENDBRANCH  13  14
ENDBRANCH  12  13
ENDBRANCH   2  12
TORSDOF 5
ENDMDL
MODEL 2
REMARK VINA RESULT:      -6.9      3.685      4.828
REMARK  Name = 
REMARK  5 active torsions:
REMARK  status: ('A' for Active; 'I' for Inactive)
REMARK    1  A    between atoms: O_1  and  N_2
REMARK    2  A    between atoms: C_3  and  C_4
REMARK    3  A    between atoms: C_3  and  C_13
REMARK    4  A    between atoms: C_4  and  S_5
REMARK    5  A    between atoms: S_5  and  C_6
REMARK                            x       y       z     vdW  Elec       q    Type
REMARK                         _______ _______ _______ _____ _____    ______ ____
ROOT
ATOM      1  N   UNL     1       6.770   5.160  19.622  0.00  0.00    +0.000 NA
ATOM      2  C   UNL     1       6.366   4.701  18.470  0.00  0.00    +0.000 C 
ENDROOT
BRANCH   2   3
ATOM      3  C   UNL     1       4.906   4.461  18.453  0.00  0.00    +0.000 A 
ATOM      4  C   UNL     1       4.289   3.251  18.965  0.00  0.00    +0.000 A 
ATOM      5  C   UNL     1       2.923   3.280  18.878  0.00  0.00    +0.000 A 
ATOM      6 CL   UNL     1       1.837   2.047  19.368  0.00  0.00    +0.000 Cl
ATOM      7  S   UNL     1       2.331   4.713  18.217  0.00  0.00    +0.000 S 
ATOM      8  C   UNL     1       3.910   5.327  18.034  0.00  0.00    +0.000 A 
ATOM      9 CL   UNL     1       4.028   6.935  17.422  0.00  0.00    +0.000 Cl
ENDBRANCH   2   3
BRANCH   1  10
ATOM     10  O   UNL     1       8.109   5.533  19.654  0.00  0.00    +0.000 OA
ATOM     11  H   UNL     1       8.531   4.773  20.097  0.00  0.00    +0.000 HD
ENDBRANCH   1  10
BRANCH   2  12
ATOM     12  C   UNL     1       7.180   4.490  17.196  0.00  0.00    +0.000 C 
BRANCH  12  13
ATOM     13  S   UNL     1       7.206   5.855  15.991  0.00  0.00    +0.000 S 
BRANCH  13  14
ATOM     14  C   UNL     1       6.770   4.953  14.510  0.00  0.00    +0.000 A 
ATOM     15  C   UNL     1       5.598   4.180  14.484  0.00  0.00    +0.000 A 
ATOM     16  C   UNL     1       5.244   3.471  13.332  0.00  0.00    +0.000 A 
ATOM     17  C   UNL     1       6.048   3.528  12.193  0.00  0.00    +0.000 A 
ATOM     18  C   UNL     1       7.209   4.292  12.203  0.00  0.00    +0.000 A 
ATOM     19  C   UNL     1       7.557   4.999  13.353  0.00  0.00    +0.000 A 
ATOM     20  F   UNL     1       8.678   5.738  13.324  0.00  0.00    +0.000 F 
ENDBRANCH  13  14
ENDBRANCH  12  13
ENDBRANCH   2  12
TORSDOF 5
ENDMDL
MODEL 3
REMARK VINA RESULT:      -6.8      3.306      5.726
REMARK  Name = 
REMARK  5 active torsions:
REMARK  status: ('A' for Active; 'I' for Inactive)
REMARK    1  A    between atoms: O_1  and  N_2
REMARK    2  A    between atoms: C_3  and  C_4
REMARK    3  A    between atoms: C_3  and  C_13
REMARK    4  A    between atoms: C_4  and  S_5
REMARK    5  A    between atoms: S_5  and  C_6
REMARK                            x       y       z     vdW  Elec       q    Type
REMARK                         _______ _______ _______ _____ _____    ______ ____
ROOT
ATOM      1  N   UNL     1       5.502   3.281  18.771  0.00  0.00    +0.000 NA
ATOM      2  C   UNL     1       5.422   4.510  18.340  0.00  0.00    +0.000 C 
ENDROOT
BRANCH   2   3
ATOM      3  C   UNL     1       5.931   4.642  16.956  0.00  0.00    +0.000 A 
ATOM      4  C   UNL     1       5.478   3.812  15.856  0.00  0.00    +0.000 A 
ATOM      5  C   UNL     1       6.064   4.151  14.666  0.00  0.00    +0.000 A 
ATOM      6 CL   UNL     1       5.800   3.408  13.142  0.00  0.00    +0.000 Cl
ATOM      7  S   UNL     1       7.136   5.445  14.799  0.00  0.00    +0.000 S 
ATOM      8  C   UNL     1       6.830   5.576  16.470  0.00  0.00    +0.000 A 
ATOM      9 CL   UNL     1       7.627   6.873  17.283  0.00  0.00    +0.000 Cl
ENDBRANCH   2   3
BRANCH   1  10
ATOM     10  O   UNL     1       4.914   3.070  20.013  0.00  0.00    +0.000 OA
ATOM     11  H   UNL     1       5.605   3.373  20.631  0.00  0.00    +0.000 HD
ENDBRANCH   1  10
BRANCH   2  12
ATOM     12  C   UNL     1       4.810   5.722  19.037  0.00  0.00    +0.000 C 
BRANCH  12  13
ATOM     13  S   UNL     1       3.147   6.237  18.503  0.00  0.00    +0.000 S 
BRANCH  13  14
ATOM     14  C   UNL     1       2.212   4.803  19.018  0.00  0.00    +0.000 A 
ATOM     15  C   UNL     1       1.773   4.696  20.348  0.00  0.00    +0.000 A 
ATOM     16  C   UNL     1       1.040   3.581  20.763  0.00  0.00    +0.000 A 
ATOM     17  C   UNL     1       0.731   2.563  19.860  0.00  0.00    +0.000 A 
ATOM     18  C   UNL     1       1.154   2.657  18.539  0.00  0.00    +0.000 A 
ATOM     19  C   UNL     1       1.884   3.773  18.129  0.00  0.00    +0.000 A 
ATOM     20  F   UNL     1       2.266   3.838  16.843  0.00  0.00    +0.000 F 
ENDBRANCH  13  14
ENDBRANCH  12  13
ENDBRANCH   2  12
TORSDOF 5
ENDMDL
MODEL 4
REMARK VINA RESULT:      -6.8      3.457      5.838
REMARK  Name = 
REMARK  5 active torsions:
REMARK  status: ('A' for Active; 'I' for Inactive)
REMARK    1  A    between atoms: O_1  and  N_2
REMARK    2  A    between atoms: C_3  and  C_4
REMARK    3  A    between atoms: C_3  and  C_13
REMARK    4  A    between atoms: C_4  and  S_5
REMARK    5  A    between atoms: S_5  and  C_6
REMARK                            x       y       z     vdW  Elec       q    Type
REMARK                         _______ _______ _______ _____ _____    ______ ____
ROOT
ATOM      1  N   UNL     1       5.484   3.402  18.739  0.00  0.00    +0.000 NA
ATOM      2  C   UNL     1       5.359   4.609  18.260  0.00  0.00    +0.000 C 
ENDROOT
BRANCH   2   3
ATOM      3  C   UNL     1       5.883   4.712  16.879  0.00  0.00    +0.000 A 
ATOM      4  C   UNL     1       5.415   3.883  15.784  0.00  0.00    +0.000 A 
ATOM      5  C   UNL     1       6.021   4.192  14.596  0.00  0.00    +0.000 A 
ATOM      6 CL   UNL     1       5.747   3.440  13.078  0.00  0.00    +0.000 Cl
ATOM      7  S   UNL     1       7.128   5.456  14.724  0.00  0.00    +0.000 S 
ATOM      8  C   UNL     1       6.813   5.614  16.391  0.00  0.00    +0.000 A 
ATOM      9 CL   UNL     1       7.641   6.895  17.197  0.00  0.00    +0.000 Cl
ENDBRANCH   2   3
BRANCH   1  10
ATOM     10  O   UNL     1       4.886   3.212  19.979  0.00  0.00    +0.000 OA
ATOM     11  H   UNL     1       5.654   3.149  20.579  0.00  0.00    +0.000 HD
ENDBRANCH   1  10
BRANCH   2  12
ATOM     12  C   UNL     1       4.687   5.820  18.903  0.00  0.00    +0.000 C 
BRANCH  12  13
ATOM     13  S   UNL     1       3.027   6.264  18.305  0.00  0.00    +0.000 S 
BRANCH  13  14
ATOM     14  C   UNL     1       2.116   4.829  18.860  0.00  0.00    +0.000 A 
ATOM     15  C   UNL     1       1.829   3.793  17.957  0.00  0.00    +0.000 A 
ATOM     16  C   UNL     1       1.119   2.665  18.378  0.00  0.00    +0.000 A 
ATOM     17  C   UNL     1       0.693   2.552  19.702  0.00  0.00    +0.000 A 
ATOM     18  C   UNL     1       0.975   3.567  20.608  0.00  0.00    +0.000 A 
ATOM     19  C   UNL     1       1.685   4.690  20.185  0.00  0.00    +0.000 A 
ATOM     20  F   UNL     1       1.951   5.646  21.089  0.00  0.00    +0.000 F 
ENDBRANCH  13  14
ENDBRANCH  12  13
ENDBRANCH   2  12
TORSDOF 5
ENDMDL
MODEL 5
REMARK VINA RESULT:      -6.8      3.552      4.703
REMARK  Name = 
REMARK  5 active torsions:
REMARK  status: ('A' for Active; 'I' for Inactive)
REMARK    1  A    between atoms: O_1  and  N_2
REMARK    2  A    between atoms: C_3  and  C_4
REMARK    3  A    between atoms: C_3  and  C_13
REMARK    4  A    between atoms: C_4  and  S_5
REMARK    5  A    between atoms: S_5  and  C_6
REMARK                            x       y       z     vdW  Elec       q    Type
REMARK                         _______ _______ _______ _____ _____    ______ ____
ROOT
ATOM      1  N   UNL     1       6.548   5.132  19.749  0.00  0.00    +0.000 NA
ATOM      2  C   UNL     1       6.175   4.741  18.561  0.00  0.00    +0.000 C 
ENDROOT
BRANCH   2   3
ATOM      3  C   UNL     1       4.723   4.461  18.503  0.00  0.00    +0.000 A 
ATOM      4  C   UNL     1       4.136   3.200  18.917  0.00  0.00    +0.000 A 
ATOM      5  C   UNL     1       2.771   3.196  18.809  0.00  0.00    +0.000 A 
ATOM      6 CL   UNL     1       1.714   1.899  19.191  0.00  0.00    +0.000 Cl
ATOM      7  S   UNL     1       2.145   4.655  18.243  0.00  0.00    +0.000 S 
ATOM      8  C   UNL     1       3.708   5.326  18.132  0.00  0.00    +0.000 A 
ATOM      9 CL   UNL     1       3.786   6.977  17.639  0.00  0.00    +0.000 Cl
ENDBRANCH   2   3
BRANCH   1  10
ATOM     10  O   UNL     1       7.874   5.540  19.830  0.00  0.00    +0.000 OA
ATOM     11  H   UNL     1       7.929   5.911  20.730  0.00  0.00    +0.000 HD
ENDBRANCH   1  10
BRANCH   2  12
ATOM     12  C   UNL     1       7.014   4.641  17.290  0.00  0.00    +0.000 C 
BRANCH  12  13
ATOM     13  S   UNL     1       6.894   6.018  16.105  0.00  0.00    +0.000 S 
BRANCH  13  14
ATOM     14  C   UNL     1       6.704   5.090  14.589  0.00  0.00    +0.000 A 
ATOM     15  C   UNL     1       7.666   5.208  13.573  0.00  0.00    +0.000 A 
ATOM     16  C   UNL     1       7.530   4.487  12.383  0.00  0.00    +0.000 A 
ATOM     17  C   UNL     1       6.440   3.636  12.193  0.00  0.00    +0.000 A 
ATOM     18  C   UNL     1       5.483   3.505  13.192  0.00  0.00    +0.000 A 
ATOM     19  C   UNL     1       5.623   4.225  14.378  0.00  0.00    +0.000 A 
ATOM     20  F   UNL     1       4.687   4.065  15.327  0.00  0.00    +0.000 F 
ENDBRANCH  13  14
ENDBRANCH  12  13
ENDBRANCH   2  12
TORSDOF 5
ENDMDL
MODEL 6
REMARK VINA RESULT:      -6.7      3.190      4.942
REMARK  Name = 
REMARK  5 active torsions:
REMARK  status: ('A' for Active; 'I' for Inactive)
REMARK    1  A    between atoms: O_1  and  N_2
REMARK    2  A    between atoms: C_3  and  C_4
REMARK    3  A    between atoms: C_3  and  C_13
REMARK    4  A    between atoms: C_4  and  S_5
REMARK    5  A    between atoms: S_5  and  C_6
REMARK                            x       y       z     vdW  Elec       q    Type
REMARK                         _______ _______ _______ _____ _____    ______ ____
ROOT
ATOM      1  N   UNL     1       5.809   4.846  18.766  0.00  0.00    +0.000 NA
ATOM      2  C   UNL     1       4.676   4.735  18.128  0.00  0.00    +0.000 C 
ENDROOT
BRANCH   2   3
ATOM      3  C   UNL     1       3.781   5.885  18.390  0.00  0.00    +0.000 A 
ATOM      4  C   UNL     1       3.011   6.035  19.611  0.00  0.00    +0.000 A 
ATOM      5  C   UNL     1       2.291   7.199  19.639  0.00  0.00    +0.000 A 
ATOM      6 CL   UNL     1       1.257   7.738  20.897  0.00  0.00    +0.000 Cl
ATOM      7  S   UNL     1       2.506   8.145  18.260  0.00  0.00    +0.000 S 
ATOM      8  C   UNL     1       3.579   7.000  17.595  0.00  0.00    +0.000 A 
ATOM      9 CL   UNL     1       4.291   7.423  16.082  0.00  0.00    +0.000 Cl
ENDBRANCH   2   3
BRANCH   1  10
ATOM     10  O   UNL     1       6.743   3.866  18.451  0.00  0.00    +0.000 OA
ATOM     11  H   UNL     1       7.500   4.388  18.126  0.00  0.00    +0.000 HD
ENDBRANCH   1  10
BRANCH   2  12
ATOM     12  C   UNL     1       4.250   3.660  17.133  0.00  0.00    +0.000 C 
BRANCH  12  13
ATOM     13  S   UNL     1       3.915   1.998  17.797  0.00  0.00    +0.000 S 
BRANCH  13  14
ATOM     14  C   UNL     1       2.873   2.435  19.182  0.00  0.00    +0.000 A 
ATOM     15  C   UNL     1       1.523   2.757  18.966  0.00  0.00    +0.000 A 
ATOM     16  C   UNL     1       0.697   3.099  20.040  0.00  0.00    +0.000 A 
ATOM     17  C   UNL     1       1.202   3.119  21.341  0.00  0.00    +0.000 A 
ATOM     18  C   UNL     1       2.535   2.799  21.571  0.00  0.00    +0.000 A 
ATOM     19  C   UNL     1       3.355   2.456  20.497  0.00  0.00    +0.000 A 
ATOM     20  F   UNL     1       4.634   2.140  20.756  0.00  0.00    +0.000 F 
ENDBRANCH  13  14
ENDBRANCH  12  13
ENDBRANCH   2  12
TORSDOF 5
ENDMDL
MODEL 7
REMARK VINA RESULT:      -6.7      3.723      5.893
REMARK  Name = 
REMARK  5 active torsions:
REMARK  status: ('A' for Active; 'I' for Inactive)
REMARK    1  A    between atoms: O_1  and  N_2
REMARK    2  A    between atoms: C_3  and  C_4
REMARK    3  A    between atoms: C_3  and  C_13
REMARK    4  A    between atoms: C_4  and  S_5
REMARK    5  A    between atoms: S_5  and  C_6
REMARK                            x       y       z     vdW  Elec       q    Type
REMARK                         _______ _______ _______ _____ _____    ______ ____
ROOT
ATOM      1  N   UNL     1       7.788   5.250  18.952  0.00  0.00    +0.000 NA
ATOM      2  C   UNL     1       6.543   5.197  18.564  0.00  0.00    +0.000 C 
ENDROOT
BRANCH   2   3
ATOM      3  C   UNL     1       6.426   4.844  17.132  0.00  0.00    +0.000 A 
ATOM      4  C   UNL     1       7.234   5.452  16.091  0.00  0.00    +0.000 A 
ATOM      5  C   UNL     1       6.973   4.931  14.852  0.00  0.00    +0.000 A 
ATOM      6 CL   UNL     1       7.709   5.386  13.371  0.00  0.00    +0.000 Cl
ATOM      7  S   UNL     1       5.800   3.720  14.874  0.00  0.00    +0.000 S 
ATOM      8  C   UNL     1       5.620   3.872  16.562  0.00  0.00    +0.000 A 
ATOM      9 CL   UNL     1       4.523   2.769  17.306  0.00  0.00    +0.000 Cl
ENDBRANCH   2   3
BRANCH   1  10
ATOM     10  O   UNL     1       7.956   5.444  20.318  0.00  0.00    +0.000 OA
ATOM     11  H   UNL     1       7.353   4.780  20.703  0.00  0.00    +0.000 HD
ENDBRANCH   1  10
BRANCH   2  12
ATOM     12  C   UNL     1       5.280   5.359  19.406  0.00  0.00    +0.000 C 
BRANCH  12  13
ATOM     13  S   UNL     1       3.774   5.914  18.547  0.00  0.00    +0.000 S 
BRANCH  13  14
ATOM     14  C   UNL     1       2.588   4.786  19.268  0.00  0.00    +0.000 A 
ATOM     15  C   UNL     1       2.609   4.542  20.651  0.00  0.00    +0.000 A 
ATOM     16  C   UNL     1       1.687   3.664  21.228  0.00  0.00    +0.000 A 
ATOM     17  C   UNL     1       0.731   3.025  20.437  0.00  0.00    +0.000 A 
ATOM     18  C   UNL     1       0.695   3.261  19.068  0.00  0.00    +0.000 A 
ATOM     19  C   UNL     1       1.615   4.139  18.497  0.00  0.00    +0.000 A 
ATOM     20  F   UNL     1       1.545   4.354  17.174  0.00  0.00    +0.000 F 
ENDBRANCH  13  14
ENDBRANCH  12  13
ENDBRANCH   2  12
TORSDOF 5
ENDMDL
MODEL 8
REMARK VINA RESULT:      -6.6      3.173      5.110
REMARK  Name = 
REMARK  5 active torsions:
REMARK  status: ('A' for Active; 'I' for Inactive)
REMARK    1  A    between atoms: O_1  and  N_2
REMARK    2  A    between atoms: C_3  and  C_4
REMARK    3  A    between atoms: C_3  and  C_13
REMARK    4  A    between atoms: C_4  and  S_5
REMARK    5  A    between atoms: S_5  and  C_6
REMARK                            x       y       z     vdW  Elec       q    Type
REMARK                         _______ _______ _______ _____ _____    ______ ____
ROOT
ATOM      1  N   UNL     1       4.887   2.752  19.889  0.00  0.00    +0.000 NA
ATOM      2  C   UNL     1       4.293   3.627  19.124  0.00  0.00    +0.000 C 
ENDROOT
BRANCH   2   3
ATOM      3  C   UNL     1       5.158   4.054  18.001  0.00  0.00    +0.000 A 
ATOM      4  C   UNL     1       4.872   3.748  16.612  0.00  0.00    +0.000 A 
ATOM      5  C   UNL     1       5.794   4.285  15.755  0.00  0.00    +0.000 A 
ATOM      6 CL   UNL     1       5.812   4.145  14.045  0.00  0.00    +0.000 Cl
ATOM      7  S   UNL     1       6.997   5.166  16.542  0.00  0.00    +0.000 S 
ATOM      8  C   UNL     1       6.296   4.840  18.060  0.00  0.00    +0.000 A 
ATOM      9 CL   UNL     1       7.062   5.578  19.419  0.00  0.00    +0.000 Cl
ENDBRANCH   2   3
BRANCH   1  10
ATOM     10  O   UNL     1       4.076   2.212  20.880  0.00  0.00    +0.000 OA
ATOM     11  H   UNL     1       3.188   2.525  20.624  0.00  0.00    +0.000 HD
ENDBRANCH   1  10
BRANCH   2  12
ATOM     12  C   UNL     1       2.861   4.147  19.213  0.00  0.00    +0.000 C 
BRANCH  12  13
ATOM     13  S   UNL     1       2.474   5.287  20.578  0.00  0.00    +0.000 S 
BRANCH  13  14
ATOM     14  C   UNL     1       2.255   6.799  19.650  0.00  0.00    +0.000 A 
ATOM     15  C   UNL     1       2.744   6.889  18.336  0.00  0.00    +0.000 A 
ATOM     16  C   UNL     1       2.578   8.064  17.599  0.00  0.00    +0.000 A 
ATOM     17  C   UNL     1       1.919   9.161  18.156  0.00  0.00    +0.000 A 
ATOM     18  C   UNL     1       1.425   9.085  19.453  0.00  0.00    +0.000 A 
ATOM     19  C   UNL     1       1.591   7.910  20.184  0.00  0.00    +0.000 A 
ATOM     20  F   UNL     1       1.090   7.866  21.430  0.00  0.00    +0.000 F 
ENDBRANCH  13  14
ENDBRANCH  12  13
ENDBRANCH   2  12
TORSDOF 5
ENDMDL
MODEL 9
REMARK VINA RESULT:      -6.4      3.083      5.290
REMARK  Name = 
REMARK  5 active torsions:
REMARK  status: ('A' for Active; 'I' for Inactive)
REMARK    1  A    between atoms: O_1  and  N_2
REMARK    2  A    between atoms: C_3  and  C_4
REMARK    3  A    between atoms: C_3  and  C_13
REMARK    4  A    between atoms: C_4  and  S_5
REMARK    5  A    between atoms: S_5  and  C_6
REMARK                            x       y       z     vdW  Elec       q    Type
REMARK                         _______ _______ _______ _____ _____    ______ ____
ROOT
ATOM      1  N   UNL     1       3.182   2.738  17.995  0.00  0.00    +0.000 NA
ATOM      2  C   UNL     1       3.400   4.014  17.832  0.00  0.00    +0.000 C 
ENDROOT
BRANCH   2   3
ATOM      3  C   UNL     1       4.699   4.272  17.171  0.00  0.00    +0.000 A 
ATOM      4  C   UNL     1       4.914   4.117  15.745  0.00  0.00    +0.000 A 
ATOM      5  C   UNL     1       6.185   4.454  15.366  0.00  0.00    +0.000 A 
ATOM      6 CL   UNL     1       6.832   4.401  13.777  0.00  0.00    +0.000 Cl
ATOM      7  S   UNL     1       7.146   4.971  16.650  0.00  0.00    +0.000 S 
ATOM      8  C   UNL     1       5.863   4.751  17.749  0.00  0.00    +0.000 A 
ATOM      9 CL   UNL     1       6.180   5.208  19.382  0.00  0.00    +0.000 Cl
ENDBRANCH   2   3
BRANCH   1  10
ATOM     10  O   UNL     1       1.919   2.429  18.486  0.00  0.00    +0.000 OA
ATOM     11  H   UNL     1       1.370   3.155  18.136  0.00  0.00    +0.000 HD
ENDBRANCH   1  10
BRANCH   2  12
ATOM     12  C   UNL     1       2.469   5.182  18.149  0.00  0.00    +0.000 C 
BRANCH  12  13
ATOM     13  S   UNL     1       2.626   5.948  19.793  0.00  0.00    +0.000 S 
BRANCH  13  14
ATOM     14  C   UNL     1       2.062   7.600  19.407  0.00  0.00    +0.000 A 
ATOM     15  C   UNL     1       2.288   8.133  18.128  0.00  0.00    +0.000 A 
ATOM     16  C   UNL     1       1.851   9.422  17.812  0.00  0.00    +0.000 A 
ATOM     17  C   UNL     1       1.180  10.193  18.763  0.00  0.00    +0.000 A 
ATOM     18  C   UNL     1       0.945   9.677  20.031  0.00  0.00    +0.000 A 
ATOM     19  C   UNL     1       1.381   8.389  20.341  0.00  0.00    +0.000 A 
ATOM     20  F   UNL     1       1.126   7.916  21.572  0.00  0.00    +0.000 F 
ENDBRANCH  13  14
ENDBRANCH  12  13
ENDBRANCH   2  12
TORSDOF 5
ENDMDL
