MODEL 1
REMARK VINA RESULT:      -8.0      0.000      0.000
REMARK  Name = 
REMARK  5 active torsions:
REMARK  status: ('A' for Active; 'I' for Inactive)
REMARK    1  A    between atoms: C_1  and  C_2
REMARK    2  A    between atoms: C_2  and  C_3
REMARK    3  A    between atoms: N_8  and  C_9
REMARK    4  A    between atoms: C_9  and  C_10
REMARK    5  A    between atoms: N_12  and  C_13
REMARK                            x       y       z     vdW  Elec       q    Type
REMARK                         _______ _______ _______ _____ _____    ______ ____
ROOT
ATOM      1  C   UNL     1       5.941   3.646  12.940  0.00  0.00    +0.000 A 
ATOM      2  C   UNL     1       5.072   3.708  14.012  0.00  0.00    +0.000 A 
ATOM      3  C   UNL     1       5.577   4.530  15.060  0.00  0.00    +0.000 A 
ATOM      4  C   UNL     1       4.963   4.887  16.321  0.00  0.00    +0.000 A 
ATOM      5  O   UNL     1       3.849   4.484  16.656  0.00  0.00    +0.000 OA
ATOM      6  N   UNL     1       5.749   5.718  17.120  0.00  0.00    +0.000 N 
ATOM      7  C   UNL     1       6.984   6.170  16.696  0.00  0.00    +0.000 A 
ATOM      8  N   UNL     1       7.558   5.861  15.575  0.00  0.00    +0.000 NA
ATOM      9  C   UNL     1       6.827   5.039  14.780  0.00  0.00    +0.000 A 
ATOM     10  S   UNL     1       7.384   4.523  13.252  0.00  0.00    +0.000 S 
ENDROOT
BRANCH   1  12
ATOM     11  C   UNL     1       4.302   3.073  11.146  0.00  0.00    +0.000 C 
ATOM     12  C   UNL     1       5.742   2.951  11.627  0.00  0.00    +0.000 C 
ENDBRANCH   1  12
BRANCH   6  13
ATOM     13  C   UNL     1       5.225   6.088  18.430  0.00  0.00    +0.000 C 
BRANCH  13  14
ATOM     14  C   UNL     1       4.986   4.850  19.299  0.00  0.00    +0.000 C 
ATOM     15  O   UNL     1       5.918   4.130  19.648  0.00  0.00    +0.000 OA
ATOM     16  N   UNL     1       3.654   4.574  19.587  0.00  0.00    +0.000 N 
ATOM     17  H   UNL     1       3.034   5.374  19.666  0.00  0.00    +0.000 HD
BRANCH  16  18
ATOM     18  C   UNL     1       3.268   3.345  20.292  0.00  0.00    +0.000 C 
ATOM     19  C   UNL     1       1.928   3.474  21.043  0.00  0.00    +0.000 C 
ATOM     20  C   UNL     1       0.678   3.459  20.152  0.00  0.00    +0.000 C 
ATOM     21  C   UNL     1       0.704   2.407  19.046  0.00  0.00    +0.000 C 
ATOM     22  C   UNL     1       2.042   2.360  18.323  0.00  0.00    +0.000 C 
ATOM     23  C   UNL     1       3.173   2.152  19.327  0.00  0.00    +0.000 C 
ENDBRANCH  16  18
ENDBRANCH  13  14
ENDBRANCH   6  13
TORSDOF 4
ENDMDL
MODEL 2
REMARK VINA RESULT:      -7.6      1.103      1.425
REMARK  Name = 
REMARK  5 active torsions:
REMARK  status: ('A' for Active; 'I' for Inactive)
REMARK    1  A    between atoms: C_1  and  C_2
REMARK    2  A    between atoms: C_2  and  C_3
REMARK    3  A    between atoms: N_8  and  C_9
REMARK    4  A    between atoms: C_9  and  C_10
REMARK    5  A    between atoms: N_12  and  C_13
REMARK                            x       y       z     vdW  Elec       q    Type
REMARK                         _______ _______ _______ _____ _____    ______ ____
ROOT
ATOM      1  C   UNL     1       6.171   3.692  13.253  0.00  0.00    +0.000 A 
ATOM      2  C   UNL     1       5.539   3.395  14.444  0.00  0.00    +0.000 A 
ATOM      3  C   UNL     1       5.992   4.224  15.509  0.00  0.00    +0.000 A 
ATOM      4  C   UNL     1       5.556   4.264  16.888  0.00  0.00    +0.000 A 
ATOM      5  O   UNL     1       4.677   3.524  17.329  0.00  0.00    +0.000 OA
ATOM      6  N   UNL     1       6.225   5.208  17.669  0.00  0.00    +0.000 N 
ATOM      7  C   UNL     1       7.189   6.039  17.128  0.00  0.00    +0.000 A 
ATOM      8  N   UNL     1       7.601   6.019  15.898  0.00  0.00    +0.000 NA
ATOM      9  C   UNL     1       6.981   5.100  15.115  0.00  0.00    +0.000 A 
ATOM     10  S   UNL     1       7.356   4.918  13.461  0.00  0.00    +0.000 S 
ENDROOT
BRANCH   1  12
ATOM     11  C   UNL     1       4.455   3.209  11.506  0.00  0.00    +0.000 C 
ATOM     12  C   UNL     1       5.922   3.098  11.898  0.00  0.00    +0.000 C 
ENDBRANCH   1  12
BRANCH   6  13
ATOM     13  C   UNL     1       5.880   5.282  19.083  0.00  0.00    +0.000 C 
BRANCH  13  14
ATOM     14  C   UNL     1       4.384   5.544  19.274  0.00  0.00    +0.000 C 
ATOM     15  O   UNL     1       3.861   6.574  18.854  0.00  0.00    +0.000 OA
ATOM     16  N   UNL     1       3.701   4.583  20.011  0.00  0.00    +0.000 N 
ATOM     17  H   UNL     1       4.041   3.629  19.933  0.00  0.00    +0.000 HD
BRANCH  16  18
ATOM     18  C   UNL     1       2.294   4.773  20.390  0.00  0.00    +0.000 C 
ATOM     19  C   UNL     1       1.343   4.823  19.179  0.00  0.00    +0.000 C 
ATOM     20  C   UNL     1       1.070   3.470  18.508  0.00  0.00    +0.000 C 
ATOM     21  C   UNL     1       0.820   2.322  19.484  0.00  0.00    +0.000 C 
ATOM     22  C   UNL     1       1.817   2.310  20.633  0.00  0.00    +0.000 C 
ATOM     23  C   UNL     1       1.816   3.663  21.340  0.00  0.00    +0.000 C 
ENDBRANCH  16  18
ENDBRANCH  13  14
ENDBRANCH   6  13
TORSDOF 4
ENDMDL
MODEL 3
REMARK VINA RESULT:      -7.4      1.280      1.732
REMARK  Name = 
REMARK  5 active torsions:
REMARK  status: ('A' for Active; 'I' for Inactive)
REMARK    1  A    between atoms: C_1  and  C_2
REMARK    2  A    between atoms: C_2  and  C_3
REMARK    3  A    between atoms: N_8  and  C_9
REMARK    4  A    between atoms: C_9  and  C_10
REMARK    5  A    between atoms: N_12  and  C_13
REMARK                            x       y       z     vdW  Elec       q    Type
REMARK                         _______ _______ _______ _____ _____    ______ ____
ROOT
ATOM      1  C   UNL     1       6.375   3.707  12.821  0.00  0.00    +0.000 A 
ATOM      2  C   UNL     1       5.709   3.330  13.971  0.00  0.00    +0.000 A 
ATOM      3  C   UNL     1       6.088   4.124  15.090  0.00  0.00    +0.000 A 
ATOM      4  C   UNL     1       5.598   4.082  16.451  0.00  0.00    +0.000 A 
ATOM      5  O   UNL     1       4.733   3.288  16.822  0.00  0.00    +0.000 OA
ATOM      6  N   UNL     1       6.198   5.012  17.301  0.00  0.00    +0.000 N 
ATOM      7  C   UNL     1       7.148   5.904  16.838  0.00  0.00    +0.000 A 
ATOM      8  N   UNL     1       7.607   5.959  15.627  0.00  0.00    +0.000 NA
ATOM      9  C   UNL     1       7.056   5.055  14.778  0.00  0.00    +0.000 A 
ATOM     10  S   UNL     1       7.500   4.966  13.133  0.00  0.00    +0.000 S 
ENDROOT
BRANCH   1  12
ATOM     11  C   UNL     1       5.888   1.679  11.450  0.00  0.00    +0.000 C 
ATOM     12  C   UNL     1       6.201   3.169  11.432  0.00  0.00    +0.000 C 
ENDBRANCH   1  12
BRANCH   6  13
ATOM     13  C   UNL     1       5.796   5.005  18.702  0.00  0.00    +0.000 C 
BRANCH  13  14
ATOM     14  C   UNL     1       4.328   5.409  18.858  0.00  0.00    +0.000 C 
ATOM     15  O   UNL     1       3.987   6.590  18.826  0.00  0.00    +0.000 OA
ATOM     16  N   UNL     1       3.447   4.364  19.111  0.00  0.00    +0.000 N 
ATOM     17  H   UNL     1       3.683   3.466  18.699  0.00  0.00    +0.000 HD
BRANCH  16  18
ATOM     18  C   UNL     1       2.033   4.618  19.419  0.00  0.00    +0.000 C 
ATOM     19  C   UNL     1       1.110   3.445  19.037  0.00  0.00    +0.000 C 
ATOM     20  C   UNL     1       1.185   2.227  19.969  0.00  0.00    +0.000 C 
ATOM     21  C   UNL     1       1.216   2.572  21.456  0.00  0.00    +0.000 C 
ATOM     22  C   UNL     1       2.174   3.713  21.767  0.00  0.00    +0.000 C 
ATOM     23  C   UNL     1       1.834   4.930  20.911  0.00  0.00    +0.000 C 
ENDBRANCH  16  18
ENDBRANCH  13  14
ENDBRANCH   6  13
TORSDOF 4
ENDMDL
MODEL 4
REMARK VINA RESULT:      -6.9      4.425      7.957
REMARK  Name = 
REMARK  5 active torsions:
REMARK  status: ('A' for Active; 'I' for Inactive)
REMARK    1  A    between atoms: C_1  and  C_2
REMARK    2  A    between atoms: C_2  and  C_3
REMARK    3  A    between atoms: N_8  and  C_9
REMARK    4  A    between atoms: C_9  and  C_10
REMARK    5  A    between atoms: N_12  and  C_13
REMARK                            x       y       z     vdW  Elec       q    Type
REMARK                         _______ _______ _______ _____ _____    ______ ____
ROOT
ATOM      1  C   UNL     1       3.628   3.569  18.922  0.00  0.00    +0.000 A 
ATOM      2  C   UNL     1       4.823   3.921  19.517  0.00  0.00    +0.000 A 
ATOM      3  C   UNL     1       5.485   4.964  18.808  0.00  0.00    +0.000 A 
ATOM      4  C   UNL     1       6.725   5.640  19.121  0.00  0.00    +0.000 A 
ATOM      5  O   UNL     1       7.401   5.366  20.113  0.00  0.00    +0.000 OA
ATOM      6  N   UNL     1       7.085   6.623  18.198  0.00  0.00    +0.000 N 
ATOM      7  C   UNL     1       6.285   6.919  17.111  0.00  0.00    +0.000 A 
ATOM      8  N   UNL     1       5.173   6.324  16.805  0.00  0.00    +0.000 NA
ATOM      9  C   UNL     1       4.802   5.351  17.675  0.00  0.00    +0.000 A 
ATOM     10  S   UNL     1       3.365   4.455  17.474  0.00  0.00    +0.000 S 
ENDROOT
BRANCH   1  12
ATOM     11  C   UNL     1       2.126   2.908  20.803  0.00  0.00    +0.000 C 
ATOM     12  C   UNL     1       2.613   2.574  19.399  0.00  0.00    +0.000 C 
ENDBRANCH   1  12
BRANCH   6  13
ATOM     13  C   UNL     1       8.346   7.322  18.413  0.00  0.00    +0.000 C 
BRANCH  13  14
ATOM     14  C   UNL     1       8.183   8.831  18.215  0.00  0.00    +0.000 C 
ATOM     15  O   UNL     1       7.342   9.283  17.440  0.00  0.00    +0.000 OA
ATOM     16  N   UNL     1       9.092   9.623  18.907  0.00  0.00    +0.000 N 
ATOM     17  H   UNL     1       9.417   9.263  19.799  0.00  0.00    +0.000 HD
BRANCH  16  18
ATOM     18  C   UNL     1       9.142  11.077  18.704  0.00  0.00    +0.000 C 
ATOM     19  C   UNL     1       9.199  11.871  20.024  0.00  0.00    +0.000 C 
ATOM     20  C   UNL     1      10.554  11.837  20.746  0.00  0.00    +0.000 C 
ATOM     21  C   UNL     1      11.762  12.013  19.829  0.00  0.00    +0.000 C 
ATOM     22  C   UNL     1      11.656  11.174  18.563  0.00  0.00    +0.000 C 
ATOM     23  C   UNL     1      10.347  11.481  17.840  0.00  0.00    +0.000 C 
ENDBRANCH  16  18
ENDBRANCH  13  14
ENDBRANCH   6  13
TORSDOF 4
ENDMDL
MODEL 5
REMARK VINA RESULT:      -6.8      4.176      7.687
REMARK  Name = 
REMARK  5 active torsions:
REMARK  status: ('A' for Active; 'I' for Inactive)
REMARK    1  A    between atoms: C_1  and  C_2
REMARK    2  A    between atoms: C_2  and  C_3
REMARK    3  A    between atoms: N_8  and  C_9
REMARK    4  A    between atoms: C_9  and  C_10
REMARK    5  A    between atoms: N_12  and  C_13
REMARK                            x       y       z     vdW  Elec       q    Type
REMARK                         _______ _______ _______ _____ _____    ______ ____
ROOT
ATOM      1  C   UNL     1       0.645   9.297  21.206  0.00  0.00    +0.000 A 
ATOM      2  C   UNL     1       0.930   7.964  21.429  0.00  0.00    +0.000 A 
ATOM      3  C   UNL     1       1.522   7.349  20.289  0.00  0.00    +0.000 A 
ATOM      4  C   UNL     1       2.004   5.994  20.126  0.00  0.00    +0.000 A 
ATOM      5  O   UNL     1       1.948   5.155  21.026  0.00  0.00    +0.000 OA
ATOM      6  N   UNL     1       2.528   5.725  18.861  0.00  0.00    +0.000 N 
ATOM      7  C   UNL     1       2.597   6.703  17.887  0.00  0.00    +0.000 A 
ATOM      8  N   UNL     1       2.168   7.921  18.005  0.00  0.00    +0.000 NA
ATOM      9  C   UNL     1       1.636   8.211  19.220  0.00  0.00    +0.000 A 
ATOM     10  S   UNL     1       1.030   9.760  19.598  0.00  0.00    +0.000 S 
ENDROOT
BRANCH   1  12
ATOM     11  C   UNL     1      -0.169   9.669  23.537  0.00  0.00    +0.000 C 
ATOM     12  C   UNL     1       0.089  10.299  22.174  0.00  0.00    +0.000 C 
ENDBRANCH   1  12
BRANCH   6  13
ATOM     13  C   UNL     1       2.993   4.369  18.597  0.00  0.00    +0.000 C 
BRANCH  13  14
ATOM     14  C   UNL     1       4.213   4.374  17.671  0.00  0.00    +0.000 C 
ATOM     15  O   UNL     1       4.193   3.786  16.592  0.00  0.00    +0.000 OA
ATOM     16  N   UNL     1       5.340   5.013  18.176  0.00  0.00    +0.000 N 
ATOM     17  H   UNL     1       5.173   5.801  18.794  0.00  0.00    +0.000 HD
BRANCH  16  18
ATOM     18  C   UNL     1       6.621   4.975  17.458  0.00  0.00    +0.000 C 
ATOM     19  C   UNL     1       6.858   6.217  16.577  0.00  0.00    +0.000 C 
ATOM     20  C   UNL     1       7.224   7.497  17.341  0.00  0.00    +0.000 C 
ATOM     21  C   UNL     1       8.240   7.293  18.463  0.00  0.00    +0.000 C 
ATOM     22  C   UNL     1       7.925   6.072  19.315  0.00  0.00    +0.000 C 
ATOM     23  C   UNL     1       7.803   4.834  18.430  0.00  0.00    +0.000 C 
ENDBRANCH  16  18
ENDBRANCH  13  14
ENDBRANCH   6  13
TORSDOF 4
ENDMDL
MODEL 6
REMARK VINA RESULT:      -6.7      5.146      7.756
REMARK  Name = 
REMARK  5 active torsions:
REMARK  status: ('A' for Active; 'I' for Inactive)
REMARK    1  A    between atoms: C_1  and  C_2
REMARK    2  A    between atoms: C_2  and  C_3
REMARK    3  A    between atoms: N_8  and  C_9
REMARK    4  A    between atoms: C_9  and  C_10
REMARK    5  A    between atoms: N_12  and  C_13
REMARK                            x       y       z     vdW  Elec       q    Type
REMARK                         _______ _______ _______ _____ _____    ______ ____
ROOT
ATOM      1  C   UNL     1      -0.295  10.090  21.886  0.00  0.00    +0.000 A 
ATOM      2  C   UNL     1       0.476   8.949  21.786  0.00  0.00    +0.000 A 
ATOM      3  C   UNL     1       1.042   8.801  20.488  0.00  0.00    +0.000 A 
ATOM      4  C   UNL     1       1.935   7.778  19.989  0.00  0.00    +0.000 A 
ATOM      5  O   UNL     1       2.336   6.846  20.687  0.00  0.00    +0.000 OA
ATOM      6  N   UNL     1       2.294   7.940  18.650  0.00  0.00    +0.000 N 
ATOM      7  C   UNL     1       1.844   9.016  17.908  0.00  0.00    +0.000 A 
ATOM      8  N   UNL     1       1.039   9.942  18.329  0.00  0.00    +0.000 NA
ATOM      9  C   UNL     1       0.657   9.804  19.624  0.00  0.00    +0.000 A 
ATOM     10  S   UNL     1      -0.383  10.921  20.386  0.00  0.00    +0.000 S 
ENDROOT
BRANCH   1  12
ATOM     11  C   UNL     1      -1.439  12.073  22.883  0.00  0.00    +0.000 C 
ATOM     12  C   UNL     1      -0.994  10.632  23.098  0.00  0.00    +0.000 C 
ENDBRANCH   1  12
BRANCH   6  13
ATOM     13  C   UNL     1       3.156   6.926  18.054  0.00  0.00    +0.000 C 
BRANCH  13  14
ATOM     14  C   UNL     1       2.437   5.578  17.956  0.00  0.00    +0.000 C 
ATOM     15  O   UNL     1       1.366   5.471  17.362  0.00  0.00    +0.000 OA
ATOM     16  N   UNL     1       3.040   4.531  18.644  0.00  0.00    +0.000 N 
ATOM     17  H   UNL     1       4.053   4.560  18.711  0.00  0.00    +0.000 HD
BRANCH  16  18
ATOM     18  C   UNL     1       2.390   3.218  18.753  0.00  0.00    +0.000 C 
ATOM     19  C   UNL     1       3.245   2.181  19.507  0.00  0.00    +0.000 C 
ATOM     20  C   UNL     1       3.309   2.372  21.029  0.00  0.00    +0.000 C 
ATOM     21  C   UNL     1       1.969   2.707  21.680  0.00  0.00    +0.000 C 
ATOM     22  C   UNL     1       1.196   3.763  20.904  0.00  0.00    +0.000 C 
ATOM     23  C   UNL     1       1.025   3.326  19.451  0.00  0.00    +0.000 C 
ENDBRANCH  16  18
ENDBRANCH  13  14
ENDBRANCH   6  13
TORSDOF 4
ENDMDL
MODEL 7
REMARK VINA RESULT:      -6.7      4.531      7.713
REMARK  Name = 
REMARK  5 active torsions:
REMARK  status: ('A' for Active; 'I' for Inactive)
REMARK    1  A    between atoms: C_1  and  C_2
REMARK    2  A    between atoms: C_2  and  C_3
REMARK    3  A    between atoms: N_8  and  C_9
REMARK    4  A    between atoms: C_9  and  C_10
REMARK    5  A    between atoms: N_12  and  C_13
REMARK                            x       y       z     vdW  Elec       q    Type
REMARK                         _______ _______ _______ _____ _____    ______ ____
ROOT
ATOM      1  C   UNL     1       3.669   3.780  17.998  0.00  0.00    +0.000 A 
ATOM      2  C   UNL     1       4.216   4.698  17.124  0.00  0.00    +0.000 A 
ATOM      3  C   UNL     1       5.402   5.289  17.646  0.00  0.00    +0.000 A 
ATOM      4  C   UNL     1       6.290   6.253  17.033  0.00  0.00    +0.000 A 
ATOM      5  O   UNL     1       6.103   6.708  15.904  0.00  0.00    +0.000 OA
ATOM      6  N   UNL     1       7.369   6.623  17.838  0.00  0.00    +0.000 N 
ATOM      7  C   UNL     1       7.559   6.069  19.090  0.00  0.00    +0.000 A 
ATOM      8  N   UNL     1       6.775   5.209  19.663  0.00  0.00    +0.000 NA
ATOM      9  C   UNL     1       5.706   4.840  18.913  0.00  0.00    +0.000 A 
ATOM     10  S   UNL     1       4.559   3.705  19.465  0.00  0.00    +0.000 S 
ENDROOT
BRANCH   1  12
ATOM     11  C   UNL     1       1.191   3.591  18.238  0.00  0.00    +0.000 C 
ATOM     12  C   UNL     1       2.472   2.900  17.789  0.00  0.00    +0.000 C 
ENDBRANCH   1  12
BRANCH   6  13
ATOM     13  C   UNL     1       8.288   7.627  17.315  0.00  0.00    +0.000 C 
BRANCH  13  14
ATOM     14  C   UNL     1       7.937   9.023  17.836  0.00  0.00    +0.000 C 
ATOM     15  O   UNL     1       6.810   9.491  17.687  0.00  0.00    +0.000 OA
ATOM     16  N   UNL     1       8.991   9.729  18.404  0.00  0.00    +0.000 N 
ATOM     17  H   UNL     1       9.700   9.177  18.878  0.00  0.00    +0.000 HD
BRANCH  16  18
ATOM     18  C   UNL     1       8.833  11.129  18.818  0.00  0.00    +0.000 C 
ATOM     19  C   UNL     1       9.417  11.417  20.215  0.00  0.00    +0.000 C 
ATOM     20  C   UNL     1      10.949  11.479  20.280  0.00  0.00    +0.000 C 
ATOM     21  C   UNL     1      11.598  12.251  19.133  0.00  0.00    +0.000 C 
ATOM     22  C   UNL     1      11.000  11.892  17.781  0.00  0.00    +0.000 C 
ATOM     23  C   UNL     1       9.486  12.088  17.810  0.00  0.00    +0.000 C 
ENDBRANCH  16  18
ENDBRANCH  13  14
ENDBRANCH   6  13
TORSDOF 4
ENDMDL
MODEL 8
REMARK VINA RESULT:      -6.4      2.936      4.804
REMARK  Name = 
REMARK  5 active torsions:
REMARK  status: ('A' for Active; 'I' for Inactive)
REMARK    1  A    between atoms: C_1  and  C_2
REMARK    2  A    between atoms: C_2  and  C_3
REMARK    3  A    between atoms: N_8  and  C_9
REMARK    4  A    between atoms: C_9  and  C_10
REMARK    5  A    between atoms: N_12  and  C_13
REMARK                            x       y       z     vdW  Elec       q    Type
REMARK                         _______ _______ _______ _____ _____    ______ ____
ROOT
ATOM      1  C   UNL     1       7.954   8.469  17.935  0.00  0.00    +0.000 A 
ATOM      2  C   UNL     1       7.050   7.969  17.018  0.00  0.00    +0.000 A 
ATOM      3  C   UNL     1       6.637   6.646  17.344  0.00  0.00    +0.000 A 
ATOM      4  C   UNL     1       5.679   5.794  16.673  0.00  0.00    +0.000 A 
ATOM      5  O   UNL     1       5.069   6.146  15.662  0.00  0.00    +0.000 OA
ATOM      6  N   UNL     1       5.517   4.542  17.267  0.00  0.00    +0.000 N 
ATOM      7  C   UNL     1       6.201   4.196  18.417  0.00  0.00    +0.000 A 
ATOM      8  N   UNL     1       7.068   4.938  19.035  0.00  0.00    +0.000 NA
ATOM      9  C   UNL     1       7.261   6.157  18.471  0.00  0.00    +0.000 A 
ATOM     10  S   UNL     1       8.342   7.300  19.132  0.00  0.00    +0.000 S 
ENDROOT
BRANCH   1  12
ATOM     11  C   UNL     1       9.203  10.113  19.338  0.00  0.00    +0.000 C 
ATOM     12  C   UNL     1       8.563   9.838  17.983  0.00  0.00    +0.000 C 
ENDBRANCH   1  12
BRANCH   6  13
ATOM     13  C   UNL     1       4.605   3.603  16.627  0.00  0.00    +0.000 C 
BRANCH  13  14
ATOM     14  C   UNL     1       3.191   3.725  17.201  0.00  0.00    +0.000 C 
ATOM     15  O   UNL     1       2.204   3.452  16.523  0.00  0.00    +0.000 OA
ATOM     16  N   UNL     1       3.117   4.234  18.493  0.00  0.00    +0.000 N 
ATOM     17  H   UNL     1       3.895   4.018  19.109  0.00  0.00    +0.000 HD
BRANCH  16  18
ATOM     18  C   UNL     1       1.821   4.536  19.118  0.00  0.00    +0.000 C 
ATOM     19  C   UNL     1       0.940   3.287  19.316  0.00  0.00    +0.000 C 
ATOM     20  C   UNL     1       1.373   2.359  20.459  0.00  0.00    +0.000 C 
ATOM     21  C   UNL     1       1.773   3.083  21.743  0.00  0.00    +0.000 C 
ATOM     22  C   UNL     1       2.672   4.281  21.476  0.00  0.00    +0.000 C 
ATOM     23  C   UNL     1       2.004   5.226  20.479  0.00  0.00    +0.000 C 
ENDBRANCH  16  18
ENDBRANCH  13  14
ENDBRANCH   6  13
TORSDOF 4
ENDMDL
MODEL 9
REMARK VINA RESULT:      -6.4      5.468      7.688
REMARK  Name = 
REMARK  5 active torsions:
REMARK  status: ('A' for Active; 'I' for Inactive)
REMARK    1  A    between atoms: C_1  and  C_2
REMARK    2  A    between atoms: C_2  and  C_3
REMARK    3  A    between atoms: N_8  and  C_9
REMARK    4  A    between atoms: C_9  and  C_10
REMARK    5  A    between atoms: N_12  and  C_13
REMARK                            x       y       z     vdW  Elec       q    Type
REMARK                         _______ _______ _______ _____ _____    ______ ____
ROOT
ATOM      1  C   UNL     1      -0.167  11.566  20.782  0.00  0.00    +0.000 A 
ATOM      2  C   UNL     1       0.440  11.267  19.579  0.00  0.00    +0.000 A 
ATOM      3  C   UNL     1       1.037   9.975  19.590  0.00  0.00    +0.000 A 
ATOM      4  C   UNL     1       1.726   9.274  18.528  0.00  0.00    +0.000 A 
ATOM      5  O   UNL     1       1.888   9.759  17.407  0.00  0.00    +0.000 OA
ATOM      6  N   UNL     1       2.194   8.010  18.889  0.00  0.00    +0.000 N 
ATOM      7  C   UNL     1       1.968   7.492  20.151  0.00  0.00    +0.000 A 
ATOM      8  N   UNL     1       1.359   8.100  21.121  0.00  0.00    +0.000 NA
ATOM      9  C   UNL     1       0.906   9.340  20.807  0.00  0.00    +0.000 A 
ATOM     10  S   UNL     1       0.061  10.308  21.929  0.00  0.00    +0.000 S 
ENDROOT
BRANCH   1  12
ATOM     11  C   UNL     1      -2.457  12.533  21.018  0.00  0.00    +0.000 C 
ATOM     12  C   UNL     1      -0.960  12.788  21.142  0.00  0.00    +0.000 C 
ENDBRANCH   1  12
BRANCH   6  13
ATOM     13  C   UNL     1       2.941   7.255  17.891  0.00  0.00    +0.000 C 
BRANCH  13  14
ATOM     14  C   UNL     1       3.407   5.908  18.451  0.00  0.00    +0.000 C 
ATOM     15  O   UNL     1       4.500   5.793  19.001  0.00  0.00    +0.000 OA
ATOM     16  N   UNL     1       2.547   4.840  18.221  0.00  0.00    +0.000 N 
ATOM     17  H   UNL     1       1.556   5.057  18.187  0.00  0.00    +0.000 HD
BRANCH  16  18
ATOM     18  C   UNL     1       2.929   3.467  18.578  0.00  0.00    +0.000 C 
ATOM     19  C   UNL     1       3.499   3.350  20.006  0.00  0.00    +0.000 C 
ATOM     20  C   UNL     1       2.460   3.447  21.131  0.00  0.00    +0.000 C 
ATOM     21  C   UNL     1       1.178   2.658  20.876  0.00  0.00    +0.000 C 
ATOM     22  C   UNL     1       0.651   2.849  19.461  0.00  0.00    +0.000 C 
ATOM     23  C   UNL     1       1.739   2.503  18.447  0.00  0.00    +0.000 C 
ENDBRANCH  16  18
ENDBRANCH  13  14
ENDBRANCH   6  13
TORSDOF 4
ENDMDL
