MODEL 1
REMARK VINA RESULT:      -8.7      0.000      0.000
REMARK  Name = 
REMARK  6 active torsions:
REMARK  status: ('A' for Active; 'I' for Inactive)
REMARK    1  A    between atoms: C_1  and  O_2
REMARK    2  A    between atoms: O_2  and  C_3
REMARK    3  A    between atoms: C_3  and  C_5
REMARK    4  A    between atoms: C_10  and  C_11
REMARK    5  A    between atoms: C_18  and  C_19
REMARK    6  A    between atoms: C_19  and  C_20
REMARK                            x       y       z     vdW  Elec       q    Type
REMARK                         _______ _______ _______ _____ _____    ______ ____
ROOT
ATOM      1  C   UNL     1       0.800   8.896  20.159  0.00  0.00    +0.000 A 
ATOM      2  C   UNL     1       0.923   9.739  18.975  0.00  0.00    +0.000 A 
ATOM      3  C   UNL     1       1.819   9.467  18.006  0.00  0.00    +0.000 A 
ATOM      4  C   UNL     1       2.670   8.332  18.125  0.00  0.00    +0.000 A 
ATOM      5  N   UNL     1       3.604   7.873  17.325  0.00  0.00    +0.000 NA
ATOM      6  C   UNL     1       4.089   6.732  17.924  0.00  0.00    +0.000 A 
ATOM      7  C   UNL     1       3.410   6.469  19.109  0.00  0.00    +0.000 A 
ATOM      8  N   UNL     1       2.522   7.530  19.251  0.00  0.00    +0.000 N 
ATOM      9  C   UNL     1       1.606   7.817  20.267  0.00  0.00    +0.000 A 
ENDROOT
BRANCH   6  10
ATOM     10  C   UNL     1       5.123   5.924  17.288  0.00  0.00    +0.000 A 
ATOM     11  C   UNL     1       6.343   5.641  17.918  0.00  0.00    +0.000 A 
ATOM     12  C   UNL     1       7.308   4.839  17.304  0.00  0.00    +0.000 A 
ATOM     13  C   UNL     1       7.086   4.342  16.026  0.00  0.00    +0.000 A 
ATOM     14  C   UNL     1       5.896   4.652  15.369  0.00  0.00    +0.000 A 
ATOM     15 BR   UNL     1       5.616   4.012  13.611  0.00  0.00    +0.000 Br
ATOM     16  C   UNL     1       4.918   5.431  15.991  0.00  0.00    +0.000 A 
ENDBRANCH   6  10
BRANCH   1  17
ATOM     17  C   UNL     1      -0.184   9.142  21.252  0.00  0.00    +0.000 C 
ATOM     18  O   UNL     1      -0.812   8.256  21.814  0.00  0.00    +0.000 OA
BRANCH  17  20
ATOM     19  C   UNL     1      -0.864  10.775  22.782  0.00  0.00    +0.000 C 
ATOM     20  O   UNL     1      -0.307  10.473  21.499  0.00  0.00    +0.000 OA
ENDBRANCH  17  20
ENDBRANCH   1  17
BRANCH   7  21
ATOM     21  C   UNL     1       3.445   5.298  20.043  0.00  0.00    +0.000 C 
BRANCH  21  22
ATOM     22  C   UNL     1       2.858   4.003  19.516  0.00  0.00    +0.000 A 
ATOM     23  C   UNL     1       1.460   3.828  19.527  0.00  0.00    +0.000 A 
ATOM     24  C   UNL     1       0.878   2.623  19.122  0.00  0.00    +0.000 A 
ATOM     25  C   UNL     1       1.687   1.568  18.710  0.00  0.00    +0.000 A 
ATOM     26  C   UNL     1       3.066   1.737  18.683  0.00  0.00    +0.000 A 
ATOM     27  F   UNL     1       3.845   0.726  18.280  0.00  0.00    +0.000 F 
ATOM     28  C   UNL     1       3.654   2.937  19.076  0.00  0.00    +0.000 A 
ENDBRANCH  21  22
ENDBRANCH   7  21
TORSDOF 5
ENDMDL
MODEL 2
REMARK VINA RESULT:      -8.7      0.812      1.214
REMARK  Name = 
REMARK  6 active torsions:
REMARK  status: ('A' for Active; 'I' for Inactive)
REMARK    1  A    between atoms: C_1  and  O_2
REMARK    2  A    between atoms: O_2  and  C_3
REMARK    3  A    between atoms: C_3  and  C_5
REMARK    4  A    between atoms: C_10  and  C_11
REMARK    5  A    between atoms: C_18  and  C_19
REMARK    6  A    between atoms: C_19  and  C_20
REMARK                            x       y       z     vdW  Elec       q    Type
REMARK                         _______ _______ _______ _____ _____    ______ ____
ROOT
ATOM      1  C   UNL     1       0.733   8.890  20.114  0.00  0.00    +0.000 A 
ATOM      2  C   UNL     1       0.847   9.703  18.908  0.00  0.00    +0.000 A 
ATOM      3  C   UNL     1       1.755   9.422  17.952  0.00  0.00    +0.000 A 
ATOM      4  C   UNL     1       2.626   8.306  18.107  0.00  0.00    +0.000 A 
ATOM      5  N   UNL     1       3.573   7.844  17.325  0.00  0.00    +0.000 NA
ATOM      6  C   UNL     1       4.075   6.728  17.958  0.00  0.00    +0.000 A 
ATOM      7  C   UNL     1       3.393   6.484  19.145  0.00  0.00    +0.000 A 
ATOM      8  N   UNL     1       2.485   7.532  19.253  0.00  0.00    +0.000 N 
ATOM      9  C   UNL     1       1.557   7.830  20.256  0.00  0.00    +0.000 A 
ENDROOT
BRANCH   6  10
ATOM     10  C   UNL     1       5.128   5.922  17.350  0.00  0.00    +0.000 A 
ATOM     11  C   UNL     1       6.345   5.671  17.998  0.00  0.00    +0.000 A 
ATOM     12  C   UNL     1       7.328   4.871  17.412  0.00  0.00    +0.000 A 
ATOM     13  C   UNL     1       7.128   4.344  16.142  0.00  0.00    +0.000 A 
ATOM     14  C   UNL     1       5.940   4.622  15.467  0.00  0.00    +0.000 A 
ATOM     15 BR   UNL     1       5.688   3.941  13.719  0.00  0.00    +0.000 Br
ATOM     16  C   UNL     1       4.943   5.399  16.062  0.00  0.00    +0.000 A 
ENDBRANCH   6  10
BRANCH   1  17
ATOM     17  C   UNL     1      -0.264   9.147  21.194  0.00  0.00    +0.000 C 
ATOM     18  O   UNL     1      -0.729   8.273  21.911  0.00  0.00    +0.000 OA
BRANCH  17  20
ATOM     19  C   UNL     1      -0.613  11.016  22.556  0.00  0.00    +0.000 C 
ATOM     20  O   UNL     1      -0.599  10.464  21.236  0.00  0.00    +0.000 OA
ENDBRANCH  17  20
ENDBRANCH   1  17
BRANCH   7  21
ATOM     21  C   UNL     1       3.444   5.340  20.110  0.00  0.00    +0.000 C 
BRANCH  21  22
ATOM     22  C   UNL     1       3.014   3.989  19.571  0.00  0.00    +0.000 A 
ATOM     23  C   UNL     1       3.999   3.054  19.193  0.00  0.00    +0.000 A 
ATOM     24  C   UNL     1       3.651   1.827  18.621  0.00  0.00    +0.000 A 
ATOM     25  C   UNL     1       2.311   1.519  18.407  0.00  0.00    +0.000 A 
ATOM     26  C   UNL     1       1.333   2.429  18.788  0.00  0.00    +0.000 A 
ATOM     27  F   UNL     1       0.043   2.131  18.588  0.00  0.00    +0.000 F 
ATOM     28  C   UNL     1       1.669   3.651  19.367  0.00  0.00    +0.000 A 
ENDBRANCH  21  22
ENDBRANCH   7  21
TORSDOF 5
ENDMDL
MODEL 3
REMARK VINA RESULT:      -8.2      1.761      2.321
REMARK  Name = 
REMARK  6 active torsions:
REMARK  status: ('A' for Active; 'I' for Inactive)
REMARK    1  A    between atoms: C_1  and  O_2
REMARK    2  A    between atoms: O_2  and  C_3
REMARK    3  A    between atoms: C_3  and  C_5
REMARK    4  A    between atoms: C_10  and  C_11
REMARK    5  A    between atoms: C_18  and  C_19
REMARK    6  A    between atoms: C_19  and  C_20
REMARK                            x       y       z     vdW  Elec       q    Type
REMARK                         _______ _______ _______ _____ _____    ______ ____
ROOT
ATOM      1  C   UNL     1       0.420  10.105  20.995  0.00  0.00    +0.000 A 
ATOM      2  C   UNL     1       0.523  10.761  19.696  0.00  0.00    +0.000 A 
ATOM      3  C   UNL     1       1.166  10.182  18.663  0.00  0.00    +0.000 A 
ATOM      4  C   UNL     1       1.762   8.899  18.827  0.00  0.00    +0.000 A 
ATOM      5  N   UNL     1       2.429   8.150  17.981  0.00  0.00    +0.000 NA
ATOM      6  C   UNL     1       2.750   6.999  18.667  0.00  0.00    +0.000 A 
ATOM      7  C   UNL     1       2.236   7.034  19.959  0.00  0.00    +0.000 A 
ATOM      8  N   UNL     1       1.633   8.283  20.067  0.00  0.00    +0.000 N 
ATOM      9  C   UNL     1       0.981   8.886  21.146  0.00  0.00    +0.000 A 
ENDROOT
BRANCH   6  10
ATOM     10  C   UNL     1       3.466   5.906  18.020  0.00  0.00    +0.000 A 
ATOM     11  C   UNL     1       2.803   4.879  17.334  0.00  0.00    +0.000 A 
ATOM     12  C   UNL     1       3.508   3.859  16.694  0.00  0.00    +0.000 A 
ATOM     13  C   UNL     1       4.895   3.822  16.768  0.00  0.00    +0.000 A 
ATOM     14  C   UNL     1       5.568   4.812  17.485  0.00  0.00    +0.000 A 
ATOM     15 BR   UNL     1       7.453   4.735  17.623  0.00  0.00    +0.000 Br
ATOM     16  C   UNL     1       4.866   5.849  18.103  0.00  0.00    +0.000 A 
ENDBRANCH   6  10
BRANCH   1  17
ATOM     17  C   UNL     1      -0.294  10.694  22.165  0.00  0.00    +0.000 C 
ATOM     18  O   UNL     1      -1.024  10.053  22.908  0.00  0.00    +0.000 OA
BRANCH  17  20
ATOM     19  C   UNL     1      -1.168  12.792  22.717  0.00  0.00    +0.000 C 
ATOM     20  O   UNL     1      -0.048  12.027  22.258  0.00  0.00    +0.000 OA
ENDBRANCH  17  20
ENDBRANCH   1  17
BRANCH   7  21
ATOM     21  C   UNL     1       2.174   5.997  21.039  0.00  0.00    +0.000 C 
BRANCH  21  22
ATOM     22  C   UNL     1       2.116   4.553  20.578  0.00  0.00    +0.000 A 
ATOM     23  C   UNL     1       3.256   3.738  20.726  0.00  0.00    +0.000 A 
ATOM     24  C   UNL     1       3.273   2.425  20.248  0.00  0.00    +0.000 A 
ATOM     25  C   UNL     1       2.154   1.908  19.602  0.00  0.00    +0.000 A 
ATOM     26  C   UNL     1       1.022   2.701  19.463  0.00  0.00    +0.000 A 
ATOM     27  F   UNL     1      -0.059   2.203  18.848  0.00  0.00    +0.000 F 
ATOM     28  C   UNL     1       0.991   4.008  19.944  0.00  0.00    +0.000 A 
ENDBRANCH  21  22
ENDBRANCH   7  21
TORSDOF 5
ENDMDL
MODEL 4
REMARK VINA RESULT:      -8.2      1.595      2.061
REMARK  Name = 
REMARK  6 active torsions:
REMARK  status: ('A' for Active; 'I' for Inactive)
REMARK    1  A    between atoms: C_1  and  O_2
REMARK    2  A    between atoms: O_2  and  C_3
REMARK    3  A    between atoms: C_3  and  C_5
REMARK    4  A    between atoms: C_10  and  C_11
REMARK    5  A    between atoms: C_18  and  C_19
REMARK    6  A    between atoms: C_19  and  C_20
REMARK                            x       y       z     vdW  Elec       q    Type
REMARK                         _______ _______ _______ _____ _____    ______ ____
ROOT
ATOM      1  C   UNL     1       0.387  10.043  21.151  0.00  0.00    +0.000 A 
ATOM      2  C   UNL     1       0.531  10.764  19.891  0.00  0.00    +0.000 A 
ATOM      3  C   UNL     1       1.190  10.228  18.845  0.00  0.00    +0.000 A 
ATOM      4  C   UNL     1       1.761   8.928  18.955  0.00  0.00    +0.000 A 
ATOM      5  N   UNL     1       2.437   8.212  18.087  0.00  0.00    +0.000 NA
ATOM      6  C   UNL     1       2.722   7.022  18.719  0.00  0.00    +0.000 A 
ATOM      7  C   UNL     1       2.177   6.998  19.999  0.00  0.00    +0.000 A 
ATOM      8  N   UNL     1       1.592   8.250  20.157  0.00  0.00    +0.000 N 
ATOM      9  C   UNL     1       0.924   8.808  21.252  0.00  0.00    +0.000 A 
ENDROOT
BRANCH   6  10
ATOM     10  C   UNL     1       3.436   5.952  18.032  0.00  0.00    +0.000 A 
ATOM     11  C   UNL     1       2.768   4.930  17.342  0.00  0.00    +0.000 A 
ATOM     12  C   UNL     1       3.471   3.932  16.664  0.00  0.00    +0.000 A 
ATOM     13  C   UNL     1       4.860   3.913  16.704  0.00  0.00    +0.000 A 
ATOM     14  C   UNL     1       5.537   4.897  17.423  0.00  0.00    +0.000 A 
ATOM     15 BR   UNL     1       7.426   4.842  17.513  0.00  0.00    +0.000 Br
ATOM     16  C   UNL     1       4.837   5.912  18.080  0.00  0.00    +0.000 A 
ENDBRANCH   6  10
BRANCH   1  17
ATOM     17  C   UNL     1      -0.346  10.582  22.334  0.00  0.00    +0.000 C 
ATOM     18  O   UNL     1      -0.118  10.244  23.487  0.00  0.00    +0.000 OA
BRANCH  17  20
ATOM     19  C   UNL     1      -1.372  12.643  22.743  0.00  0.00    +0.000 C 
ATOM     20  O   UNL     1      -1.310  11.457  21.944  0.00  0.00    +0.000 OA
ENDBRANCH  17  20
ENDBRANCH   1  17
BRANCH   7  21
ATOM     21  C   UNL     1       2.072   5.908  21.020  0.00  0.00    +0.000 C 
BRANCH  21  22
ATOM     22  C   UNL     1       2.080   4.488  20.487  0.00  0.00    +0.000 A 
ATOM     23  C   UNL     1       0.866   3.900  20.079  0.00  0.00    +0.000 A 
ATOM     24  C   UNL     1       0.814   2.569  19.653  0.00  0.00    +0.000 A 
ATOM     25  C   UNL     1       1.974   1.802  19.638  0.00  0.00    +0.000 A 
ATOM     26  C   UNL     1       3.177   2.377  20.026  0.00  0.00    +0.000 A 
ATOM     27  F   UNL     1       4.295   1.642  20.006  0.00  0.00    +0.000 F 
ATOM     28  C   UNL     1       3.241   3.704  20.444  0.00  0.00    +0.000 A 
ENDBRANCH  21  22
ENDBRANCH   7  21
TORSDOF 5
ENDMDL
MODEL 5
REMARK VINA RESULT:      -8.1      1.343      1.449
REMARK  Name = 
REMARK  6 active torsions:
REMARK  status: ('A' for Active; 'I' for Inactive)
REMARK    1  A    between atoms: C_1  and  O_2
REMARK    2  A    between atoms: O_2  and  C_3
REMARK    3  A    between atoms: C_3  and  C_5
REMARK    4  A    between atoms: C_10  and  C_11
REMARK    5  A    between atoms: C_18  and  C_19
REMARK    6  A    between atoms: C_19  and  C_20
REMARK                            x       y       z     vdW  Elec       q    Type
REMARK                         _______ _______ _______ _____ _____    ______ ____
ROOT
ATOM      1  C   UNL     1       1.112   8.923  19.856  0.00  0.00    +0.000 A 
ATOM      2  C   UNL     1       1.090   9.669  18.602  0.00  0.00    +0.000 A 
ATOM      3  C   UNL     1       1.903   9.346  17.577  0.00  0.00    +0.000 A 
ATOM      4  C   UNL     1       2.806   8.252  17.703  0.00  0.00    +0.000 A 
ATOM      5  N   UNL     1       3.679   7.760  16.855  0.00  0.00    +0.000 NA
ATOM      6  C   UNL     1       4.262   6.688  17.494  0.00  0.00    +0.000 A 
ATOM      7  C   UNL     1       3.707   6.502  18.756  0.00  0.00    +0.000 A 
ATOM      8  N   UNL     1       2.795   7.542  18.898  0.00  0.00    +0.000 N 
ATOM      9  C   UNL     1       1.966   7.883  19.971  0.00  0.00    +0.000 A 
ENDROOT
BRANCH   6  10
ATOM     10  C   UNL     1       5.264   5.863  16.828  0.00  0.00    +0.000 A 
ATOM     11  C   UNL     1       6.509   5.585  17.409  0.00  0.00    +0.000 A 
ATOM     12  C   UNL     1       7.443   4.767  16.768  0.00  0.00    +0.000 A 
ATOM     13  C   UNL     1       7.163   4.250  15.510  0.00  0.00    +0.000 A 
ATOM     14  C   UNL     1       5.947   4.555  14.900  0.00  0.00    +0.000 A 
ATOM     15 BR   UNL     1       5.587   3.887  13.166  0.00  0.00    +0.000 Br
ATOM     16  C   UNL     1       5.000   5.350  15.550  0.00  0.00    +0.000 A 
ENDBRANCH   6  10
BRANCH   1  17
ATOM     17  C   UNL     1       0.224   9.227  21.015  0.00  0.00    +0.000 C 
ATOM     18  O   UNL     1       0.386   8.763  22.135  0.00  0.00    +0.000 OA
BRANCH  17  20
ATOM     19  C   UNL     1      -0.808  11.301  21.332  0.00  0.00    +0.000 C 
ATOM     20  O   UNL     1      -0.792  10.048  20.641  0.00  0.00    +0.000 OA
ENDBRANCH  17  20
ENDBRANCH   1  17
BRANCH   7  21
ATOM     21  C   UNL     1       3.876   5.414  19.772  0.00  0.00    +0.000 C 
BRANCH  21  22
ATOM     22  C   UNL     1       2.780   4.366  19.819  0.00  0.00    +0.000 A 
ATOM     23  C   UNL     1       2.161   3.964  18.619  0.00  0.00    +0.000 A 
ATOM     24  C   UNL     1       1.097   3.058  18.621  0.00  0.00    +0.000 A 
ATOM     25  C   UNL     1       0.626   2.547  19.827  0.00  0.00    +0.000 A 
ATOM     26  C   UNL     1       1.239   2.928  21.014  0.00  0.00    +0.000 A 
ATOM     27  F   UNL     1       0.792   2.432  22.174  0.00  0.00    +0.000 F 
ATOM     28  C   UNL     1       2.306   3.823  21.021  0.00  0.00    +0.000 A 
ENDBRANCH  21  22
ENDBRANCH   7  21
TORSDOF 5
ENDMDL
MODEL 6
REMARK VINA RESULT:      -8.0      1.088      1.295
REMARK  Name = 
REMARK  6 active torsions:
REMARK  status: ('A' for Active; 'I' for Inactive)
REMARK    1  A    between atoms: C_1  and  O_2
REMARK    2  A    between atoms: O_2  and  C_3
REMARK    3  A    between atoms: C_3  and  C_5
REMARK    4  A    between atoms: C_10  and  C_11
REMARK    5  A    between atoms: C_18  and  C_19
REMARK    6  A    between atoms: C_19  and  C_20
REMARK                            x       y       z     vdW  Elec       q    Type
REMARK                         _______ _______ _______ _____ _____    ______ ____
ROOT
ATOM      1  C   UNL     1       1.043   8.695  20.173  0.00  0.00    +0.000 A 
ATOM      2  C   UNL     1       0.927   9.499  18.961  0.00  0.00    +0.000 A 
ATOM      3  C   UNL     1       1.706   9.269  17.886  0.00  0.00    +0.000 A 
ATOM      4  C   UNL     1       2.666   8.217  17.917  0.00  0.00    +0.000 A 
ATOM      5  N   UNL     1       3.521   7.811  17.008  0.00  0.00    +0.000 NA
ATOM      6  C   UNL     1       4.185   6.740  17.566  0.00  0.00    +0.000 A 
ATOM      7  C   UNL     1       3.698   6.466  18.840  0.00  0.00    +0.000 A 
ATOM      8  N   UNL     1       2.744   7.451  19.074  0.00  0.00    +0.000 N 
ATOM      9  C   UNL     1       1.950   7.696  20.198  0.00  0.00    +0.000 A 
ENDROOT
BRANCH   6  10
ATOM     10  C   UNL     1       5.194   6.001  16.816  0.00  0.00    +0.000 A 
ATOM     11  C   UNL     1       6.519   5.886  17.258  0.00  0.00    +0.000 A 
ATOM     12  C   UNL     1       7.462   5.148  16.540  0.00  0.00    +0.000 A 
ATOM     13  C   UNL     1       7.106   4.547  15.339  0.00  0.00    +0.000 A 
ATOM     14  C   UNL     1       5.802   4.691  14.864  0.00  0.00    +0.000 A 
ATOM     15 BR   UNL     1       5.332   3.911  13.205  0.00  0.00    +0.000 Br
ATOM     16  C   UNL     1       4.850   5.406  15.593  0.00  0.00    +0.000 A 
ENDBRANCH   6  10
BRANCH   1  17
ATOM     17  C   UNL     1       0.195   8.897  21.384  0.00  0.00    +0.000 C 
ATOM     18  O   UNL     1      -0.719   8.152  21.706  0.00  0.00    +0.000 OA
BRANCH  17  20
ATOM     19  C   UNL     1      -0.530  10.696  22.692  0.00  0.00    +0.000 C 
ATOM     20  O   UNL     1       0.558  10.029  22.042  0.00  0.00    +0.000 OA
ENDBRANCH  17  20
ENDBRANCH   1  17
BRANCH   7  21
ATOM     21  C   UNL     1       3.966   5.340  19.790  0.00  0.00    +0.000 C 
BRANCH  21  22
ATOM     22  C   UNL     1       2.811   4.391  20.048  0.00  0.00    +0.000 A 
ATOM     23  C   UNL     1       2.528   3.995  21.370  0.00  0.00    +0.000 A 
ATOM     24  C   UNL     1       1.522   3.065  21.648  0.00  0.00    +0.000 A 
ATOM     25  C   UNL     1       0.790   2.507  20.605  0.00  0.00    +0.000 A 
ATOM     26  C   UNL     1       1.053   2.901  19.300  0.00  0.00    +0.000 A 
ATOM     27  F   UNL     1       0.345   2.369  18.296  0.00  0.00    +0.000 F 
ATOM     28  C   UNL     1       2.047   3.834  19.013  0.00  0.00    +0.000 A 
ENDBRANCH  21  22
ENDBRANCH   7  21
TORSDOF 5
ENDMDL
MODEL 7
REMARK VINA RESULT:      -8.0      1.757      2.263
REMARK  Name = 
REMARK  6 active torsions:
REMARK  status: ('A' for Active; 'I' for Inactive)
REMARK    1  A    between atoms: C_1  and  O_2
REMARK    2  A    between atoms: O_2  and  C_3
REMARK    3  A    between atoms: C_3  and  C_5
REMARK    4  A    between atoms: C_10  and  C_11
REMARK    5  A    between atoms: C_18  and  C_19
REMARK    6  A    between atoms: C_19  and  C_20
REMARK                            x       y       z     vdW  Elec       q    Type
REMARK                         _______ _______ _______ _____ _____    ______ ____
ROOT
ATOM      1  C   UNL     1       0.186  10.482  20.062  0.00  0.00    +0.000 A 
ATOM      2  C   UNL     1       0.458  10.976  18.717  0.00  0.00    +0.000 A 
ATOM      3  C   UNL     1       1.224  10.281  17.853  0.00  0.00    +0.000 A 
ATOM      4  C   UNL     1       1.784   9.032  18.247  0.00  0.00    +0.000 A 
ATOM      5  N   UNL     1       2.549   8.191  17.591  0.00  0.00    +0.000 NA
ATOM      6  C   UNL     1       2.771   7.135  18.448  0.00  0.00    +0.000 A 
ATOM      7  C   UNL     1       2.097   7.323  19.650  0.00  0.00    +0.000 A 
ATOM      8  N   UNL     1       1.495   8.571  19.526  0.00  0.00    +0.000 N 
ATOM      9  C   UNL     1       0.714   9.296  20.432  0.00  0.00    +0.000 A 
ENDROOT
BRANCH   6  10
ATOM     10  C   UNL     1       3.557   5.978  18.035  0.00  0.00    +0.000 A 
ATOM     11  C   UNL     1       2.968   4.838  17.471  0.00  0.00    +0.000 A 
ATOM     12  C   UNL     1       3.741   3.752  17.053  0.00  0.00    +0.000 A 
ATOM     13  C   UNL     1       5.118   3.770  17.236  0.00  0.00    +0.000 A 
ATOM     14  C   UNL     1       5.714   4.879  17.837  0.00  0.00    +0.000 A 
ATOM     15 BR   UNL     1       7.583   4.882  18.127  0.00  0.00    +0.000 Br
ATOM     16  C   UNL     1       4.946   5.978  18.231  0.00  0.00    +0.000 A 
ENDBRANCH   6  10
BRANCH   1  17
ATOM     17  C   UNL     1      -0.667  11.203  21.051  0.00  0.00    +0.000 C 
ATOM     18  O   UNL     1      -1.223  12.268  20.822  0.00  0.00    +0.000 OA
BRANCH  17  20
ATOM     19  C   UNL     1      -1.495  11.176  23.239  0.00  0.00    +0.000 C 
ATOM     20  O   UNL     1      -0.704  10.533  22.233  0.00  0.00    +0.000 OA
ENDBRANCH  17  20
ENDBRANCH   1  17
BRANCH   7  21
ATOM     21  C   UNL     1       1.890   6.426  20.830  0.00  0.00    +0.000 C 
BRANCH  21  22
ATOM     22  C   UNL     1       1.959   4.935  20.558  0.00  0.00    +0.000 A 
ATOM     23  C   UNL     1       0.822   4.276  20.049  0.00  0.00    +0.000 A 
ATOM     24  C   UNL     1       0.814   2.892  19.854  0.00  0.00    +0.000 A 
ATOM     25  C   UNL     1       1.941   2.142  20.177  0.00  0.00    +0.000 A 
ATOM     26  C   UNL     1       3.070   2.784  20.667  0.00  0.00    +0.000 A 
ATOM     27  F   UNL     1       4.157   2.065  20.973  0.00  0.00    +0.000 F 
ATOM     28  C   UNL     1       3.091   4.164  20.857  0.00  0.00    +0.000 A 
ENDBRANCH  21  22
ENDBRANCH   7  21
TORSDOF 5
ENDMDL
MODEL 8
REMARK VINA RESULT:      -7.8      0.857      1.034
REMARK  Name = 
REMARK  6 active torsions:
REMARK  status: ('A' for Active; 'I' for Inactive)
REMARK    1  A    between atoms: C_1  and  O_2
REMARK    2  A    between atoms: O_2  and  C_3
REMARK    3  A    between atoms: C_3  and  C_5
REMARK    4  A    between atoms: C_10  and  C_11
REMARK    5  A    between atoms: C_18  and  C_19
REMARK    6  A    between atoms: C_19  and  C_20
REMARK                            x       y       z     vdW  Elec       q    Type
REMARK                         _______ _______ _______ _____ _____    ______ ____
ROOT
ATOM      1  C   UNL     1       0.566   9.567  19.695  0.00  0.00    +0.000 A 
ATOM      2  C   UNL     1       0.885  10.341  18.500  0.00  0.00    +0.000 A 
ATOM      3  C   UNL     1       1.865   9.961  17.656  0.00  0.00    +0.000 A 
ATOM      4  C   UNL     1       2.611   8.777  17.921  0.00  0.00    +0.000 A 
ATOM      5  N   UNL     1       3.595   8.218  17.257  0.00  0.00    +0.000 NA
ATOM      6  C   UNL     1       3.922   7.076  17.955  0.00  0.00    +0.000 A 
ATOM      7  C   UNL     1       3.093   6.919  19.061  0.00  0.00    +0.000 A 
ATOM      8  N   UNL     1       2.276   8.044  19.054  0.00  0.00    +0.000 N 
ATOM      9  C   UNL     1       1.272   8.442  19.942  0.00  0.00    +0.000 A 
ENDROOT
BRANCH   6  10
ATOM     10  C   UNL     1       4.961   6.169  17.480  0.00  0.00    +0.000 A 
ATOM     11  C   UNL     1       6.073   5.830  18.263  0.00  0.00    +0.000 A 
ATOM     12  C   UNL     1       7.040   4.935  17.801  0.00  0.00    +0.000 A 
ATOM     13  C   UNL     1       6.935   4.398  16.524  0.00  0.00    +0.000 A 
ATOM     14  C   UNL     1       5.857   4.761  15.716  0.00  0.00    +0.000 A 
ATOM     15 BR   UNL     1       5.740   4.064  13.961  0.00  0.00    +0.000 Br
ATOM     16  C   UNL     1       4.874   5.635  16.186  0.00  0.00    +0.000 A 
ENDBRANCH   6  10
BRANCH   1  17
ATOM     17  C   UNL     1      -0.518   9.933  20.653  0.00  0.00    +0.000 C 
ATOM     18  O   UNL     1      -1.387  10.759  20.413  0.00  0.00    +0.000 OA
BRANCH  17  20
ATOM     19  C   UNL     1      -0.686  10.030  22.983  0.00  0.00    +0.000 C 
ATOM     20  O   UNL     1      -0.377   9.253  21.822  0.00  0.00    +0.000 OA
ENDBRANCH  17  20
ENDBRANCH   1  17
BRANCH   7  21
ATOM     21  C   UNL     1       2.935   5.796  20.039  0.00  0.00    +0.000 C 
BRANCH  21  22
ATOM     22  C   UNL     1       3.031   4.393  19.470  0.00  0.00    +0.000 A 
ATOM     23  C   UNL     1       2.094   3.978  18.503  0.00  0.00    +0.000 A 
ATOM     24  C   UNL     1       2.097   2.671  18.006  0.00  0.00    +0.000 A 
ATOM     25  C   UNL     1       3.032   1.754  18.477  0.00  0.00    +0.000 A 
ATOM     26  C   UNL     1       3.968   2.159  19.420  0.00  0.00    +0.000 A 
ATOM     27  F   UNL     1       4.872   1.280  19.870  0.00  0.00    +0.000 F 
ATOM     28  C   UNL     1       3.978   3.461  19.915  0.00  0.00    +0.000 A 
ENDBRANCH  21  22
ENDBRANCH   7  21
TORSDOF 5
ENDMDL
MODEL 9
REMARK VINA RESULT:      -7.5      5.355     10.011
REMARK  Name = 
REMARK  6 active torsions:
REMARK  status: ('A' for Active; 'I' for Inactive)
REMARK    1  A    between atoms: C_1  and  O_2
REMARK    2  A    between atoms: O_2  and  C_3
REMARK    3  A    between atoms: C_3  and  C_5
REMARK    4  A    between atoms: C_10  and  C_11
REMARK    5  A    between atoms: C_18  and  C_19
REMARK    6  A    between atoms: C_19  and  C_20
REMARK                            x       y       z     vdW  Elec       q    Type
REMARK                         _______ _______ _______ _____ _____    ______ ____
ROOT
ATOM      1  C   UNL     1       1.456   8.896  19.598  0.00  0.00    +0.000 A 
ATOM      2  C   UNL     1       1.597   8.186  20.865  0.00  0.00    +0.000 A 
ATOM      3  C   UNL     1       1.039   8.653  21.999  0.00  0.00    +0.000 A 
ATOM      4  C   UNL     1       0.289   9.863  21.977  0.00  0.00    +0.000 A 
ATOM      5  N   UNL     1      -0.334  10.503  22.938  0.00  0.00    +0.000 NA
ATOM      6  C   UNL     1      -0.914  11.604  22.346  0.00  0.00    +0.000 A 
ATOM      7  C   UNL     1      -0.662  11.619  20.978  0.00  0.00    +0.000 A 
ATOM      8  N   UNL     1       0.150  10.512  20.755  0.00  0.00    +0.000 N 
ATOM      9  C   UNL     1       0.740  10.042  19.578  0.00  0.00    +0.000 A 
ENDROOT
BRANCH   6  10
ATOM     10  C   UNL     1      -1.733  12.534  23.115  0.00  0.00    +0.000 A 
ATOM     11  C   UNL     1      -3.056  12.242  23.476  0.00  0.00    +0.000 A 
ATOM     12  C   UNL     1      -3.813  13.133  24.239  0.00  0.00    +0.000 A 
ATOM     13  C   UNL     1      -3.274  14.356  24.617  0.00  0.00    +0.000 A 
ATOM     14  C   UNL     1      -1.974  14.679  24.227  0.00  0.00    +0.000 A 
ATOM     15 BR   UNL     1      -1.257  16.364  24.703  0.00  0.00    +0.000 Br
ATOM     16  C   UNL     1      -1.204  13.779  23.486  0.00  0.00    +0.000 A 
ENDBRANCH   6  10
BRANCH   1  17
ATOM     17  C   UNL     1       2.037   8.417  18.311  0.00  0.00    +0.000 C 
ATOM     18  O   UNL     1       2.152   9.116  17.314  0.00  0.00    +0.000 OA
BRANCH  17  20
ATOM     19  C   UNL     1       3.647   6.795  17.810  0.00  0.00    +0.000 C 
ATOM     20  O   UNL     1       2.378   7.104  18.397  0.00  0.00    +0.000 OA
ENDBRANCH  17  20
ENDBRANCH   1  17
BRANCH   7  21
ATOM     21  C   UNL     1      -1.178  12.494  19.877  0.00  0.00    +0.000 C 
BRANCH  21  22
ATOM     22  C   UNL     1      -2.457  12.036  19.202  0.00  0.00    +0.000 A 
ATOM     23  C   UNL     1      -3.697  12.463  19.718  0.00  0.00    +0.000 A 
ATOM     24  C   UNL     1      -4.902  12.007  19.175  0.00  0.00    +0.000 A 
ATOM     25  C   UNL     1      -4.886  11.107  18.115  0.00  0.00    +0.000 A 
ATOM     26  C   UNL     1      -3.669  10.691  17.592  0.00  0.00    +0.000 A 
ATOM     27  F   UNL     1      -3.652   9.830  16.567  0.00  0.00    +0.000 F 
ATOM     28  C   UNL     1      -2.463  11.146  18.119  0.00  0.00    +0.000 A 
ENDBRANCH  21  22
ENDBRANCH   7  21
TORSDOF 5
ENDMDL
