MODEL 1
REMARK VINA RESULT:      -7.0      0.000      0.000
REMARK  Name = 
REMARK  6 active torsions:
REMARK  status: ('A' for Active; 'I' for Inactive)
REMARK    1  A    between atoms: C_1  and  C_2
REMARK    2  A    between atoms: C_5  and  C_6
REMARK    3  A    between atoms: C_12  and  C_13
REMARK    4  A    between atoms: C_13  and  C_14
REMARK    5  A    between atoms: C_13  and  C_15
REMARK    6  A    between atoms: C_13  and  C_16
REMARK                            x       y       z     vdW  Elec       q    Type
REMARK                         _______ _______ _______ _____ _____    ______ ____
ROOT
ATOM      1  C   UNL     1       6.531   4.540  15.150  0.00  0.00    +0.000 C 
ATOM      2  C   UNL     1       5.492   5.240  15.966  0.00  0.00    +0.000 A 
ATOM      3  N   UNL     1       5.476   6.570  15.957  0.00  0.00    +0.000 NA
ATOM      4  C   UNL     1       4.532   7.138  16.727  0.00  0.00    +0.000 A 
ATOM      5  C   UNL     1       3.597   6.484  17.537  0.00  0.00    +0.000 A 
ATOM      6  C   UNL     1       3.694   5.078  17.478  0.00  0.00    +0.000 A 
ATOM      7  N   UNL     1       4.629   4.488  16.674  0.00  0.00    +0.000 NA
ENDROOT
BRANCH   5   8
ATOM      8  C   UNL     1       2.688   7.318  18.358  0.00  0.00    +0.000 A 
ATOM      9  C   UNL     1       2.434   7.074  19.714  0.00  0.00    +0.000 A 
ATOM     10  C   UNL     1       1.732   7.992  20.506  0.00  0.00    +0.000 A 
ATOM     11  C   UNL     1       1.144   9.108  19.927  0.00  0.00    +0.000 A 
ATOM     12  C   UNL     1       1.234   9.291  18.553  0.00  0.00    +0.000 A 
ATOM     13  C   UNL     1       2.008   8.416  17.783  0.00  0.00    +0.000 A 
ENDBRANCH   5   8
BRANCH   6  14
ATOM     14  C   UNL     1       2.800   4.039  18.190  0.00  0.00    +0.000 C 
ATOM     15  C   UNL     1       1.343   4.277  17.732  0.00  0.00    +0.000 C 
ATOM     16  C   UNL     1       3.179   2.597  17.731  0.00  0.00    +0.000 C 
ATOM     17  C   UNL     1       2.898   3.946  19.727  0.00  0.00    +0.000 C 
ENDBRANCH   6  14
TORSDOF 2
ENDMDL
MODEL 2
REMARK VINA RESULT:      -7.0      2.594      4.593
REMARK  Name = 
REMARK  6 active torsions:
REMARK  status: ('A' for Active; 'I' for Inactive)
REMARK    1  A    between atoms: C_1  and  C_2
REMARK    2  A    between atoms: C_5  and  C_6
REMARK    3  A    between atoms: C_12  and  C_13
REMARK    4  A    between atoms: C_13  and  C_14
REMARK    5  A    between atoms: C_13  and  C_15
REMARK    6  A    between atoms: C_13  and  C_16
REMARK                            x       y       z     vdW  Elec       q    Type
REMARK                         _______ _______ _______ _____ _____    ______ ____
ROOT
ATOM      1  C   UNL     1       8.043   5.360  13.213  0.00  0.00    +0.000 C 
ATOM      2  C   UNL     1       7.038   4.933  14.235  0.00  0.00    +0.000 A 
ATOM      3  N   UNL     1       6.223   3.926  13.933  0.00  0.00    +0.000 NA
ATOM      4  C   UNL     1       5.330   3.604  14.885  0.00  0.00    +0.000 A 
ATOM      5  C   UNL     1       5.163   4.225  16.129  0.00  0.00    +0.000 A 
ATOM      6  C   UNL     1       6.072   5.278  16.355  0.00  0.00    +0.000 A 
ATOM      7  N   UNL     1       7.006   5.594  15.407  0.00  0.00    +0.000 NA
ENDROOT
BRANCH   5   8
ATOM      8  C   UNL     1       4.063   3.745  16.999  0.00  0.00    +0.000 A 
ATOM      9  C   UNL     1       2.907   4.492  17.261  0.00  0.00    +0.000 A 
ATOM     10  C   UNL     1       1.805   3.933  17.920  0.00  0.00    +0.000 A 
ATOM     11  C   UNL     1       1.888   2.656  18.458  0.00  0.00    +0.000 A 
ATOM     12  C   UNL     1       3.080   1.951  18.363  0.00  0.00    +0.000 A 
ATOM     13  C   UNL     1       4.147   2.482  17.629  0.00  0.00    +0.000 A 
ENDBRANCH   5   8
BRANCH   6  14
ATOM     14  C   UNL     1       6.217   6.144  17.625  0.00  0.00    +0.000 C 
ATOM     15  C   UNL     1       7.480   7.019  17.458  0.00  0.00    +0.000 C 
ATOM     16  C   UNL     1       5.010   7.127  17.747  0.00  0.00    +0.000 C 
ATOM     17  C   UNL     1       6.209   5.421  18.988  0.00  0.00    +0.000 C 
ENDBRANCH   6  14
TORSDOF 2
ENDMDL
MODEL 3
REMARK VINA RESULT:      -7.0      0.220      1.041
REMARK  Name = 
REMARK  6 active torsions:
REMARK  status: ('A' for Active; 'I' for Inactive)
REMARK    1  A    between atoms: C_1  and  C_2
REMARK    2  A    between atoms: C_5  and  C_6
REMARK    3  A    between atoms: C_12  and  C_13
REMARK    4  A    between atoms: C_13  and  C_14
REMARK    5  A    between atoms: C_13  and  C_15
REMARK    6  A    between atoms: C_13  and  C_16
REMARK                            x       y       z     vdW  Elec       q    Type
REMARK                         _______ _______ _______ _____ _____    ______ ____
ROOT
ATOM      1  C   UNL     1       6.779   4.430  15.237  0.00  0.00    +0.000 C 
ATOM      2  C   UNL     1       5.710   5.131  16.013  0.00  0.00    +0.000 A 
ATOM      3  N   UNL     1       5.738   6.460  16.063  0.00  0.00    +0.000 NA
ATOM      4  C   UNL     1       4.763   7.028  16.793  0.00  0.00    +0.000 A 
ATOM      5  C   UNL     1       3.754   6.373  17.509  0.00  0.00    +0.000 A 
ATOM      6  C   UNL     1       3.809   4.969  17.393  0.00  0.00    +0.000 A 
ATOM      7  N   UNL     1       4.777   4.380  16.627  0.00  0.00    +0.000 NA
ENDROOT
BRANCH   5   8
ATOM      8  C   UNL     1       2.819   7.203  18.304  0.00  0.00    +0.000 A 
ATOM      9  C   UNL     1       2.492   6.930  19.639  0.00  0.00    +0.000 A 
ATOM     10  C   UNL     1       1.767   7.840  20.418  0.00  0.00    +0.000 A 
ATOM     11  C   UNL     1       1.228   8.981  19.839  0.00  0.00    +0.000 A 
ATOM     12  C   UNL     1       1.391   9.197  18.477  0.00  0.00    +0.000 A 
ATOM     13  C   UNL     1       2.188   8.328  17.724  0.00  0.00    +0.000 A 
ENDBRANCH   5   8
BRANCH   6  14
ATOM     14  C   UNL     1       2.835   3.933  17.996  0.00  0.00    +0.000 C 
ATOM     15  C   UNL     1       3.232   2.540  17.454  0.00  0.00    +0.000 C 
ATOM     16  C   UNL     1       3.005   3.871  19.546  0.00  0.00    +0.000 C 
ATOM     17  C   UNL     1       1.323   4.191  17.827  0.00  0.00    +0.000 C 
ENDBRANCH   6  14
TORSDOF 2
ENDMDL
MODEL 4
REMARK VINA RESULT:      -6.9      2.551      4.431
REMARK  Name = 
REMARK  6 active torsions:
REMARK  status: ('A' for Active; 'I' for Inactive)
REMARK    1  A    between atoms: C_1  and  C_2
REMARK    2  A    between atoms: C_5  and  C_6
REMARK    3  A    between atoms: C_12  and  C_13
REMARK    4  A    between atoms: C_13  and  C_14
REMARK    5  A    between atoms: C_13  and  C_15
REMARK    6  A    between atoms: C_13  and  C_16
REMARK                            x       y       z     vdW  Elec       q    Type
REMARK                         _______ _______ _______ _____ _____    ______ ____
ROOT
ATOM      1  C   UNL     1       8.011   5.343  13.232  0.00  0.00    +0.000 C 
ATOM      2  C   UNL     1       7.018   4.899  14.259  0.00  0.00    +0.000 A 
ATOM      3  N   UNL     1       6.227   3.870  13.966  0.00  0.00    +0.000 NA
ATOM      4  C   UNL     1       5.344   3.535  14.922  0.00  0.00    +0.000 A 
ATOM      5  C   UNL     1       5.162   4.161  16.160  0.00  0.00    +0.000 A 
ATOM      6  C   UNL     1       6.046   5.238  16.377  0.00  0.00    +0.000 A 
ATOM      7  N   UNL     1       6.971   5.569  15.425  0.00  0.00    +0.000 NA
ENDROOT
BRANCH   5   8
ATOM      8  C   UNL     1       4.075   3.662  17.035  0.00  0.00    +0.000 A 
ATOM      9  C   UNL     1       4.150   2.454  17.741  0.00  0.00    +0.000 A 
ATOM     10  C   UNL     1       3.198   2.109  18.709  0.00  0.00    +0.000 A 
ATOM     11  C   UNL     1       2.071   2.898  18.893  0.00  0.00    +0.000 A 
ATOM     12  C   UNL     1       1.883   4.016  18.090  0.00  0.00    +0.000 A 
ATOM     13  C   UNL     1       2.879   4.400  17.186  0.00  0.00    +0.000 A 
ENDBRANCH   5   8
BRANCH   6  14
ATOM     14  C   UNL     1       6.171   6.118  17.639  0.00  0.00    +0.000 C 
ATOM     15  C   UNL     1       7.428   7.002  17.476  0.00  0.00    +0.000 C 
ATOM     16  C   UNL     1       4.954   7.091  17.741  0.00  0.00    +0.000 C 
ATOM     17  C   UNL     1       6.156   5.408  19.009  0.00  0.00    +0.000 C 
ENDBRANCH   6  14
TORSDOF 2
ENDMDL
MODEL 5
REMARK VINA RESULT:      -6.9      2.448      4.559
REMARK  Name = 
REMARK  6 active torsions:
REMARK  status: ('A' for Active; 'I' for Inactive)
REMARK    1  A    between atoms: C_1  and  C_2
REMARK    2  A    between atoms: C_5  and  C_6
REMARK    3  A    between atoms: C_12  and  C_13
REMARK    4  A    between atoms: C_13  and  C_14
REMARK    5  A    between atoms: C_13  and  C_15
REMARK    6  A    between atoms: C_13  and  C_16
REMARK                            x       y       z     vdW  Elec       q    Type
REMARK                         _______ _______ _______ _____ _____    ______ ____
ROOT
ATOM      1  C   UNL     1       7.917   5.289  13.252  0.00  0.00    +0.000 C 
ATOM      2  C   UNL     1       6.914   4.877  14.282  0.00  0.00    +0.000 A 
ATOM      3  N   UNL     1       6.162   3.808  14.035  0.00  0.00    +0.000 NA
ATOM      4  C   UNL     1       5.267   3.502  14.990  0.00  0.00    +0.000 A 
ATOM      5  C   UNL     1       5.037   4.195  16.184  0.00  0.00    +0.000 A 
ATOM      6  C   UNL     1       5.883   5.310  16.354  0.00  0.00    +0.000 A 
ATOM      7  N   UNL     1       6.820   5.613  15.404  0.00  0.00    +0.000 NA
ENDROOT
BRANCH   5   8
ATOM      8  C   UNL     1       3.946   3.715  17.064  0.00  0.00    +0.000 A 
ATOM      9  C   UNL     1       2.775   4.445  17.306  0.00  0.00    +0.000 A 
ATOM     10  C   UNL     1       1.684   3.880  17.978  0.00  0.00    +0.000 A 
ATOM     11  C   UNL     1       1.791   2.618  18.548  0.00  0.00    +0.000 A 
ATOM     12  C   UNL     1       2.998   1.936  18.471  0.00  0.00    +0.000 A 
ATOM     13  C   UNL     1       4.054   2.470  17.727  0.00  0.00    +0.000 A 
ENDBRANCH   5   8
BRANCH   6  14
ATOM     14  C   UNL     1       5.952   6.268  17.564  0.00  0.00    +0.000 C 
ATOM     15  C   UNL     1       6.206   5.414  18.828  0.00  0.00    +0.000 C 
ATOM     16  C   UNL     1       7.175   7.227  17.423  0.00  0.00    +0.000 C 
ATOM     17  C   UNL     1       4.774   7.242  17.770  0.00  0.00    +0.000 C 
ENDBRANCH   6  14
TORSDOF 2
ENDMDL
MODEL 6
REMARK VINA RESULT:      -6.8      2.589      4.539
REMARK  Name = 
REMARK  6 active torsions:
REMARK  status: ('A' for Active; 'I' for Inactive)
REMARK    1  A    between atoms: C_1  and  C_2
REMARK    2  A    between atoms: C_5  and  C_6
REMARK    3  A    between atoms: C_12  and  C_13
REMARK    4  A    between atoms: C_13  and  C_14
REMARK    5  A    between atoms: C_13  and  C_15
REMARK    6  A    between atoms: C_13  and  C_16
REMARK                            x       y       z     vdW  Elec       q    Type
REMARK                         _______ _______ _______ _____ _____    ______ ____
ROOT
ATOM      1  C   UNL     1       8.054   5.318  13.161  0.00  0.00    +0.000 C 
ATOM      2  C   UNL     1       7.061   4.912  14.204  0.00  0.00    +0.000 A 
ATOM      3  N   UNL     1       6.270   3.874  13.948  0.00  0.00    +0.000 NA
ATOM      4  C   UNL     1       5.387   3.573  14.916  0.00  0.00    +0.000 A 
ATOM      5  C   UNL     1       5.207   4.244  16.132  0.00  0.00    +0.000 A 
ATOM      6  C   UNL     1       6.092   5.326  16.309  0.00  0.00    +0.000 A 
ATOM      7  N   UNL     1       7.016   5.622  15.345  0.00  0.00    +0.000 NA
ENDROOT
BRANCH   5   8
ATOM      8  C   UNL     1       4.121   3.777  17.025  0.00  0.00    +0.000 A 
ATOM      9  C   UNL     1       2.972   4.530  17.299  0.00  0.00    +0.000 A 
ATOM     10  C   UNL     1       1.880   3.982  17.983  0.00  0.00    +0.000 A 
ATOM     11  C   UNL     1       1.967   2.710  18.533  0.00  0.00    +0.000 A 
ATOM     12  C   UNL     1       3.156   2.001  18.425  0.00  0.00    +0.000 A 
ATOM     13  C   UNL     1       4.211   2.521  17.669  0.00  0.00    +0.000 A 
ENDBRANCH   5   8
BRANCH   6  14
ATOM     14  C   UNL     1       6.219   6.251  17.539  0.00  0.00    +0.000 C 
ATOM     15  C   UNL     1       4.952   7.135  17.597  0.00  0.00    +0.000 C 
ATOM     16  C   UNL     1       6.230   5.406  18.851  0.00  0.00    +0.000 C 
ATOM     17  C   UNL     1       7.502   7.098  17.667  0.00  0.00    +0.000 C 
ENDBRANCH   6  14
TORSDOF 2
ENDMDL
MODEL 7
REMARK VINA RESULT:      -6.8      0.288      1.115
REMARK  Name = 
REMARK  6 active torsions:
REMARK  status: ('A' for Active; 'I' for Inactive)
REMARK    1  A    between atoms: C_1  and  C_2
REMARK    2  A    between atoms: C_5  and  C_6
REMARK    3  A    between atoms: C_12  and  C_13
REMARK    4  A    between atoms: C_13  and  C_14
REMARK    5  A    between atoms: C_13  and  C_15
REMARK    6  A    between atoms: C_13  and  C_16
REMARK                            x       y       z     vdW  Elec       q    Type
REMARK                         _______ _______ _______ _____ _____    ______ ____
ROOT
ATOM      1  C   UNL     1       6.924   4.448  15.434  0.00  0.00    +0.000 C 
ATOM      2  C   UNL     1       5.823   5.160  16.155  0.00  0.00    +0.000 A 
ATOM      3  N   UNL     1       5.858   6.489  16.201  0.00  0.00    +0.000 NA
ATOM      4  C   UNL     1       4.853   7.067  16.881  0.00  0.00    +0.000 A 
ATOM      5  C   UNL     1       3.806   6.421  17.550  0.00  0.00    +0.000 A 
ATOM      6  C   UNL     1       3.857   5.017  17.441  0.00  0.00    +0.000 A 
ATOM      7  N   UNL     1       4.857   4.418  16.726  0.00  0.00    +0.000 NA
ENDROOT
BRANCH   5   8
ATOM      8  C   UNL     1       2.839   7.261  18.295  0.00  0.00    +0.000 A 
ATOM      9  C   UNL     1       2.502   7.039  19.637  0.00  0.00    +0.000 A 
ATOM     10  C   UNL     1       1.743   7.963  20.366  0.00  0.00    +0.000 A 
ATOM     11  C   UNL     1       1.184   9.064  19.730  0.00  0.00    +0.000 A 
ATOM     12  C   UNL     1       1.360   9.223  18.362  0.00  0.00    +0.000 A 
ATOM     13  C   UNL     1       2.189   8.343  17.659  0.00  0.00    +0.000 A 
ENDBRANCH   5   8
BRANCH   6  14
ATOM     14  C   UNL     1       2.847   3.990  18.000  0.00  0.00    +0.000 C 
ATOM     15  C   UNL     1       2.997   3.970  19.539  0.00  0.00    +0.000 C 
ATOM     16  C   UNL     1       1.387   4.452  17.702  0.00  0.00    +0.000 C 
ATOM     17  C   UNL     1       2.881   2.563  17.413  0.00  0.00    +0.000 C 
ENDBRANCH   6  14
TORSDOF 2
ENDMDL
MODEL 8
REMARK VINA RESULT:      -6.8      2.659      4.399
REMARK  Name = 
REMARK  6 active torsions:
REMARK  status: ('A' for Active; 'I' for Inactive)
REMARK    1  A    between atoms: C_1  and  C_2
REMARK    2  A    between atoms: C_5  and  C_6
REMARK    3  A    between atoms: C_12  and  C_13
REMARK    4  A    between atoms: C_13  and  C_14
REMARK    5  A    between atoms: C_13  and  C_15
REMARK    6  A    between atoms: C_13  and  C_16
REMARK                            x       y       z     vdW  Elec       q    Type
REMARK                         _______ _______ _______ _____ _____    ______ ____
ROOT
ATOM      1  C   UNL     1       8.055   5.301  13.086  0.00  0.00    +0.000 C 
ATOM      2  C   UNL     1       7.152   4.946  14.225  0.00  0.00    +0.000 A 
ATOM      3  N   UNL     1       6.367   3.881  14.096  0.00  0.00    +0.000 NA
ATOM      4  C   UNL     1       5.565   3.629  15.146  0.00  0.00    +0.000 A 
ATOM      5  C   UNL     1       5.463   4.373  16.327  0.00  0.00    +0.000 A 
ATOM      6  C   UNL     1       6.335   5.479  16.368  0.00  0.00    +0.000 A 
ATOM      7  N   UNL     1       7.178   5.728  15.320  0.00  0.00    +0.000 NA
ENDROOT
BRANCH   5   8
ATOM      8  C   UNL     1       4.457   3.946  17.328  0.00  0.00    +0.000 A 
ATOM      9  C   UNL     1       4.794   3.361  18.556  0.00  0.00    +0.000 A 
ATOM     10  C   UNL     1       3.838   3.153  19.558  0.00  0.00    +0.000 A 
ATOM     11  C   UNL     1       2.495   3.396  19.303  0.00  0.00    +0.000 A 
ATOM     12  C   UNL     1       2.107   3.817  18.037  0.00  0.00    +0.000 A 
ATOM     13  C   UNL     1       3.076   4.103  17.070  0.00  0.00    +0.000 A 
ENDBRANCH   5   8
BRANCH   6  14
ATOM     14  C   UNL     1       6.534   6.483  17.524  0.00  0.00    +0.000 C 
ATOM     15  C   UNL     1       5.146   7.049  17.902  0.00  0.00    +0.000 C 
ATOM     16  C   UNL     1       7.073   5.747  18.791  0.00  0.00    +0.000 C 
ATOM     17  C   UNL     1       7.565   7.613  17.320  0.00  0.00    +0.000 C 
ENDBRANCH   6  14
TORSDOF 2
ENDMDL
MODEL 9
REMARK VINA RESULT:      -6.8      0.395      1.225
REMARK  Name = 
REMARK  6 active torsions:
REMARK  status: ('A' for Active; 'I' for Inactive)
REMARK    1  A    between atoms: C_1  and  C_2
REMARK    2  A    between atoms: C_5  and  C_6
REMARK    3  A    between atoms: C_12  and  C_13
REMARK    4  A    between atoms: C_13  and  C_14
REMARK    5  A    between atoms: C_13  and  C_15
REMARK    6  A    between atoms: C_13  and  C_16
REMARK                            x       y       z     vdW  Elec       q    Type
REMARK                         _______ _______ _______ _____ _____    ______ ____
ROOT
ATOM      1  C   UNL     1       6.920   4.237  15.750  0.00  0.00    +0.000 C 
ATOM      2  C   UNL     1       5.841   5.043  16.403  0.00  0.00    +0.000 A 
ATOM      3  N   UNL     1       5.955   6.369  16.396  0.00  0.00    +0.000 NA
ATOM      4  C   UNL     1       4.965   7.033  17.016  0.00  0.00    +0.000 A 
ATOM      5  C   UNL     1       3.859   6.480  17.673  0.00  0.00    +0.000 A 
ATOM      6  C   UNL     1       3.828   5.071  17.623  0.00  0.00    +0.000 A 
ATOM      7  N   UNL     1       4.813   4.385  16.968  0.00  0.00    +0.000 NA
ENDROOT
BRANCH   5   8
ATOM      8  C   UNL     1       2.921   7.406  18.349  0.00  0.00    +0.000 A 
ATOM      9  C   UNL     1       2.320   8.496  17.706  0.00  0.00    +0.000 A 
ATOM     10  C   UNL     1       1.291   9.229  18.312  0.00  0.00    +0.000 A 
ATOM     11  C   UNL     1       0.937   8.978  19.631  0.00  0.00    +0.000 A 
ATOM     12  C   UNL     1       1.631   8.015  20.351  0.00  0.00    +0.000 A 
ATOM     13  C   UNL     1       2.598   7.230  19.714  0.00  0.00    +0.000 A 
ENDBRANCH   5   8
BRANCH   6  14
ATOM     14  C   UNL     1       2.741   4.130  18.187  0.00  0.00    +0.000 C 
ATOM     15  C   UNL     1       1.378   4.591  17.620  0.00  0.00    +0.000 C 
ATOM     16  C   UNL     1       2.967   2.675  17.672  0.00  0.00    +0.000 C 
ATOM     17  C   UNL     1       2.680   3.946  19.718  0.00  0.00    +0.000 C 
ENDBRANCH   6  14
TORSDOF 2
ENDMDL
