MODEL 1
REMARK VINA RESULT:      -8.3      0.000      0.000
REMARK  Name = 
REMARK  4 active torsions:
REMARK  status: ('A' for Active; 'I' for Inactive)
REMARK    1  A    between atoms: C_1  and  C_2
REMARK    2  A    between atoms: C_6  and  C_7
REMARK    3  A    between atoms: N_9  and  C_10
REMARK    4  A    between atoms: C_22  and  C_23
REMARK                            x       y       z     vdW  Elec       q    Type
REMARK                         _______ _______ _______ _____ _____    ______ ____
ROOT
ATOM      1  C   UNL     1       0.461  10.793  19.993  0.00  0.00    +0.000 C 
ATOM      2  C   UNL     1       0.422  10.545  21.512  0.00  0.00    +0.000 C 
ATOM      3  C   UNL     1       0.473   9.081  22.009  0.00  0.00    +0.000 C 
ATOM      4  C   UNL     1       1.138   8.008  21.131  0.00  0.00    +0.000 C 
ATOM      5  C   UNL     1       1.539   8.517  19.801  0.00  0.00    +0.000 A 
ATOM      6  C   UNL     1       1.288   9.772  19.294  0.00  0.00    +0.000 A 
ATOM      7  C   UNL     1       1.914   9.767  18.037  0.00  0.00    +0.000 A 
ATOM      8  N   UNL     1       2.500   8.601  17.756  0.00  0.00    +0.000 NA
ATOM      9  N   UNL     1       2.202   7.796  18.819  0.00  0.00    +0.000 N 
ATOM     10  C   UNL     1       2.530   6.399  18.816  0.00  0.00    +0.000 A 
ATOM     11  C   UNL     1       3.235   5.870  17.737  0.00  0.00    +0.000 A 
ATOM     12  C   UNL     1       3.528   4.505  17.726  0.00  0.00    +0.000 A 
ATOM     13  C   UNL     1       3.105   3.692  18.780  0.00  0.00    +0.000 A 
ATOM     14  C   UNL     1       2.408   4.300  19.812  0.00  0.00    +0.000 A 
ATOM     15  N   UNL     1       2.120   5.621  19.856  0.00  0.00    +0.000 NA
ENDROOT
BRANCH   1  18
ATOM     16  C   UNL     1       0.392  13.003  18.815  0.00  0.00    +0.000 C 
ATOM     17  O   UNL     1      -0.654  12.760  18.227  0.00  0.00    +0.000 OA
ATOM     18  N   UNL     1       0.994  12.111  19.690  0.00  0.00    +0.000 N 
ATOM     19  H   UNL     1       1.813  12.438  20.191  0.00  0.00    +0.000 HD
BRANCH  16  25
ATOM     20  C   UNL     1      -0.600  16.122  19.297  0.00  0.00    +0.000 C 
ATOM     21  C   UNL     1       0.702  15.588  18.844  0.00  0.00    +0.000 A 
ATOM     22  N   UNL     1       1.701  16.423  18.548  0.00  0.00    +0.000 NA
ATOM     23  O   UNL     1       2.756  15.613  18.162  0.00  0.00    +0.000 OA
ATOM     24  N   UNL     1       2.405  14.267  18.224  0.00  0.00    +0.000 NA
ATOM     25  C   UNL     1       1.130  14.252  18.643  0.00  0.00    +0.000 A 
ENDBRANCH  16  25
ENDBRANCH   1  18
BRANCH  13  26
ATOM     26  C   UNL     1       3.368   2.220  18.833  0.00  0.00    +0.000 C 
ATOM     27  F   UNL     1       4.339   1.870  19.720  0.00  0.00    +0.000 F 
ATOM     28  F   UNL     1       2.263   1.506  19.188  0.00  0.00    +0.000 F 
ATOM     29  F   UNL     1       3.764   1.718  17.631  0.00  0.00    +0.000 F 
ENDBRANCH  13  26
TORSDOF 3
ENDMDL
MODEL 2
REMARK VINA RESULT:      -8.3      0.806      1.375
REMARK  Name = 
REMARK  4 active torsions:
REMARK  status: ('A' for Active; 'I' for Inactive)
REMARK    1  A    between atoms: C_1  and  C_2
REMARK    2  A    between atoms: C_6  and  C_7
REMARK    3  A    between atoms: N_9  and  C_10
REMARK    4  A    between atoms: C_22  and  C_23
REMARK                            x       y       z     vdW  Elec       q    Type
REMARK                         _______ _______ _______ _____ _____    ______ ____
ROOT
ATOM      1  C   UNL     1       0.128  10.899  20.147  0.00  0.00    +0.000 C 
ATOM      2  C   UNL     1       0.108  10.633  21.664  0.00  0.00    +0.000 C 
ATOM      3  C   UNL     1       0.265   9.172  22.145  0.00  0.00    +0.000 C 
ATOM      4  C   UNL     1       1.004   8.159  21.257  0.00  0.00    +0.000 C 
ATOM      5  C   UNL     1       1.367   8.709  19.931  0.00  0.00    +0.000 A 
ATOM      6  C   UNL     1       1.025   9.947  19.438  0.00  0.00    +0.000 A 
ATOM      7  C   UNL     1       1.650  10.001  18.181  0.00  0.00    +0.000 A 
ATOM      8  N   UNL     1       2.318   8.883  17.887  0.00  0.00    +0.000 NA
ATOM      9  N   UNL     1       2.079   8.048  18.942  0.00  0.00    +0.000 N 
ATOM     10  C   UNL     1       2.507   6.678  18.924  0.00  0.00    +0.000 A 
ATOM     11  C   UNL     1       3.248   6.213  17.840  0.00  0.00    +0.000 A 
ATOM     12  C   UNL     1       3.638   4.873  17.815  0.00  0.00    +0.000 A 
ATOM     13  C   UNL     1       3.275   4.020  18.860  0.00  0.00    +0.000 A 
ATOM     14  C   UNL     1       2.537   4.565  19.898  0.00  0.00    +0.000 A 
ATOM     15  N   UNL     1       2.155   5.862  19.956  0.00  0.00    +0.000 NA
ENDROOT
BRANCH   1  18
ATOM     16  C   UNL     1      -0.022  13.065  18.897  0.00  0.00    +0.000 C 
ATOM     17  O   UNL     1      -0.972  12.709  18.213  0.00  0.00    +0.000 OA
ATOM     18  N   UNL     1       0.565  12.256  19.858  0.00  0.00    +0.000 N 
ATOM     19  H   UNL     1       1.292  12.671  20.430  0.00  0.00    +0.000 HD
BRANCH  16  25
ATOM     20  C   UNL     1       3.145  13.832  18.323  0.00  0.00    +0.000 C 
ATOM     21  C   UNL     1       1.967  14.704  18.522  0.00  0.00    +0.000 A 
ATOM     22  N   UNL     1       2.104  16.031  18.491  0.00  0.00    +0.000 NA
ATOM     23  O   UNL     1       0.834  16.538  18.712  0.00  0.00    +0.000 OA
ATOM     24  N   UNL     1      -0.094  15.513  18.875  0.00  0.00    +0.000 NA
ATOM     25  C   UNL     1       0.610  14.375  18.762  0.00  0.00    +0.000 A 
ENDBRANCH  16  25
ENDBRANCH   1  18
BRANCH  13  26
ATOM     26  C   UNL     1       3.643   2.570  18.898  0.00  0.00    +0.000 C 
ATOM     27  F   UNL     1       2.646   1.765  19.356  0.00  0.00    +0.000 F 
ATOM     28  F   UNL     1       3.978   2.086  17.669  0.00  0.00    +0.000 F 
ATOM     29  F   UNL     1       4.718   2.326  19.698  0.00  0.00    +0.000 F 
ENDBRANCH  13  26
TORSDOF 3
ENDMDL
MODEL 3
REMARK VINA RESULT:      -8.1      5.694      9.050
REMARK  Name = 
REMARK  4 active torsions:
REMARK  status: ('A' for Active; 'I' for Inactive)
REMARK    1  A    between atoms: C_1  and  C_2
REMARK    2  A    between atoms: C_6  and  C_7
REMARK    3  A    between atoms: N_9  and  C_10
REMARK    4  A    between atoms: C_22  and  C_23
REMARK                            x       y       z     vdW  Elec       q    Type
REMARK                         _______ _______ _______ _____ _____    ______ ____
ROOT
ATOM      1  C   UNL     1       5.357   4.802  17.556  0.00  0.00    +0.000 C 
ATOM      2  C   UNL     1       4.818   3.618  18.382  0.00  0.00    +0.000 C 
ATOM      3  C   UNL     1       3.982   3.936  19.643  0.00  0.00    +0.000 C 
ATOM      4  C   UNL     1       3.217   5.267  19.727  0.00  0.00    +0.000 C 
ATOM      5  C   UNL     1       3.506   6.173  18.592  0.00  0.00    +0.000 A 
ATOM      6  C   UNL     1       4.423   5.960  17.589  0.00  0.00    +0.000 A 
ATOM      7  C   UNL     1       4.275   7.073  16.745  0.00  0.00    +0.000 A 
ATOM      8  N   UNL     1       3.354   7.934  17.183  0.00  0.00    +0.000 NA
ATOM      9  N   UNL     1       2.929   7.414  18.373  0.00  0.00    +0.000 N 
ATOM     10  C   UNL     1       2.040   8.142  19.233  0.00  0.00    +0.000 A 
ATOM     11  C   UNL     1       1.541   9.372  18.810  0.00  0.00    +0.000 A 
ATOM     12  C   UNL     1       0.698  10.087  19.662  0.00  0.00    +0.000 A 
ATOM     13  C   UNL     1       0.378   9.574  20.921  0.00  0.00    +0.000 A 
ATOM     14  C   UNL     1       0.919   8.345  21.262  0.00  0.00    +0.000 A 
ATOM     15  N   UNL     1       1.729   7.623  20.454  0.00  0.00    +0.000 NA
ENDROOT
BRANCH   1  18
ATOM     16  C   UNL     1       6.611   4.910  15.390  0.00  0.00    +0.000 C 
ATOM     17  O   UNL     1       7.443   5.707  15.807  0.00  0.00    +0.000 OA
ATOM     18  N   UNL     1       5.577   4.417  16.171  0.00  0.00    +0.000 N 
ATOM     19  H   UNL     1       4.990   3.699  15.760  0.00  0.00    +0.000 HD
BRANCH  16  25
ATOM     20  C   UNL     1       8.478   5.807  12.810  0.00  0.00    +0.000 C 
ATOM     21  C   UNL     1       7.405   4.795  12.913  0.00  0.00    +0.000 A 
ATOM     22  N   UNL     1       7.054   4.081  11.841  0.00  0.00    +0.000 NA
ATOM     23  O   UNL     1       6.038   3.244  12.272  0.00  0.00    +0.000 OA
ATOM     24  N   UNL     1       5.765   3.441  13.623  0.00  0.00    +0.000 NA
ATOM     25  C   UNL     1       6.609   4.406  14.019  0.00  0.00    +0.000 A 
ENDBRANCH  16  25
ENDBRANCH   1  18
BRANCH  13  26
ATOM     26  C   UNL     1      -0.506  10.288  21.894  0.00  0.00    +0.000 C 
ATOM     27  F   UNL     1      -1.109   9.462  22.792  0.00  0.00    +0.000 F 
ATOM     28  F   UNL     1       0.171  11.211  22.633  0.00  0.00    +0.000 F 
ATOM     29  F   UNL     1      -1.512  10.970  21.281  0.00  0.00    +0.000 F 
ENDBRANCH  13  26
TORSDOF 3
ENDMDL
MODEL 4
REMARK VINA RESULT:      -7.9      3.237      4.464
REMARK  Name = 
REMARK  4 active torsions:
REMARK  status: ('A' for Active; 'I' for Inactive)
REMARK    1  A    between atoms: C_1  and  C_2
REMARK    2  A    between atoms: C_6  and  C_7
REMARK    3  A    between atoms: N_9  and  C_10
REMARK    4  A    between atoms: C_22  and  C_23
REMARK                            x       y       z     vdW  Elec       q    Type
REMARK                         _______ _______ _______ _____ _____    ______ ____
ROOT
ATOM      1  C   UNL     1       0.113  11.372  20.726  0.00  0.00    +0.000 C 
ATOM      2  C   UNL     1       0.158  12.047  19.343  0.00  0.00    +0.000 C 
ATOM      3  C   UNL     1       1.202  11.536  18.322  0.00  0.00    +0.000 C 
ATOM      4  C   UNL     1       1.715  10.091  18.425  0.00  0.00    +0.000 C 
ATOM      5  C   UNL     1       1.221   9.386  19.628  0.00  0.00    +0.000 A 
ATOM      6  C   UNL     1       0.464   9.929  20.642  0.00  0.00    +0.000 A 
ATOM      7  C   UNL     1       0.218   8.848  21.505  0.00  0.00    +0.000 A 
ATOM      8  N   UNL     1       0.785   7.714  21.088  0.00  0.00    +0.000 NA
ATOM      9  N   UNL     1       1.474   8.064  19.960  0.00  0.00    +0.000 N 
ATOM     10  C   UNL     1       2.349   7.137  19.300  0.00  0.00    +0.000 A 
ATOM     11  C   UNL     1       2.439   5.831  19.777  0.00  0.00    +0.000 A 
ATOM     12  C   UNL     1       3.312   4.942  19.148  0.00  0.00    +0.000 A 
ATOM     13  C   UNL     1       4.087   5.371  18.067  0.00  0.00    +0.000 A 
ATOM     14  C   UNL     1       3.937   6.687  17.660  0.00  0.00    +0.000 A 
ATOM     15  N   UNL     1       3.090   7.568  18.241  0.00  0.00    +0.000 NA
ENDROOT
BRANCH   1  18
ATOM     16  C   UNL     1      -1.544  12.483  22.243  0.00  0.00    +0.000 C 
ATOM     17  O   UNL     1      -0.760  13.346  22.617  0.00  0.00    +0.000 OA
ATOM     18  N   UNL     1      -1.205  11.497  21.327  0.00  0.00    +0.000 N 
ATOM     19  H   UNL     1      -1.948  10.879  21.019  0.00  0.00    +0.000 HD
BRANCH  16  25
ATOM     20  C   UNL     1      -4.379  13.351  20.775  0.00  0.00    +0.000 C 
ATOM     21  C   UNL     1      -4.129  12.764  22.109  0.00  0.00    +0.000 A 
ATOM     22  N   UNL     1      -5.150  12.515  22.932  0.00  0.00    +0.000 NA
ATOM     23  O   UNL     1      -4.580  11.982  24.076  0.00  0.00    +0.000 OA
ATOM     24  N   UNL     1      -3.195  11.897  23.954  0.00  0.00    +0.000 NA
ATOM     25  C   UNL     1      -2.916  12.386  22.735  0.00  0.00    +0.000 A 
ENDBRANCH  16  25
ENDBRANCH   1  18
BRANCH  13  26
ATOM     26  C   UNL     1       5.055   4.482  17.352  0.00  0.00    +0.000 C 
ATOM     27  F   UNL     1       6.253   4.358  17.985  0.00  0.00    +0.000 F 
ATOM     28  F   UNL     1       4.581   3.214  17.197  0.00  0.00    +0.000 F 
ATOM     29  F   UNL     1       5.341   4.926  16.097  0.00  0.00    +0.000 F 
ENDBRANCH  13  26
TORSDOF 3
ENDMDL
MODEL 5
REMARK VINA RESULT:      -7.9      3.414      4.660
REMARK  Name = 
REMARK  4 active torsions:
REMARK  status: ('A' for Active; 'I' for Inactive)
REMARK    1  A    between atoms: C_1  and  C_2
REMARK    2  A    between atoms: C_6  and  C_7
REMARK    3  A    between atoms: N_9  and  C_10
REMARK    4  A    between atoms: C_22  and  C_23
REMARK                            x       y       z     vdW  Elec       q    Type
REMARK                         _______ _______ _______ _____ _____    ______ ____
ROOT
ATOM      1  C   UNL     1       0.108  11.902  21.034  0.00  0.00    +0.000 C 
ATOM      2  C   UNL     1       0.061  12.615  19.670  0.00  0.00    +0.000 C 
ATOM      3  C   UNL     1       1.008  12.111  18.556  0.00  0.00    +0.000 C 
ATOM      4  C   UNL     1       1.492  10.652  18.579  0.00  0.00    +0.000 C 
ATOM      5  C   UNL     1       1.076   9.924  19.798  0.00  0.00    +0.000 A 
ATOM      6  C   UNL     1       0.416  10.455  20.883  0.00  0.00    +0.000 A 
ATOM      7  C   UNL     1       0.212   9.355  21.733  0.00  0.00    +0.000 A 
ATOM      8  N   UNL     1       0.716   8.221  21.242  0.00  0.00    +0.000 NA
ATOM      9  N   UNL     1       1.323   8.587  20.073  0.00  0.00    +0.000 N 
ATOM     10  C   UNL     1       2.120   7.661  19.321  0.00  0.00    +0.000 A 
ATOM     11  C   UNL     1       2.215   6.340  19.753  0.00  0.00    +0.000 A 
ATOM     12  C   UNL     1       3.014   5.450  19.033  0.00  0.00    +0.000 A 
ATOM     13  C   UNL     1       3.711   5.893  17.907  0.00  0.00    +0.000 A 
ATOM     14  C   UNL     1       3.562   7.223  17.548  0.00  0.00    +0.000 A 
ATOM     15  N   UNL     1       2.786   8.105  18.218  0.00  0.00    +0.000 NA
ENDROOT
BRANCH   1  18
ATOM     16  C   UNL     1      -1.325  12.829  22.869  0.00  0.00    +0.000 C 
ATOM     17  O   UNL     1      -0.422  13.492  23.362  0.00  0.00    +0.000 OA
ATOM     18  N   UNL     1      -1.156  12.039  21.741  0.00  0.00    +0.000 N 
ATOM     19  H   UNL     1      -1.984  11.594  21.361  0.00  0.00    +0.000 HD
BRANCH  16  25
ATOM     20  C   UNL     1      -3.485  15.283  23.376  0.00  0.00    +0.000 C 
ATOM     21  C   UNL     1      -3.597  13.834  23.649  0.00  0.00    +0.000 A 
ATOM     22  N   UNL     1      -4.710  13.340  24.197  0.00  0.00    +0.000 NA
ATOM     23  O   UNL     1      -4.488  11.979  24.319  0.00  0.00    +0.000 OA
ATOM     24  N   UNL     1      -3.228  11.630  23.838  0.00  0.00    +0.000 NA
ATOM     25  C   UNL     1      -2.674  12.782  23.426  0.00  0.00    +0.000 A 
ENDBRANCH  16  25
ENDBRANCH   1  18
BRANCH  13  26
ATOM     26  C   UNL     1       4.598   5.003  17.093  0.00  0.00    +0.000 C 
ATOM     27  F   UNL     1       5.728   4.616  17.744  0.00  0.00    +0.000 F 
ATOM     28  F   UNL     1       3.974   3.853  16.712  0.00  0.00    +0.000 F 
ATOM     29  F   UNL     1       5.016   5.597  15.941  0.00  0.00    +0.000 F 
ENDBRANCH  13  26
TORSDOF 3
ENDMDL
MODEL 6
REMARK VINA RESULT:      -7.8      3.739      5.024
REMARK  Name = 
REMARK  4 active torsions:
REMARK  status: ('A' for Active; 'I' for Inactive)
REMARK    1  A    between atoms: C_1  and  C_2
REMARK    2  A    between atoms: C_6  and  C_7
REMARK    3  A    between atoms: N_9  and  C_10
REMARK    4  A    between atoms: C_22  and  C_23
REMARK                            x       y       z     vdW  Elec       q    Type
REMARK                         _______ _______ _______ _____ _____    ______ ____
ROOT
ATOM      1  C   UNL     1      -0.657  11.841  21.029  0.00  0.00    +0.000 C 
ATOM      2  C   UNL     1      -0.794  12.488  19.638  0.00  0.00    +0.000 C 
ATOM      3  C   UNL     1       0.219  12.075  18.544  0.00  0.00    +0.000 C 
ATOM      4  C   UNL     1       0.896  10.697  18.624  0.00  0.00    +0.000 C 
ATOM      5  C   UNL     1       0.577   9.966  19.871  0.00  0.00    +0.000 A 
ATOM      6  C   UNL     1      -0.154  10.444  20.934  0.00  0.00    +0.000 A 
ATOM      7  C   UNL     1      -0.212   9.360  21.826  0.00  0.00    +0.000 A 
ATOM      8  N   UNL     1       0.444   8.287  21.379  0.00  0.00    +0.000 NA
ATOM      9  N   UNL     1       1.001   8.687  20.197  0.00  0.00    +0.000 N 
ATOM     10  C   UNL     1       1.921   7.850  19.481  0.00  0.00    +0.000 A 
ATOM     11  C   UNL     1       2.192   6.571  19.965  0.00  0.00    +0.000 A 
ATOM     12  C   UNL     1       3.107   5.771  19.280  0.00  0.00    +0.000 A 
ATOM     13  C   UNL     1       3.744   6.261  18.137  0.00  0.00    +0.000 A 
ATOM     14  C   UNL     1       3.417   7.543  17.727  0.00  0.00    +0.000 A 
ATOM     15  N   UNL     1       2.526   8.337  18.362  0.00  0.00    +0.000 NA
ENDROOT
BRANCH   1  18
ATOM     16  C   UNL     1      -2.383  12.880  22.519  0.00  0.00    +0.000 C 
ATOM     17  O   UNL     1      -1.749  13.915  22.683  0.00  0.00    +0.000 OA
ATOM     18  N   UNL     1      -1.931  11.833  21.730  0.00  0.00    +0.000 N 
ATOM     19  H   UNL     1      -2.565  11.054  21.590  0.00  0.00    +0.000 HD
BRANCH  16  25
ATOM     20  C   UNL     1      -5.396  13.938  21.652  0.00  0.00    +0.000 C 
ATOM     21  C   UNL     1      -4.964  13.088  22.784  0.00  0.00    +0.000 A 
ATOM     22  N   UNL     1      -5.864  12.631  23.658  0.00  0.00    +0.000 NA
ATOM     23  O   UNL     1      -5.142  11.886  24.575  0.00  0.00    +0.000 OA
ATOM     24  N   UNL     1      -3.785  11.881  24.260  0.00  0.00    +0.000 NA
ATOM     25  C   UNL     1      -3.675  12.630  23.151  0.00  0.00    +0.000 A 
ENDBRANCH  16  25
ENDBRANCH   1  18
BRANCH  13  26
ATOM     26  C   UNL     1       4.747   5.469  17.357  0.00  0.00    +0.000 C 
ATOM     27  F   UNL     1       5.358   6.181  16.372  0.00  0.00    +0.000 F 
ATOM     28  F   UNL     1       5.749   4.982  18.142  0.00  0.00    +0.000 F 
ATOM     29  F   UNL     1       4.195   4.385  16.746  0.00  0.00    +0.000 F 
ENDBRANCH  13  26
TORSDOF 3
ENDMDL
MODEL 7
REMARK VINA RESULT:      -7.7      1.192      1.333
REMARK  Name = 
REMARK  4 active torsions:
REMARK  status: ('A' for Active; 'I' for Inactive)
REMARK    1  A    between atoms: C_1  and  C_2
REMARK    2  A    between atoms: C_6  and  C_7
REMARK    3  A    between atoms: N_9  and  C_10
REMARK    4  A    between atoms: C_22  and  C_23
REMARK                            x       y       z     vdW  Elec       q    Type
REMARK                         _______ _______ _______ _____ _____    ______ ____
ROOT
ATOM      1  C   UNL     1       0.116  11.199  19.479  0.00  0.00    +0.000 C 
ATOM      2  C   UNL     1      -0.144  11.250  20.996  0.00  0.00    +0.000 C 
ATOM      3  C   UNL     1      -0.162   9.913  21.774  0.00  0.00    +0.000 C 
ATOM      4  C   UNL     1       0.627   8.712  21.228  0.00  0.00    +0.000 C 
ATOM      5  C   UNL     1       1.217   8.964  19.894  0.00  0.00    +0.000 A 
ATOM      6  C   UNL     1       1.038  10.088  19.120  0.00  0.00    +0.000 A 
ATOM      7  C   UNL     1       1.841   9.859  17.991  0.00  0.00    +0.000 A 
ATOM      8  N   UNL     1       2.466   8.680  18.031  0.00  0.00    +0.000 NA
ATOM      9  N   UNL     1       2.018   8.088  19.178  0.00  0.00    +0.000 N 
ATOM     10  C   UNL     1       2.348   6.728  19.497  0.00  0.00    +0.000 A 
ATOM     11  C   UNL     1       3.204   6.022  18.655  0.00  0.00    +0.000 A 
ATOM     12  C   UNL     1       3.500   4.692  18.954  0.00  0.00    +0.000 A 
ATOM     13  C   UNL     1       2.929   4.085  20.077  0.00  0.00    +0.000 A 
ATOM     14  C   UNL     1       2.088   4.860  20.858  0.00  0.00    +0.000 A 
ATOM     15  N   UNL     1       1.792   6.154  20.600  0.00  0.00    +0.000 NA
ENDROOT
BRANCH   1  18
ATOM     16  C   UNL     1       1.621  13.189  19.708  0.00  0.00    +0.000 C 
ATOM     17  O   UNL     1       2.066  12.842  20.794  0.00  0.00    +0.000 OA
ATOM     18  N   UNL     1       0.683  12.450  19.002  0.00  0.00    +0.000 N 
ATOM     19  H   UNL     1       0.440  12.779  18.074  0.00  0.00    +0.000 HD
BRANCH  16  25
ATOM     20  C   UNL     1       0.050  16.097  19.555  0.00  0.00    +0.000 C 
ATOM     21  C   UNL     1       1.342  15.672  18.975  0.00  0.00    +0.000 A 
ATOM     22  N   UNL     1       2.061  16.528  18.246  0.00  0.00    +0.000 NA
ATOM     23  O   UNL     1       3.190  15.824  17.858  0.00  0.00    +0.000 OA
ATOM     24  N   UNL     1       3.166  14.524  18.356  0.00  0.00    +0.000 NA
ATOM     25  C   UNL     1       2.018  14.429  19.045  0.00  0.00    +0.000 A 
ENDBRANCH  16  25
ENDBRANCH   1  18
BRANCH  13  26
ATOM     26  C   UNL     1       3.187   2.660  20.455  0.00  0.00    +0.000 C 
ATOM     27  F   UNL     1       2.855   2.369  21.743  0.00  0.00    +0.000 F 
ATOM     28  F   UNL     1       2.488   1.782  19.683  0.00  0.00    +0.000 F 
ATOM     29  F   UNL     1       4.496   2.313  20.319  0.00  0.00    +0.000 F 
ENDBRANCH  13  26
TORSDOF 3
ENDMDL
MODEL 8
REMARK VINA RESULT:      -7.7      1.419      1.887
REMARK  Name = 
REMARK  4 active torsions:
REMARK  status: ('A' for Active; 'I' for Inactive)
REMARK    1  A    between atoms: C_1  and  C_2
REMARK    2  A    between atoms: C_6  and  C_7
REMARK    3  A    between atoms: N_9  and  C_10
REMARK    4  A    between atoms: C_22  and  C_23
REMARK                            x       y       z     vdW  Elec       q    Type
REMARK                         _______ _______ _______ _____ _____    ______ ____
ROOT
ATOM      1  C   UNL     1      -0.214  11.143  20.003  0.00  0.00    +0.000 C 
ATOM      2  C   UNL     1      -0.377  11.072  21.532  0.00  0.00    +0.000 C 
ATOM      3  C   UNL     1      -0.260   9.686  22.209  0.00  0.00    +0.000 C 
ATOM      4  C   UNL     1       0.564   8.580  21.530  0.00  0.00    +0.000 C 
ATOM      5  C   UNL     1       1.048   8.963  20.184  0.00  0.00    +0.000 A 
ATOM      6  C   UNL     1       0.749  10.124  19.507  0.00  0.00    +0.000 A 
ATOM      7  C   UNL     1       1.489  10.027  18.317  0.00  0.00    +0.000 A 
ATOM      8  N   UNL     1       2.186   8.893  18.232  0.00  0.00    +0.000 NA
ATOM      9  N   UNL     1       1.853   8.194  19.358  0.00  0.00    +0.000 N 
ATOM     10  C   UNL     1       2.287   6.840  19.555  0.00  0.00    +0.000 A 
ATOM     11  C   UNL     1       3.128   6.253  18.613  0.00  0.00    +0.000 A 
ATOM     12  C   UNL     1       3.524   4.927  18.795  0.00  0.00    +0.000 A 
ATOM     13  C   UNL     1       3.068   4.208  19.903  0.00  0.00    +0.000 A 
ATOM     14  C   UNL     1       2.233   4.869  20.790  0.00  0.00    +0.000 A 
ATOM     15  N   UNL     1       1.842   6.156  20.646  0.00  0.00    +0.000 NA
ENDROOT
BRANCH   1  18
ATOM     16  C   UNL     1       1.291  13.137  20.186  0.00  0.00    +0.000 C 
ATOM     17  O   UNL     1       1.938  12.677  21.118  0.00  0.00    +0.000 OA
ATOM     18  N   UNL     1       0.241  12.459  19.585  0.00  0.00    +0.000 N 
ATOM     19  H   UNL     1      -0.177  12.889  18.767  0.00  0.00    +0.000 HD
BRANCH  16  25
ATOM     20  C   UNL     1       3.721  14.140  18.175  0.00  0.00    +0.000 C 
ATOM     21  C   UNL     1       2.588  14.889  18.762  0.00  0.00    +0.000 A 
ATOM     22  N   UNL     1       2.442  16.191  18.503  0.00  0.00    +0.000 NA
ATOM     23  O   UNL     1       1.307  16.579  19.195  0.00  0.00    +0.000 OA
ATOM     24  N   UNL     1       0.747  15.506  19.883  0.00  0.00    +0.000 NA
ATOM     25  C   UNL     1       1.544  14.459  19.617  0.00  0.00    +0.000 A 
ENDBRANCH  16  25
ENDBRANCH   1  18
BRANCH  13  26
ATOM     26  C   UNL     1       3.437   2.781  20.159  0.00  0.00    +0.000 C 
ATOM     27  F   UNL     1       2.728   1.891  19.413  0.00  0.00    +0.000 F 
ATOM     28  F   UNL     1       4.750   2.527  19.896  0.00  0.00    +0.000 F 
ATOM     29  F   UNL     1       3.243   2.417  21.457  0.00  0.00    +0.000 F 
ENDBRANCH  13  26
TORSDOF 3
ENDMDL
MODEL 9
REMARK VINA RESULT:      -7.7      1.652      1.978
REMARK  Name = 
REMARK  4 active torsions:
REMARK  status: ('A' for Active; 'I' for Inactive)
REMARK    1  A    between atoms: C_1  and  C_2
REMARK    2  A    between atoms: C_6  and  C_7
REMARK    3  A    between atoms: N_9  and  C_10
REMARK    4  A    between atoms: C_22  and  C_23
REMARK                            x       y       z     vdW  Elec       q    Type
REMARK                         _______ _______ _______ _____ _____    ______ ____
ROOT
ATOM      1  C   UNL     1      -0.519  11.064  20.724  0.00  0.00    +0.000 C 
ATOM      2  C   UNL     1      -0.338  10.714  22.213  0.00  0.00    +0.000 C 
ATOM      3  C   UNL     1       0.111   9.277  22.569  0.00  0.00    +0.000 C 
ATOM      4  C   UNL     1       0.913   8.460  21.543  0.00  0.00    +0.000 C 
ATOM      5  C   UNL     1       1.039   9.138  20.234  0.00  0.00    +0.000 A 
ATOM      6  C   UNL     1       0.446  10.325  19.867  0.00  0.00    +0.000 A 
ATOM      7  C   UNL     1       0.918  10.556  18.565  0.00  0.00    +0.000 A 
ATOM      8  N   UNL     1       1.729   9.591  18.129  0.00  0.00    +0.000 NA
ATOM      9  N   UNL     1       1.745   8.668  19.137  0.00  0.00    +0.000 N 
ATOM     10  C   UNL     1       2.392   7.397  18.979  0.00  0.00    +0.000 A 
ATOM     11  C   UNL     1       3.083   7.129  17.800  0.00  0.00    +0.000 A 
ATOM     12  C   UNL     1       3.687   5.881  17.640  0.00  0.00    +0.000 A 
ATOM     13  C   UNL     1       3.583   4.920  18.649  0.00  0.00    +0.000 A 
ATOM     14  C   UNL     1       2.876   5.270  19.788  0.00  0.00    +0.000 A 
ATOM     15  N   UNL     1       2.290   6.474  19.977  0.00  0.00    +0.000 NA
ENDROOT
BRANCH   1  18
ATOM     16  C   UNL     1      -1.391  13.351  20.189  0.00  0.00    +0.000 C 
ATOM     17  O   UNL     1      -2.555  12.984  20.093  0.00  0.00    +0.000 OA
ATOM     18  N   UNL     1      -0.349  12.490  20.497  0.00  0.00    +0.000 N 
ATOM     19  H   UNL     1       0.567  12.905  20.635  0.00  0.00    +0.000 HD
BRANCH  16  25
ATOM     20  C   UNL     1      -2.212  16.094  21.848  0.00  0.00    +0.000 C 
ATOM     21  C   UNL     1      -1.328  15.908  20.676  0.00  0.00    +0.000 A 
ATOM     22  N   UNL     1      -0.725  16.961  20.121  0.00  0.00    +0.000 NA
ATOM     23  O   UNL     1       0.011  16.449  19.065  0.00  0.00    +0.000 OA
ATOM     24  N   UNL     1      -0.138  15.068  18.973  0.00  0.00    +0.000 NA
ATOM     25  C   UNL     1      -0.972  14.733  19.969  0.00  0.00    +0.000 A 
ENDBRANCH  16  25
ENDBRANCH   1  18
BRANCH  13  26
ATOM     26  C   UNL     1       4.191   3.557  18.545  0.00  0.00    +0.000 C 
ATOM     27  F   UNL     1       3.273   2.552  18.504  0.00  0.00    +0.000 F 
ATOM     28  F   UNL     1       4.955   3.411  17.427  0.00  0.00    +0.000 F 
ATOM     29  F   UNL     1       5.010   3.270  19.594  0.00  0.00    +0.000 F 
ENDBRANCH  13  26
TORSDOF 3
ENDMDL
