MODEL 1
REMARK VINA RESULT:      -7.5      0.000      0.000
REMARK  Name = 
REMARK  5 active torsions:
REMARK  status: ('A' for Active; 'I' for Inactive)
REMARK    1  A    between atoms: C_2  and  O_3
REMARK    2  A    between atoms: C_2  and  C_4
REMARK    3  A    between atoms: C_7  and  C_8
REMARK    4  A    between atoms: C_8  and  N_9
REMARK    5  A    between atoms: C_14  and  C_15
REMARK                            x       y       z     vdW  Elec       q    Type
REMARK                         _______ _______ _______ _____ _____    ______ ____
ROOT
ATOM      1  N   UNL     1       1.450   9.193  19.387  0.00  0.00    +0.000 N 
ATOM      2  C   UNL     1       1.187   8.495  20.534  0.00  0.00    +0.000 C 
ATOM      3  O   UNL     1       0.619   8.907  21.534  0.00  0.00    +0.000 OA
ATOM      4  S   UNL     1       1.792   6.856  20.393  0.00  0.00    +0.000 S 
ATOM      5  C   UNL     1       2.310   7.101  18.772  0.00  0.00    +0.000 C 
ATOM      6  C   UNL     1       2.847   6.207  17.935  0.00  0.00    +0.000 C 
ATOM      7  C   UNL     1       2.058   8.509  18.362  0.00  0.00    +0.000 C 
ATOM      8  O   UNL     1       2.358   8.967  17.268  0.00  0.00    +0.000 OA
ENDROOT
BRANCH   6   9
ATOM      9  C   UNL     1       3.107   4.808  18.257  0.00  0.00    +0.000 A 
ATOM     10  C   UNL     1       2.232   3.805  17.853  0.00  0.00    +0.000 A 
ATOM     11  C   UNL     1       2.510   2.493  18.226  0.00  0.00    +0.000 A 
ATOM     12  C   UNL     1       3.651   2.226  18.975  0.00  0.00    +0.000 A 
ATOM     13  C   UNL     1       4.468   3.288  19.323  0.00  0.00    +0.000 A 
ATOM     14  N   UNL     1       4.218   4.574  18.988  0.00  0.00    +0.000 NA
ENDBRANCH   6   9
BRANCH   1  15
ATOM     15  C   UNL     1       1.075  10.584  19.257  0.00  0.00    +0.000 C 
BRANCH  15  19
ATOM     16  C   UNL     1      -3.064  11.084  18.096  0.00  0.00    +0.000 A 
ATOM     17  C   UNL     1      -2.528  11.844  19.141  0.00  0.00    +0.000 A 
ATOM     18  C   UNL     1      -1.195  11.673  19.526  0.00  0.00    +0.000 A 
ATOM     19  C   UNL     1      -0.377  10.750  18.860  0.00  0.00    +0.000 A 
ATOM     20  C   UNL     1      -0.922   9.987  17.816  0.00  0.00    +0.000 A 
ATOM     21  C   UNL     1      -2.254  10.161  17.425  0.00  0.00    +0.000 A 
BRANCH  16  23
ATOM     22  O   UNL     1      -5.418  10.787  18.251  0.00  0.00    +0.000 OA
ATOM     23  C   UNL     1      -4.475  11.326  17.702  0.00  0.00    +0.000 C 
BRANCH  23  24
ATOM     24  O   UNL     1      -4.609  12.167  16.655  0.00  0.00    +0.000 OA
ATOM     25  H   UNL     1      -5.053  13.011  16.858  0.00  0.00    +0.000 HD
ENDBRANCH  23  24
ENDBRANCH  16  23
ENDBRANCH  15  19
ENDBRANCH   1  15
TORSDOF 5
ENDMDL
MODEL 2
REMARK VINA RESULT:      -7.3      0.696      1.465
REMARK  Name = 
REMARK  5 active torsions:
REMARK  status: ('A' for Active; 'I' for Inactive)
REMARK    1  A    between atoms: C_2  and  O_3
REMARK    2  A    between atoms: C_2  and  C_4
REMARK    3  A    between atoms: C_7  and  C_8
REMARK    4  A    between atoms: C_8  and  N_9
REMARK    5  A    between atoms: C_14  and  C_15
REMARK                            x       y       z     vdW  Elec       q    Type
REMARK                         _______ _______ _______ _____ _____    ______ ____
ROOT
ATOM      1  N   UNL     1       1.296   9.550  19.398  0.00  0.00    +0.000 N 
ATOM      2  C   UNL     1       1.064   8.854  20.552  0.00  0.00    +0.000 C 
ATOM      3  O   UNL     1       0.454   9.240  21.537  0.00  0.00    +0.000 OA
ATOM      4  S   UNL     1       1.783   7.258  20.447  0.00  0.00    +0.000 S 
ATOM      5  C   UNL     1       2.307   7.514  18.829  0.00  0.00    +0.000 C 
ATOM      6  C   UNL     1       2.918   6.646  18.014  0.00  0.00    +0.000 C 
ATOM      7  C   UNL     1       1.965   8.894  18.393  0.00  0.00    +0.000 C 
ATOM      8  O   UNL     1       2.250   9.355  17.296  0.00  0.00    +0.000 OA
ENDROOT
BRANCH   6   9
ATOM      9  C   UNL     1       3.269   5.273  18.363  0.00  0.00    +0.000 A 
ATOM     10  C   UNL     1       4.480   4.979  18.982  0.00  0.00    +0.000 A 
ATOM     11  C   UNL     1       4.778   3.646  19.252  0.00  0.00    +0.000 A 
ATOM     12  C   UNL     1       3.861   2.660  18.908  0.00  0.00    +0.000 A 
ATOM     13  C   UNL     1       2.678   3.050  18.303  0.00  0.00    +0.000 A 
ATOM     14  N   UNL     1       2.365   4.333  18.015  0.00  0.00    +0.000 NA
ENDBRANCH   6   9
BRANCH   1  15
ATOM     15  C   UNL     1       0.827  10.909  19.240  0.00  0.00    +0.000 C 
BRANCH  15  19
ATOM     16  C   UNL     1      -3.339  11.053  18.079  0.00  0.00    +0.000 A 
ATOM     17  C   UNL     1      -2.462  10.162  17.450  0.00  0.00    +0.000 A 
ATOM     18  C   UNL     1      -1.113  10.126  17.815  0.00  0.00    +0.000 A 
ATOM     19  C   UNL     1      -0.628  10.968  18.825  0.00  0.00    +0.000 A 
ATOM     20  C   UNL     1      -1.511  11.863  19.448  0.00  0.00    +0.000 A 
ATOM     21  C   UNL     1      -2.863  11.897  19.088  0.00  0.00    +0.000 A 
BRANCH  16  23
ATOM     22  O   UNL     1      -5.679  10.922  18.482  0.00  0.00    +0.000 OA
ATOM     23  C   UNL     1      -4.769  11.031  17.681  0.00  0.00    +0.000 C 
BRANCH  23  24
ATOM     24  O   UNL     1      -4.961  11.100  16.346  0.00  0.00    +0.000 OA
ATOM     25  H   UNL     1      -4.691  11.941  15.934  0.00  0.00    +0.000 HD
ENDBRANCH  23  24
ENDBRANCH  16  23
ENDBRANCH  15  19
ENDBRANCH   1  15
TORSDOF 5
ENDMDL
MODEL 3
REMARK VINA RESULT:      -7.3      0.831      1.202
REMARK  Name = 
REMARK  5 active torsions:
REMARK  status: ('A' for Active; 'I' for Inactive)
REMARK    1  A    between atoms: C_2  and  O_3
REMARK    2  A    between atoms: C_2  and  C_4
REMARK    3  A    between atoms: C_7  and  C_8
REMARK    4  A    between atoms: C_8  and  N_9
REMARK    5  A    between atoms: C_14  and  C_15
REMARK                            x       y       z     vdW  Elec       q    Type
REMARK                         _______ _______ _______ _____ _____    ______ ____
ROOT
ATOM      1  N   UNL     1       1.172   9.728  19.331  0.00  0.00    +0.000 N 
ATOM      2  C   UNL     1       0.964   9.028  20.488  0.00  0.00    +0.000 C 
ATOM      3  O   UNL     1       0.319   9.387  21.461  0.00  0.00    +0.000 OA
ATOM      4  S   UNL     1       1.775   7.476  20.406  0.00  0.00    +0.000 S 
ATOM      5  C   UNL     1       2.306   7.749  18.794  0.00  0.00    +0.000 C 
ATOM      6  C   UNL     1       2.976   6.911  17.995  0.00  0.00    +0.000 C 
ATOM      7  C   UNL     1       1.891   9.103  18.341  0.00  0.00    +0.000 C 
ATOM      8  O   UNL     1       2.164   9.571  17.244  0.00  0.00    +0.000 OA
ENDROOT
BRANCH   6   9
ATOM      9  C   UNL     1       3.401   5.564  18.360  0.00  0.00    +0.000 A 
ATOM     10  C   UNL     1       4.594   5.349  19.042  0.00  0.00    +0.000 A 
ATOM     11  C   UNL     1       4.968   4.038  19.326  0.00  0.00    +0.000 A 
ATOM     12  C   UNL     1       4.139   2.994  18.932  0.00  0.00    +0.000 A 
ATOM     13  C   UNL     1       2.966   3.305  18.266  0.00  0.00    +0.000 A 
ATOM     14  N   UNL     1       2.582   4.566  17.963  0.00  0.00    +0.000 NA
ENDBRANCH   6   9
BRANCH   1  15
ATOM     15  C   UNL     1       0.628  11.057  19.155  0.00  0.00    +0.000 C 
BRANCH  15  19
ATOM     16  C   UNL     1      -3.556  11.005  18.050  0.00  0.00    +0.000 A 
ATOM     17  C   UNL     1      -3.106  11.849  19.072  0.00  0.00    +0.000 A 
ATOM     18  C   UNL     1      -1.758  11.855  19.439  0.00  0.00    +0.000 A 
ATOM     19  C   UNL     1      -0.838  11.030  18.777  0.00  0.00    +0.000 A 
ATOM     20  C   UNL     1      -1.296  10.182  17.757  0.00  0.00    +0.000 A 
ATOM     21  C   UNL     1      -2.644  10.178  17.385  0.00  0.00    +0.000 A 
BRANCH  16  23
ATOM     22  O   UNL     1      -5.892  10.902  18.477  0.00  0.00    +0.000 OA
ATOM     23  C   UNL     1      -4.991  11.059  17.674  0.00  0.00    +0.000 C 
BRANCH  23  24
ATOM     24  O   UNL     1      -5.199  11.258  16.355  0.00  0.00    +0.000 OA
ATOM     25  H   UNL     1      -4.391  11.302  15.813  0.00  0.00    +0.000 HD
ENDBRANCH  23  24
ENDBRANCH  16  23
ENDBRANCH  15  19
ENDBRANCH   1  15
TORSDOF 5
ENDMDL
MODEL 4
REMARK VINA RESULT:      -7.0      1.017      1.804
REMARK  Name = 
REMARK  5 active torsions:
REMARK  status: ('A' for Active; 'I' for Inactive)
REMARK    1  A    between atoms: C_2  and  O_3
REMARK    2  A    between atoms: C_2  and  C_4
REMARK    3  A    between atoms: C_7  and  C_8
REMARK    4  A    between atoms: C_8  and  N_9
REMARK    5  A    between atoms: C_14  and  C_15
REMARK                            x       y       z     vdW  Elec       q    Type
REMARK                         _______ _______ _______ _____ _____    ______ ____
ROOT
ATOM      1  N   UNL     1       1.427   9.310  19.438  0.00  0.00    +0.000 N 
ATOM      2  C   UNL     1       2.036   9.022  18.248  0.00  0.00    +0.000 C 
ATOM      3  O   UNL     1       2.262   9.794  17.329  0.00  0.00    +0.000 OA
ATOM      4  S   UNL     1       2.476   7.325  18.192  0.00  0.00    +0.000 S 
ATOM      5  C   UNL     1       1.918   7.046  19.794  0.00  0.00    +0.000 C 
ATOM      6  C   UNL     1       1.992   5.917  20.507  0.00  0.00    +0.000 C 
ATOM      7  C   UNL     1       1.324   8.290  20.353  0.00  0.00    +0.000 C 
ATOM      8  O   UNL     1       0.821   8.367  21.465  0.00  0.00    +0.000 OA
ENDROOT
BRANCH   6   9
ATOM      9  C   UNL     1       2.575   4.665  20.035  0.00  0.00    +0.000 A 
ATOM     10  C   UNL     1       1.795   3.524  19.882  0.00  0.00    +0.000 A 
ATOM     11  C   UNL     1       2.416   2.348  19.469  0.00  0.00    +0.000 A 
ATOM     12  C   UNL     1       3.782   2.352  19.215  0.00  0.00    +0.000 A 
ATOM     13  C   UNL     1       4.476   3.538  19.388  0.00  0.00    +0.000 A 
ATOM     14  N   UNL     1       3.905   4.693  19.800  0.00  0.00    +0.000 NA
ENDBRANCH   6   9
BRANCH   1  15
ATOM     15  C   UNL     1       0.942  10.642  19.725  0.00  0.00    +0.000 C 
BRANCH  15  19
ATOM     16  C   UNL     1      -3.106  11.258  18.326  0.00  0.00    +0.000 A 
ATOM     17  C   UNL     1      -2.590  12.047  19.359  0.00  0.00    +0.000 A 
ATOM     18  C   UNL     1      -1.287  11.839  19.821  0.00  0.00    +0.000 A 
ATOM     19  C   UNL     1      -0.479  10.849  19.244  0.00  0.00    +0.000 A 
ATOM     20  C   UNL     1      -1.005  10.057  18.212  0.00  0.00    +0.000 A 
ATOM     21  C   UNL     1      -2.306  10.268  17.745  0.00  0.00    +0.000 A 
BRANCH  16  23
ATOM     22  O   UNL     1      -5.480  11.179  18.448  0.00  0.00    +0.000 OA
ATOM     23  C   UNL     1      -4.483  11.539  17.848  0.00  0.00    +0.000 C 
BRANCH  23  24
ATOM     24  O   UNL     1      -4.525  12.194  16.668  0.00  0.00    +0.000 OA
ATOM     25  H   UNL     1      -4.257  13.130  16.707  0.00  0.00    +0.000 HD
ENDBRANCH  23  24
ENDBRANCH  16  23
ENDBRANCH  15  19
ENDBRANCH   1  15
TORSDOF 5
ENDMDL
MODEL 5
REMARK VINA RESULT:      -6.9      1.098      2.115
REMARK  Name = 
REMARK  5 active torsions:
REMARK  status: ('A' for Active; 'I' for Inactive)
REMARK    1  A    between atoms: C_2  and  O_3
REMARK    2  A    between atoms: C_2  and  C_4
REMARK    3  A    between atoms: C_7  and  C_8
REMARK    4  A    between atoms: C_8  and  N_9
REMARK    5  A    between atoms: C_14  and  C_15
REMARK                            x       y       z     vdW  Elec       q    Type
REMARK                         _______ _______ _______ _____ _____    ______ ____
ROOT
ATOM      1  N   UNL     1       1.484   9.200  19.492  0.00  0.00    +0.000 N 
ATOM      2  C   UNL     1       2.046   8.902  18.282  0.00  0.00    +0.000 C 
ATOM      3  O   UNL     1       2.275   9.675  17.364  0.00  0.00    +0.000 OA
ATOM      4  S   UNL     1       2.420   7.191  18.197  0.00  0.00    +0.000 S 
ATOM      5  C   UNL     1       1.899   6.916  19.813  0.00  0.00    +0.000 C 
ATOM      6  C   UNL     1       1.950   5.777  20.511  0.00  0.00    +0.000 C 
ATOM      7  C   UNL     1       1.369   8.175  20.400  0.00  0.00    +0.000 C 
ATOM      8  O   UNL     1       0.902   8.259  21.528  0.00  0.00    +0.000 OA
ENDROOT
BRANCH   6   9
ATOM      9  C   UNL     1       2.472   4.509  20.011  0.00  0.00    +0.000 A 
ATOM     10  C   UNL     1       1.623   3.437  19.753  0.00  0.00    +0.000 A 
ATOM     11  C   UNL     1       2.183   2.239  19.317  0.00  0.00    +0.000 A 
ATOM     12  C   UNL     1       3.560   2.155  19.145  0.00  0.00    +0.000 A 
ATOM     13  C   UNL     1       4.324   3.277  19.419  0.00  0.00    +0.000 A 
ATOM     14  N   UNL     1       3.812   4.449  19.856  0.00  0.00    +0.000 NA
ENDBRANCH   6   9
BRANCH   1  15
ATOM     15  C   UNL     1       1.059  10.547  19.806  0.00  0.00    +0.000 C 
BRANCH  15  19
ATOM     16  C   UNL     1      -2.906  11.392  18.290  0.00  0.00    +0.000 A 
ATOM     17  C   UNL     1      -2.162  10.330  17.765  0.00  0.00    +0.000 A 
ATOM     18  C   UNL     1      -0.876  10.065  18.245  0.00  0.00    +0.000 A 
ATOM     19  C   UNL     1      -0.324  10.850  19.266  0.00  0.00    +0.000 A 
ATOM     20  C   UNL     1      -1.072  11.918  19.785  0.00  0.00    +0.000 A 
ATOM     21  C   UNL     1      -2.362  12.180  19.311  0.00  0.00    +0.000 A 
BRANCH  16  23
ATOM     22  O   UNL     1      -4.723  11.026  16.802  0.00  0.00    +0.000 OA
ATOM     23  C   UNL     1      -4.279  11.612  17.772  0.00  0.00    +0.000 C 
BRANCH  23  24
ATOM     24  O   UNL     1      -4.971  12.551  18.451  0.00  0.00    +0.000 OA
ATOM     25  H   UNL     1      -5.801  12.838  18.028  0.00  0.00    +0.000 HD
ENDBRANCH  23  24
ENDBRANCH  16  23
ENDBRANCH  15  19
ENDBRANCH   1  15
TORSDOF 5
ENDMDL
MODEL 6
REMARK VINA RESULT:      -6.8      1.214      2.084
REMARK  Name = 
REMARK  5 active torsions:
REMARK  status: ('A' for Active; 'I' for Inactive)
REMARK    1  A    between atoms: C_2  and  O_3
REMARK    2  A    between atoms: C_2  and  C_4
REMARK    3  A    between atoms: C_7  and  C_8
REMARK    4  A    between atoms: C_8  and  N_9
REMARK    5  A    between atoms: C_14  and  C_15
REMARK                            x       y       z     vdW  Elec       q    Type
REMARK                         _______ _______ _______ _____ _____    ______ ____
ROOT
ATOM      1  N   UNL     1       1.517   9.062  19.405  0.00  0.00    +0.000 N 
ATOM      2  C   UNL     1       2.110   8.760  18.211  0.00  0.00    +0.000 C 
ATOM      3  O   UNL     1       2.353   9.528  17.292  0.00  0.00    +0.000 OA
ATOM      4  S   UNL     1       2.500   7.052  18.148  0.00  0.00    +0.000 S 
ATOM      5  C   UNL     1       1.944   6.784  19.752  0.00  0.00    +0.000 C 
ATOM      6  C   UNL     1       1.989   5.651  20.461  0.00  0.00    +0.000 C 
ATOM      7  C   UNL     1       1.390   8.043  20.318  0.00  0.00    +0.000 C 
ATOM      8  O   UNL     1       0.896   8.132  21.434  0.00  0.00    +0.000 OA
ENDROOT
BRANCH   6   9
ATOM      9  C   UNL     1       2.534   4.384  19.983  0.00  0.00    +0.000 A 
ATOM     10  C   UNL     1       3.902   4.216  19.799  0.00  0.00    +0.000 A 
ATOM     11  C   UNL     1       4.358   2.999  19.300  0.00  0.00    +0.000 A 
ATOM     12  C   UNL     1       3.442   1.994  19.014  0.00  0.00    +0.000 A 
ATOM     13  C   UNL     1       2.099   2.249  19.238  0.00  0.00    +0.000 A 
ATOM     14  N   UNL     1       1.624   3.425  19.708  0.00  0.00    +0.000 NA
ENDBRANCH   6   9
BRANCH   1  15
ATOM     15  C   UNL     1       1.072  10.407  19.698  0.00  0.00    +0.000 C 
BRANCH  15  19
ATOM     16  C   UNL     1      -2.883  11.212  18.137  0.00  0.00    +0.000 A 
ATOM     17  C   UNL     1      -2.388  11.949  19.219  0.00  0.00    +0.000 A 
ATOM     18  C   UNL     1      -1.116  11.679  19.733  0.00  0.00    +0.000 A 
ATOM     19  C   UNL     1      -0.317  10.680  19.161  0.00  0.00    +0.000 A 
ATOM     20  C   UNL     1      -0.821   9.941  18.080  0.00  0.00    +0.000 A 
ATOM     21  C   UNL     1      -2.091  10.213  17.560  0.00  0.00    +0.000 A 
BRANCH  16  23
ATOM     22  O   UNL     1      -4.671  11.089  16.575  0.00  0.00    +0.000 OA
ATOM     23  C   UNL     1      -4.225  11.558  17.607  0.00  0.00    +0.000 C 
BRANCH  23  24
ATOM     24  O   UNL     1      -4.885  12.470  18.353  0.00  0.00    +0.000 OA
ATOM     25  H   UNL     1      -5.689  12.139  18.793  0.00  0.00    +0.000 HD
ENDBRANCH  23  24
ENDBRANCH  16  23
ENDBRANCH  15  19
ENDBRANCH   1  15
TORSDOF 5
ENDMDL
MODEL 7
REMARK VINA RESULT:      -6.8      1.132      2.235
REMARK  Name = 
REMARK  5 active torsions:
REMARK  status: ('A' for Active; 'I' for Inactive)
REMARK    1  A    between atoms: C_2  and  O_3
REMARK    2  A    between atoms: C_2  and  C_4
REMARK    3  A    between atoms: C_7  and  C_8
REMARK    4  A    between atoms: C_8  and  N_9
REMARK    5  A    between atoms: C_14  and  C_15
REMARK                            x       y       z     vdW  Elec       q    Type
REMARK                         _______ _______ _______ _____ _____    ______ ____
ROOT
ATOM      1  N   UNL     1       1.399   9.428  19.437  0.00  0.00    +0.000 N 
ATOM      2  C   UNL     1       2.042   9.165  18.259  0.00  0.00    +0.000 C 
ATOM      3  O   UNL     1       2.273   9.952  17.353  0.00  0.00    +0.000 OA
ATOM      4  S   UNL     1       2.520   7.480  18.196  0.00  0.00    +0.000 S 
ATOM      5  C   UNL     1       1.931   7.172  19.782  0.00  0.00    +0.000 C 
ATOM      6  C   UNL     1       2.012   6.036  20.484  0.00  0.00    +0.000 C 
ATOM      7  C   UNL     1       1.297   8.396  20.338  0.00  0.00    +0.000 C 
ATOM      8  O   UNL     1       0.766   8.451  21.440  0.00  0.00    +0.000 OA
ENDROOT
BRANCH   6   9
ATOM      9  C   UNL     1       2.634   4.802  20.014  0.00  0.00    +0.000 A 
ATOM     10  C   UNL     1       3.979   4.767  19.664  0.00  0.00    +0.000 A 
ATOM     11  C   UNL     1       4.506   3.571  19.182  0.00  0.00    +0.000 A 
ATOM     12  C   UNL     1       3.682   2.457  19.077  0.00  0.00    +0.000 A 
ATOM     13  C   UNL     1       2.357   2.586  19.458  0.00  0.00    +0.000 A 
ATOM     14  N   UNL     1       1.812   3.736  19.917  0.00  0.00    +0.000 NA
ENDBRANCH   6   9
BRANCH   1  15
ATOM     15  C   UNL     1       0.879  10.746  19.725  0.00  0.00    +0.000 C 
BRANCH  15  19
ATOM     16  C   UNL     1      -3.148  11.263  18.226  0.00  0.00    +0.000 A 
ATOM     17  C   UNL     1      -2.283  10.344  17.622  0.00  0.00    +0.000 A 
ATOM     18  C   UNL     1      -0.977  10.188  18.097  0.00  0.00    +0.000 A 
ATOM     19  C   UNL     1      -0.526  10.936  19.192  0.00  0.00    +0.000 A 
ATOM     20  C   UNL     1      -1.397  11.860  19.791  0.00  0.00    +0.000 A 
ATOM     21  C   UNL     1      -2.705  12.014  19.321  0.00  0.00    +0.000 A 
BRANCH  16  23
ATOM     22  O   UNL     1      -5.468  10.744  18.176  0.00  0.00    +0.000 OA
ATOM     23  C   UNL     1      -4.535  11.369  17.707  0.00  0.00    +0.000 C 
BRANCH  23  24
ATOM     24  O   UNL     1      -4.654  12.191  16.643  0.00  0.00    +0.000 OA
ATOM     25  H   UNL     1      -4.218  11.878  15.829  0.00  0.00    +0.000 HD
ENDBRANCH  23  24
ENDBRANCH  16  23
ENDBRANCH  15  19
ENDBRANCH   1  15
TORSDOF 5
ENDMDL
MODEL 8
REMARK VINA RESULT:      -6.7      3.949      8.787
REMARK  Name = 
REMARK  5 active torsions:
REMARK  status: ('A' for Active; 'I' for Inactive)
REMARK    1  A    between atoms: C_2  and  O_3
REMARK    2  A    between atoms: C_2  and  C_4
REMARK    3  A    between atoms: C_7  and  C_8
REMARK    4  A    between atoms: C_8  and  N_9
REMARK    5  A    between atoms: C_14  and  C_15
REMARK                            x       y       z     vdW  Elec       q    Type
REMARK                         _______ _______ _______ _____ _____    ______ ____
ROOT
ATOM      1  N   UNL     1       4.493   5.576  18.512  0.00  0.00    +0.000 N 
ATOM      2  C   UNL     1       3.511   5.086  19.327  0.00  0.00    +0.000 C 
ATOM      3  O   UNL     1       3.517   4.026  19.934  0.00  0.00    +0.000 OA
ATOM      4  S   UNL     1       2.171   6.215  19.402  0.00  0.00    +0.000 S 
ATOM      5  C   UNL     1       2.982   7.364  18.412  0.00  0.00    +0.000 C 
ATOM      6  C   UNL     1       2.570   8.588  18.066  0.00  0.00    +0.000 C 
ATOM      7  C   UNL     1       4.295   6.823  17.970  0.00  0.00    +0.000 C 
ATOM      8  O   UNL     1       5.066   7.419  17.231  0.00  0.00    +0.000 OA
ENDROOT
BRANCH   6   9
ATOM      9  C   UNL     1       1.306   9.194  18.474  0.00  0.00    +0.000 A 
ATOM     10  C   UNL     1       0.287   9.413  17.554  0.00  0.00    +0.000 A 
ATOM     11  C   UNL     1      -0.880  10.033  17.993  0.00  0.00    +0.000 A 
ATOM     12  C   UNL     1      -0.993  10.402  19.329  0.00  0.00    +0.000 A 
ATOM     13  C   UNL     1       0.072  10.136  20.173  0.00  0.00    +0.000 A 
ATOM     14  N   UNL     1       1.222   9.548  19.774  0.00  0.00    +0.000 NA
ENDBRANCH   6   9
BRANCH   1  15
ATOM     15  C   UNL     1       5.700   4.819  18.260  0.00  0.00    +0.000 C 
BRANCH  15  19
ATOM     16  C   UNL     1       6.323   4.039  14.049  0.00  0.00    +0.000 A 
ATOM     17  C   UNL     1       7.347   4.600  14.822  0.00  0.00    +0.000 A 
ATOM     18  C   UNL     1       7.141   4.865  16.179  0.00  0.00    +0.000 A 
ATOM     19  C   UNL     1       5.915   4.558  16.784  0.00  0.00    +0.000 A 
ATOM     20  C   UNL     1       4.890   4.002  16.003  0.00  0.00    +0.000 A 
ATOM     21  C   UNL     1       5.096   3.730  14.646  0.00  0.00    +0.000 A 
BRANCH  16  23
ATOM     22  O   UNL     1       7.237   4.494  11.902  0.00  0.00    +0.000 OA
ATOM     23  C   UNL     1       6.601   3.745  12.621  0.00  0.00    +0.000 C 
BRANCH  23  24
ATOM     24  O   UNL     1       6.049   2.593  12.187  0.00  0.00    +0.000 OA
ATOM     25  H   UNL     1       6.662   1.838  12.129  0.00  0.00    +0.000 HD
ENDBRANCH  23  24
ENDBRANCH  16  23
ENDBRANCH  15  19
ENDBRANCH   1  15
TORSDOF 5
ENDMDL
MODEL 9
REMARK VINA RESULT:      -6.7      1.031      1.212
REMARK  Name = 
REMARK  5 active torsions:
REMARK  status: ('A' for Active; 'I' for Inactive)
REMARK    1  A    between atoms: C_2  and  O_3
REMARK    2  A    between atoms: C_2  and  C_4
REMARK    3  A    between atoms: C_7  and  C_8
REMARK    4  A    between atoms: C_8  and  N_9
REMARK    5  A    between atoms: C_14  and  C_15
REMARK                            x       y       z     vdW  Elec       q    Type
REMARK                         _______ _______ _______ _____ _____    ______ ____
ROOT
ATOM      1  N   UNL     1       1.103   9.478  19.684  0.00  0.00    +0.000 N 
ATOM      2  C   UNL     1       0.980   8.653  20.768  0.00  0.00    +0.000 C 
ATOM      3  O   UNL     1       0.353   8.872  21.793  0.00  0.00    +0.000 OA
ATOM      4  S   UNL     1       1.873   7.168  20.500  0.00  0.00    +0.000 S 
ATOM      5  C   UNL     1       2.327   7.635  18.909  0.00  0.00    +0.000 C 
ATOM      6  C   UNL     1       3.013   6.924  18.007  0.00  0.00    +0.000 C 
ATOM      7  C   UNL     1       1.819   9.001  18.612  0.00  0.00    +0.000 C 
ATOM      8  O   UNL     1       2.024   9.593  17.561  0.00  0.00    +0.000 OA
ENDROOT
BRANCH   6   9
ATOM      9  C   UNL     1       3.526   5.575  18.217  0.00  0.00    +0.000 A 
ATOM     10  C   UNL     1       2.805   4.461  17.799  0.00  0.00    +0.000 A 
ATOM     11  C   UNL     1       3.326   3.197  18.065  0.00  0.00    +0.000 A 
ATOM     12  C   UNL     1       4.545   3.089  18.725  0.00  0.00    +0.000 A 
ATOM     13  C   UNL     1       5.195   4.254  19.095  0.00  0.00    +0.000 A 
ATOM     14  N   UNL     1       4.709   5.494  18.863  0.00  0.00    +0.000 NA
ENDBRANCH   6   9
BRANCH   1  15
ATOM     15  C   UNL     1       0.480  10.783  19.663  0.00  0.00    +0.000 C 
BRANCH  15  19
ATOM     16  C   UNL     1      -2.980  10.877  17.065  0.00  0.00    +0.000 A 
ATOM     17  C   UNL     1      -2.158  12.003  17.186  0.00  0.00    +0.000 A 
ATOM     18  C   UNL     1      -1.049  11.977  18.036  0.00  0.00    +0.000 A 
ATOM     19  C   UNL     1      -0.738  10.820  18.764  0.00  0.00    +0.000 A 
ATOM     20  C   UNL     1      -1.570   9.696  18.642  0.00  0.00    +0.000 A 
ATOM     21  C   UNL     1      -2.677   9.718  17.787  0.00  0.00    +0.000 A 
BRANCH  16  23
ATOM     22  O   UNL     1      -4.075  10.514  14.986  0.00  0.00    +0.000 OA
ATOM     23  C   UNL     1      -4.127  10.942  16.124  0.00  0.00    +0.000 C 
BRANCH  23  24
ATOM     24  O   UNL     1      -5.215  11.555  16.637  0.00  0.00    +0.000 OA
ATOM     25  H   UNL     1      -5.054  12.447  16.997  0.00  0.00    +0.000 HD
ENDBRANCH  23  24
ENDBRANCH  16  23
ENDBRANCH  15  19
ENDBRANCH   1  15
TORSDOF 5
ENDMDL
