MODEL 1
REMARK VINA RESULT:      -7.3      0.000      0.000
REMARK  Name = 
REMARK  4 active torsions:
REMARK  status: ('A' for Active; 'I' for Inactive)
REMARK    1  A    between atoms: C_1  and  N_2
REMARK    2  A    between atoms: N_2  and  C_3
REMARK    3  A    between atoms: C_4  and  C_6
REMARK    4  A    between atoms: N_11  and  C_12
REMARK                            x       y       z     vdW  Elec       q    Type
REMARK                         _______ _______ _______ _____ _____    ______ ____
ROOT
ATOM      1  C   UNL     1       6.615   4.464  15.723  0.00  0.00    +0.000 C 
ATOM      2  C   UNL     1       7.248   5.312  16.842  0.00  0.00    +0.000 C 
ATOM      3  C   UNL     1       6.092   5.531  17.794  0.00  0.00    +0.000 C 
ATOM      4  C   UNL     1       5.928   4.323  18.709  0.00  0.00    +0.000 C 
ATOM      5  C   UNL     1       4.550   4.246  19.345  0.00  0.00    +0.000 C 
ATOM      6  N   UNL     1       3.388   4.517  18.506  0.00  0.00    +0.000 NA
ATOM      7  C   UNL     1       3.569   5.515  17.442  0.00  0.00    +0.000 C 
ATOM      8  C   UNL     1       4.951   5.618  16.811  0.00  0.00    +0.000 C 
ATOM      9  O   UNL     1       5.202   4.563  15.881  0.00  0.00    +0.000 OA
ENDROOT
BRANCH   6  10
ATOM     10  C   UNL     1       2.096   4.727  19.217  0.00  0.00    +0.000 C 
ATOM     11  C   UNL     1       1.025   3.668  18.910  0.00  0.00    +0.000 C 
ATOM     12  C   UNL     1       1.123   2.432  19.793  0.00  0.00    +0.000 C 
ATOM     13  O   UNL     1       1.117   2.776  21.177  0.00  0.00    +0.000 OA
ATOM     14  C   UNL     1       2.182   3.641  21.555  0.00  0.00    +0.000 C 
ATOM     15  C   UNL     1       2.163   4.931  20.748  0.00  0.00    +0.000 C 
ENDBRANCH   6  10
BRANCH   1  19
ATOM     16  C   UNL     1       7.256   4.673  11.935  0.00  0.00    +0.000 C 
ATOM     17  N   UNL     1       6.654   4.276  13.194  0.00  0.00    +0.000 N 
ATOM     18  C   UNL     1       5.644   3.221  13.157  0.00  0.00    +0.000 C 
ATOM     19  C   UNL     1       7.160   4.879  14.341  0.00  0.00    +0.000 C 
ATOM     20  O   UNL     1       8.110   5.667  14.263  0.00  0.00    +0.000 OA
ENDBRANCH   1  19
TORSDOF 2
ENDMDL
MODEL 2
REMARK VINA RESULT:      -6.8      1.172      1.833
REMARK  Name = 
REMARK  4 active torsions:
REMARK  status: ('A' for Active; 'I' for Inactive)
REMARK    1  A    between atoms: C_1  and  N_2
REMARK    2  A    between atoms: N_2  and  C_3
REMARK    3  A    between atoms: C_4  and  C_6
REMARK    4  A    between atoms: N_11  and  C_12
REMARK                            x       y       z     vdW  Elec       q    Type
REMARK                         _______ _______ _______ _____ _____    ______ ____
ROOT
ATOM      1  C   UNL     1       6.574   5.240  15.786  0.00  0.00    +0.000 C 
ATOM      2  C   UNL     1       5.422   6.261  15.817  0.00  0.00    +0.000 C 
ATOM      3  C   UNL     1       4.446   5.640  16.792  0.00  0.00    +0.000 C 
ATOM      4  C   UNL     1       4.857   5.958  18.225  0.00  0.00    +0.000 C 
ATOM      5  C   UNL     1       4.242   5.012  19.242  0.00  0.00    +0.000 C 
ATOM      6  N   UNL     1       4.222   3.587  18.933  0.00  0.00    +0.000 NA
ATOM      7  C   UNL     1       4.065   3.227  17.516  0.00  0.00    +0.000 C 
ATOM      8  C   UNL     1       4.659   4.178  16.486  0.00  0.00    +0.000 C 
ATOM      9  O   UNL     1       6.076   4.041  16.375  0.00  0.00    +0.000 OA
ENDROOT
BRANCH   6  10
ATOM     10  C   UNL     1       3.357   2.737  19.797  0.00  0.00    +0.000 C 
ATOM     11  C   UNL     1       2.652   3.496  20.931  0.00  0.00    +0.000 C 
ATOM     12  C   UNL     1       1.332   4.127  20.509  0.00  0.00    +0.000 C 
ATOM     13  O   UNL     1       0.458   3.167  19.919  0.00  0.00    +0.000 OA
ATOM     14  C   UNL     1       1.001   2.534  18.767  0.00  0.00    +0.000 C 
ATOM     15  C   UNL     1       2.319   1.840  19.082  0.00  0.00    +0.000 C 
ENDBRANCH   6  10
BRANCH   1  19
ATOM     16  C   UNL     1       7.101   4.160  12.131  0.00  0.00    +0.000 C 
ATOM     17  N   UNL     1       6.475   4.299  13.432  0.00  0.00    +0.000 N 
ATOM     18  C   UNL     1       5.261   3.527  13.685  0.00  0.00    +0.000 C 
ATOM     19  C   UNL     1       7.143   5.093  14.360  0.00  0.00    +0.000 C 
ATOM     20  O   UNL     1       8.237   5.595  14.077  0.00  0.00    +0.000 OA
ENDBRANCH   1  19
TORSDOF 2
ENDMDL
MODEL 3
REMARK VINA RESULT:      -6.4      5.980      8.610
REMARK  Name = 
REMARK  4 active torsions:
REMARK  status: ('A' for Active; 'I' for Inactive)
REMARK    1  A    between atoms: C_1  and  N_2
REMARK    2  A    between atoms: N_2  and  C_3
REMARK    3  A    between atoms: C_4  and  C_6
REMARK    4  A    between atoms: N_11  and  C_12
REMARK                            x       y       z     vdW  Elec       q    Type
REMARK                         _______ _______ _______ _____ _____    ______ ____
ROOT
ATOM      1  C   UNL     1      -0.861  10.847  19.159  0.00  0.00    +0.000 C 
ATOM      2  C   UNL     1       0.455  11.562  18.802  0.00  0.00    +0.000 C 
ATOM      3  C   UNL     1       1.493  10.478  19.003  0.00  0.00    +0.000 C 
ATOM      4  C   UNL     1       1.565   9.584  17.771  0.00  0.00    +0.000 C 
ATOM      5  C   UNL     1       2.203   8.234  18.056  0.00  0.00    +0.000 C 
ATOM      6  N   UNL     1       1.818   7.534  19.276  0.00  0.00    +0.000 NA
ATOM      7  C   UNL     1       1.502   8.375  20.440  0.00  0.00    +0.000 C 
ATOM      8  C   UNL     1       0.882   9.738  20.167  0.00  0.00    +0.000 C 
ATOM      9  O   UNL     1      -0.506   9.647  19.842  0.00  0.00    +0.000 OA
ENDROOT
BRANCH   6  10
ATOM     10  C   UNL     1       2.670   6.378  19.670  0.00  0.00    +0.000 C 
ATOM     11  C   UNL     1       2.000   5.402  20.650  0.00  0.00    +0.000 C 
ATOM     12  C   UNL     1       1.157   4.337  19.964  0.00  0.00    +0.000 C 
ATOM     13  O   UNL     1       1.906   3.632  18.976  0.00  0.00    +0.000 OA
ATOM     14  C   UNL     1       2.428   4.469  17.952  0.00  0.00    +0.000 C 
ATOM     15  C   UNL     1       3.318   5.562  18.527  0.00  0.00    +0.000 C 
ENDBRANCH   6  10
BRANCH   1  19
ATOM     16  C   UNL     1      -3.898  12.986  20.158  0.00  0.00    +0.000 C 
ATOM     17  N   UNL     1      -3.083  12.043  19.418  0.00  0.00    +0.000 N 
ATOM     18  C   UNL     1      -3.625  11.517  18.167  0.00  0.00    +0.000 C 
ATOM     19  C   UNL     1      -1.812  11.790  19.924  0.00  0.00    +0.000 C 
ATOM     20  O   UNL     1      -1.408  12.395  20.923  0.00  0.00    +0.000 OA
ENDBRANCH   1  19
TORSDOF 2
ENDMDL
MODEL 4
REMARK VINA RESULT:      -6.4      1.368      2.100
REMARK  Name = 
REMARK  4 active torsions:
REMARK  status: ('A' for Active; 'I' for Inactive)
REMARK    1  A    between atoms: C_1  and  N_2
REMARK    2  A    between atoms: N_2  and  C_3
REMARK    3  A    between atoms: C_4  and  C_6
REMARK    4  A    between atoms: N_11  and  C_12
REMARK                            x       y       z     vdW  Elec       q    Type
REMARK                         _______ _______ _______ _____ _____    ______ ____
ROOT
ATOM      1  C   UNL     1       6.117   4.477  15.296  0.00  0.00    +0.000 C 
ATOM      2  C   UNL     1       5.428   5.836  15.519  0.00  0.00    +0.000 C 
ATOM      3  C   UNL     1       4.582   5.588  16.750  0.00  0.00    +0.000 C 
ATOM      4  C   UNL     1       5.429   5.734  18.009  0.00  0.00    +0.000 C 
ATOM      5  C   UNL     1       4.811   5.055  19.220  0.00  0.00    +0.000 C 
ATOM      6  N   UNL     1       4.231   3.728  19.045  0.00  0.00    +0.000 NA
ATOM      7  C   UNL     1       3.605   3.456  17.743  0.00  0.00    +0.000 C 
ATOM      8  C   UNL     1       4.202   4.146  16.524  0.00  0.00    +0.000 C 
ATOM      9  O   UNL     1       5.410   3.524  16.085  0.00  0.00    +0.000 OA
ENDROOT
BRANCH   6  10
ATOM     10  C   UNL     1       3.380   3.228  20.160  0.00  0.00    +0.000 C 
ATOM     11  C   UNL     1       2.758   4.333  21.027  0.00  0.00    +0.000 C 
ATOM     12  C   UNL     1       1.441   4.865  20.478  0.00  0.00    +0.000 C 
ATOM     13  O   UNL     1       0.507   3.813  20.246  0.00  0.00    +0.000 OA
ATOM     14  C   UNL     1       0.971   2.830  19.328  0.00  0.00    +0.000 C 
ATOM     15  C   UNL     1       2.278   2.206  19.796  0.00  0.00    +0.000 C 
ENDBRANCH   6  10
BRANCH   1  19
ATOM     16  C   UNL     1       7.268   4.367  11.627  0.00  0.00    +0.000 C 
ATOM     17  N   UNL     1       7.272   4.667  13.046  0.00  0.00    +0.000 N 
ATOM     18  C   UNL     1       8.319   5.554  13.547  0.00  0.00    +0.000 C 
ATOM     19  C   UNL     1       6.217   4.150  13.792  0.00  0.00    +0.000 C 
ATOM     20  O   UNL     1       5.312   3.518  13.236  0.00  0.00    +0.000 OA
ENDBRANCH   1  19
TORSDOF 2
ENDMDL
MODEL 5
REMARK VINA RESULT:      -6.0      8.456     10.040
REMARK  Name = 
REMARK  4 active torsions:
REMARK  status: ('A' for Active; 'I' for Inactive)
REMARK    1  A    between atoms: C_1  and  N_2
REMARK    2  A    between atoms: N_2  and  C_3
REMARK    3  A    between atoms: C_4  and  C_6
REMARK    4  A    between atoms: N_11  and  C_12
REMARK                            x       y       z     vdW  Elec       q    Type
REMARK                         _______ _______ _______ _____ _____    ______ ____
ROOT
ATOM      1  C   UNL     1       0.153  10.256  19.213  0.00  0.00    +0.000 C 
ATOM      2  C   UNL     1       0.493  11.752  19.073  0.00  0.00    +0.000 C 
ATOM      3  C   UNL     1      -0.863  12.386  18.849  0.00  0.00    +0.000 C 
ATOM      4  C   UNL     1      -1.570  12.602  20.183  0.00  0.00    +0.000 C 
ATOM      5  C   UNL     1      -3.072  12.778  20.035  0.00  0.00    +0.000 C 
ATOM      6  N   UNL     1      -3.783  11.889  19.124  0.00  0.00    +0.000 NA
ATOM      7  C   UNL     1      -3.047  11.456  17.926  0.00  0.00    +0.000 C 
ATOM      8  C   UNL     1      -1.539  11.296  18.055  0.00  0.00    +0.000 C 
ATOM      9  O   UNL     1      -1.177  10.090  18.728  0.00  0.00    +0.000 OA
ENDROOT
BRANCH   6  10
ATOM     10  C   UNL     1      -5.179  12.277  18.779  0.00  0.00    +0.000 C 
ATOM     11  C   UNL     1      -5.982  11.182  18.060  0.00  0.00    +0.000 C 
ATOM     12  C   UNL     1      -6.662  10.205  19.010  0.00  0.00    +0.000 C 
ATOM     13  O   UNL     1      -7.471  10.884  19.967  0.00  0.00    +0.000 OA
ATOM     14  C   UNL     1      -6.748  11.809  20.772  0.00  0.00    +0.000 C 
ATOM     15  C   UNL     1      -6.047  12.857  19.919  0.00  0.00    +0.000 C 
ENDBRANCH   6  10
BRANCH   1  19
ATOM     16  C   UNL     1       2.831   7.576  18.543  0.00  0.00    +0.000 C 
ATOM     17  N   UNL     1       1.788   8.317  19.226  0.00  0.00    +0.000 N 
ATOM     18  C   UNL     1       1.490   7.945  20.608  0.00  0.00    +0.000 C 
ATOM     19  C   UNL     1       1.224   9.381  18.530  0.00  0.00    +0.000 C 
ATOM     20  O   UNL     1       1.649   9.687  17.410  0.00  0.00    +0.000 OA
ENDBRANCH   1  19
TORSDOF 2
ENDMDL
MODEL 6
REMARK VINA RESULT:      -6.0      6.094      8.099
REMARK  Name = 
REMARK  4 active torsions:
REMARK  status: ('A' for Active; 'I' for Inactive)
REMARK    1  A    between atoms: C_1  and  N_2
REMARK    2  A    between atoms: N_2  and  C_3
REMARK    3  A    between atoms: C_4  and  C_6
REMARK    4  A    between atoms: N_11  and  C_12
REMARK                            x       y       z     vdW  Elec       q    Type
REMARK                         _______ _______ _______ _____ _____    ______ ____
ROOT
ATOM      1  C   UNL     1       1.359  11.807  19.499  0.00  0.00    +0.000 C 
ATOM      2  C   UNL     1       0.091  11.106  20.021  0.00  0.00    +0.000 C 
ATOM      3  C   UNL     1       0.306   9.666  19.609  0.00  0.00    +0.000 C 
ATOM      4  C   UNL     1       1.198   8.957  20.621  0.00  0.00    +0.000 C 
ATOM      5  C   UNL     1       1.841   7.698  20.063  0.00  0.00    +0.000 C 
ATOM      6  N   UNL     1       2.397   7.748  18.716  0.00  0.00    +0.000 NA
ATOM      7  C   UNL     1       1.702   8.617  17.754  0.00  0.00    +0.000 C 
ATOM      8  C   UNL     1       1.035   9.870  18.304  0.00  0.00    +0.000 C 
ATOM      9  O   UNL     1       1.975  10.909  18.580  0.00  0.00    +0.000 OA
ENDROOT
BRANCH   6  10
ATOM     10  C   UNL     1       2.742   6.438  18.096  0.00  0.00    +0.000 C 
ATOM     11  C   UNL     1       4.242   6.242  17.825  0.00  0.00    +0.000 C 
ATOM     12  C   UNL     1       5.007   5.692  19.021  0.00  0.00    +0.000 C 
ATOM     13  O   UNL     1       4.417   4.492  19.514  0.00  0.00    +0.000 OA
ATOM     14  C   UNL     1       3.064   4.648  19.925  0.00  0.00    +0.000 C 
ATOM     15  C   UNL     1       2.195   5.169  18.789  0.00  0.00    +0.000 C 
ENDBRANCH   6  10
BRANCH   1  19
ATOM     16  C   UNL     1       1.422  15.582  18.762  0.00  0.00    +0.000 C 
ATOM     17  N   UNL     1       1.830  14.289  19.276  0.00  0.00    +0.000 N 
ATOM     18  C   UNL     1       2.984  14.252  20.172  0.00  0.00    +0.000 C 
ATOM     19  C   UNL     1       1.026  13.205  18.939  0.00  0.00    +0.000 C 
ATOM     20  O   UNL     1      -0.005  13.376  18.279  0.00  0.00    +0.000 OA
ENDBRANCH   1  19
TORSDOF 2
ENDMDL
MODEL 7
REMARK VINA RESULT:      -5.9      1.383      1.635
REMARK  Name = 
REMARK  4 active torsions:
REMARK  status: ('A' for Active; 'I' for Inactive)
REMARK    1  A    between atoms: C_1  and  N_2
REMARK    2  A    between atoms: N_2  and  C_3
REMARK    3  A    between atoms: C_4  and  C_6
REMARK    4  A    between atoms: N_11  and  C_12
REMARK                            x       y       z     vdW  Elec       q    Type
REMARK                         _______ _______ _______ _____ _____    ______ ____
ROOT
ATOM      1  C   UNL     1       5.397   4.387  15.316  0.00  0.00    +0.000 C 
ATOM      2  C   UNL     1       5.841   3.149  16.118  0.00  0.00    +0.000 C 
ATOM      3  C   UNL     1       4.900   3.159  17.303  0.00  0.00    +0.000 C 
ATOM      4  C   UNL     1       3.568   2.521  16.924  0.00  0.00    +0.000 C 
ATOM      5  C   UNL     1       2.438   2.907  17.863  0.00  0.00    +0.000 C 
ATOM      6  N   UNL     1       2.331   4.302  18.275  0.00  0.00    +0.000 NA
ATOM      7  C   UNL     1       3.595   5.038  18.425  0.00  0.00    +0.000 C 
ATOM      8  C   UNL     1       4.742   4.646  17.504  0.00  0.00    +0.000 C 
ATOM      9  O   UNL     1       4.581   5.168  16.184  0.00  0.00    +0.000 OA
ENDROOT
BRANCH   6  10
ATOM     10  C   UNL     1       1.413   4.585  19.413  0.00  0.00    +0.000 C 
ATOM     11  C   UNL     1       0.592   3.374  19.881  0.00  0.00    +0.000 C 
ATOM     12  C   UNL     1       1.319   2.504  20.897  0.00  0.00    +0.000 C 
ATOM     13  O   UNL     1       1.776   3.270  22.010  0.00  0.00    +0.000 OA
ATOM     14  C   UNL     1       2.666   4.320  21.652  0.00  0.00    +0.000 C 
ATOM     15  C   UNL     1       2.026   5.275  20.654  0.00  0.00    +0.000 C 
ENDBRANCH   6  10
BRANCH   1  19
ATOM     16  C   UNL     1       8.217   5.484  12.941  0.00  0.00    +0.000 C 
ATOM     17  N   UNL     1       7.031   4.801  13.421  0.00  0.00    +0.000 N 
ATOM     18  C   UNL     1       6.441   3.782  12.556  0.00  0.00    +0.000 C 
ATOM     19  C   UNL     1       6.613   5.117  14.710  0.00  0.00    +0.000 C 
ATOM     20  O   UNL     1       7.269   5.902  15.403  0.00  0.00    +0.000 OA
ENDBRANCH   1  19
TORSDOF 2
ENDMDL
MODEL 8
REMARK VINA RESULT:      -5.8      3.384      7.328
REMARK  Name = 
REMARK  4 active torsions:
REMARK  status: ('A' for Active; 'I' for Inactive)
REMARK    1  A    between atoms: C_1  and  N_2
REMARK    2  A    between atoms: N_2  and  C_3
REMARK    3  A    between atoms: C_4  and  C_6
REMARK    4  A    between atoms: N_11  and  C_12
REMARK                            x       y       z     vdW  Elec       q    Type
REMARK                         _______ _______ _______ _____ _____    ______ ____
ROOT
ATOM      1  C   UNL     1       1.913   7.769  20.303  0.00  0.00    +0.000 C 
ATOM      2  C   UNL     1       1.073   6.481  20.395  0.00  0.00    +0.000 C 
ATOM      3  C   UNL     1       1.881   5.493  19.583  0.00  0.00    +0.000 C 
ATOM      4  C   UNL     1       3.002   4.904  20.432  0.00  0.00    +0.000 C 
ATOM      5  C   UNL     1       4.117   4.293  19.600  0.00  0.00    +0.000 C 
ATOM      6  N   UNL     1       4.583   5.026  18.428  0.00  0.00    +0.000 NA
ATOM      7  C   UNL     1       3.572   5.812  17.704  0.00  0.00    +0.000 C 
ATOM      8  C   UNL     1       2.438   6.412  18.523  0.00  0.00    +0.000 C 
ATOM      9  O   UNL     1       2.845   7.577  19.242  0.00  0.00    +0.000 OA
ENDROOT
BRANCH   6  10
ATOM     10  C   UNL     1       5.450   4.273  17.480  0.00  0.00    +0.000 C 
ATOM     11  C   UNL     1       4.984   4.325  16.017  0.00  0.00    +0.000 C 
ATOM     12  C   UNL     1       5.495   5.543  15.261  0.00  0.00    +0.000 C 
ATOM     13  O   UNL     1       6.914   5.656  15.347  0.00  0.00    +0.000 OA
ATOM     14  C   UNL     1       7.397   5.764  16.681  0.00  0.00    +0.000 C 
ATOM     15  C   UNL     1       6.966   4.574  17.527  0.00  0.00    +0.000 C 
ENDBRANCH   6  10
BRANCH   1  19
ATOM     16  C   UNL     1      -0.356  10.766  21.124  0.00  0.00    +0.000 C 
ATOM     17  N   UNL     1       0.540   9.642  21.322  0.00  0.00    +0.000 N 
ATOM     18  C   UNL     1       0.796   9.217  22.696  0.00  0.00    +0.000 C 
ATOM     19  C   UNL     1       1.006   9.010  20.174  0.00  0.00    +0.000 C 
ATOM     20  O   UNL     1       0.617   9.378  19.059  0.00  0.00    +0.000 OA
ENDBRANCH   1  19
TORSDOF 2
ENDMDL
MODEL 9
REMARK VINA RESULT:      -5.7      4.816      7.007
REMARK  Name = 
REMARK  4 active torsions:
REMARK  status: ('A' for Active; 'I' for Inactive)
REMARK    1  A    between atoms: C_1  and  N_2
REMARK    2  A    between atoms: N_2  and  C_3
REMARK    3  A    between atoms: C_4  and  C_6
REMARK    4  A    between atoms: N_11  and  C_12
REMARK                            x       y       z     vdW  Elec       q    Type
REMARK                         _______ _______ _______ _____ _____    ______ ____
ROOT
ATOM      1  C   UNL     1       0.675   9.651  18.501  0.00  0.00    +0.000 C 
ATOM      2  C   UNL     1       2.086   9.642  17.885  0.00  0.00    +0.000 C 
ATOM      3  C   UNL     1       2.666   8.338  18.389  0.00  0.00    +0.000 C 
ATOM      4  C   UNL     1       2.201   7.181  17.512  0.00  0.00    +0.000 C 
ATOM      5  C   UNL     1       2.330   5.830  18.197  0.00  0.00    +0.000 C 
ATOM      6  N   UNL     1       1.915   5.722  19.591  0.00  0.00    +0.000 NA
ATOM      7  C   UNL     1       2.127   6.911  20.429  0.00  0.00    +0.000 C 
ATOM      8  C   UNL     1       2.021   8.270  19.751  0.00  0.00    +0.000 C 
ATOM      9  O   UNL     1       0.666   8.658  19.523  0.00  0.00    +0.000 OA
ENDROOT
BRANCH   6  10
ATOM     10  C   UNL     1       2.330   4.485  20.308  0.00  0.00    +0.000 C 
ATOM     11  C   UNL     1       1.171   3.541  20.665  0.00  0.00    +0.000 C 
ATOM     12  C   UNL     1       0.809   2.575  19.546  0.00  0.00    +0.000 C 
ATOM     13  O   UNL     1       1.946   1.839  19.101  0.00  0.00    +0.000 OA
ATOM     14  C   UNL     1       3.001   2.659  18.614  0.00  0.00    +0.000 C 
ATOM     15  C   UNL     1       3.466   3.652  19.670  0.00  0.00    +0.000 C 
ENDBRANCH   6  10
BRANCH   1  19
ATOM     16  C   UNL     1      -1.295  12.898  19.118  0.00  0.00    +0.000 C 
ATOM     17  N   UNL     1      -1.014  11.532  18.722  0.00  0.00    +0.000 N 
ATOM     18  C   UNL     1      -2.073  10.795  18.036  0.00  0.00    +0.000 C 
ATOM     19  C   UNL     1       0.280  11.073  18.952  0.00  0.00    +0.000 C 
ATOM     20  O   UNL     1       1.135  11.831  19.422  0.00  0.00    +0.000 OA
ENDBRANCH   1  19
TORSDOF 2
ENDMDL
