MODEL 1
REMARK VINA RESULT:      -5.9      0.000      0.000
REMARK  Name = 
REMARK  12 active torsions:
REMARK  status: ('A' for Active; 'I' for Inactive)
REMARK    1  A    between atoms: C_1  and  C_2
REMARK    2  A    between atoms: C_2  and  N_3
REMARK    3  A    between atoms: N_3  and  C_4
REMARK    4  A    between atoms: C_5  and  C_7
REMARK    5  A    between atoms: C_7  and  C_8
REMARK    6  A    between atoms: C_8  and  N_9
REMARK    7  A    between atoms: N_9  and  C_10
REMARK    8  A    between atoms: N_9  and  C_17
REMARK    9  A    between atoms: C_10  and  C_11
REMARK   10  A    between atoms: N_14  and  C_15
REMARK   11  A    between atoms: C_17  and  C_18
REMARK   12  A    between atoms: C_17  and  C_19
REMARK                            x       y       z     vdW  Elec       q    Type
REMARK                         _______ _______ _______ _____ _____    ______ ____
ROOT
ATOM      1  N   UNL     1       3.057   5.606  19.288  0.00  0.00    +0.000 NA
ENDROOT
BRANCH   1   2
ATOM      2  C   UNL     1       2.266   4.352  19.142  0.00  0.00    +0.000 C 
ATOM      3  C   UNL     1       1.203   4.192  20.246  0.00  0.00    +0.000 C 
ATOM      4  C   UNL     1       1.507   4.266  17.803  0.00  0.00    +0.000 C 
ENDBRANCH   1   2
BRANCH   1   5
ATOM      5  C   UNL     1       4.488   5.344  19.604  0.00  0.00    +0.000 C 
BRANCH   5   6
ATOM      6  C   UNL     1       5.077   4.130  18.879  0.00  0.00    +0.000 C 
BRANCH   6   9
ATOM      7  N   UNL     1       6.052   4.529  16.644  0.00  0.00    +0.000 N 
ATOM      8  C   UNL     1       4.775   4.162  16.042  0.00  0.00    +0.000 C 
ATOM      9  C   UNL     1       6.290   4.457  18.025  0.00  0.00    +0.000 C 
ATOM     10  O   UNL     1       7.404   4.642  18.516  0.00  0.00    +0.000 OA
BRANCH   7  12
ATOM     11  C   UNL     1       6.753   4.712  14.271  0.00  0.00    +0.000 C 
ATOM     12  C   UNL     1       7.179   4.715  15.732  0.00  0.00    +0.000 C 
ENDBRANCH   7  12
ENDBRANCH   6   9
ENDBRANCH   5   6
ENDBRANCH   1   5
BRANCH   1  13
ATOM     13  C   UNL     1       2.865   6.574  18.182  0.00  0.00    +0.000 C 
BRANCH  13  14
ATOM     14  C   UNL     1       2.197   7.843  18.601  0.00  0.00    +0.000 A 
ATOM     15  C   UNL     1       1.939   8.998  17.821  0.00  0.00    +0.000 A 
ATOM     16  N   UNL     1       1.277   9.943  18.493  0.00  0.00    +0.000 NA
ATOM     17  N   UNL     1       1.099   9.395  19.706  0.00  0.00    +0.000 N 
ATOM     18  C   UNL     1       0.242  10.044  20.667  0.00  0.00    +0.000 C 
ATOM     19  C   UNL     1       1.708   8.185  19.848  0.00  0.00    +0.000 A 
ENDBRANCH  13  14
ENDBRANCH   1  13
TORSDOF 7
ENDMDL
MODEL 2
REMARK VINA RESULT:      -5.9      2.527      5.798
REMARK  Name = 
REMARK  12 active torsions:
REMARK  status: ('A' for Active; 'I' for Inactive)
REMARK    1  A    between atoms: C_1  and  C_2
REMARK    2  A    between atoms: C_2  and  N_3
REMARK    3  A    between atoms: N_3  and  C_4
REMARK    4  A    between atoms: C_5  and  C_7
REMARK    5  A    between atoms: C_7  and  C_8
REMARK    6  A    between atoms: C_8  and  N_9
REMARK    7  A    between atoms: N_9  and  C_10
REMARK    8  A    between atoms: N_9  and  C_17
REMARK    9  A    between atoms: C_10  and  C_11
REMARK   10  A    between atoms: N_14  and  C_15
REMARK   11  A    between atoms: C_17  and  C_18
REMARK   12  A    between atoms: C_17  and  C_19
REMARK                            x       y       z     vdW  Elec       q    Type
REMARK                         _______ _______ _______ _____ _____    ______ ____
ROOT
ATOM      1  N   UNL     1       3.762   5.353  18.055  0.00  0.00    +0.000 NA
ENDROOT
BRANCH   1   2
ATOM      2  C   UNL     1       2.501   6.064  18.409  0.00  0.00    +0.000 C 
ATOM      3  C   UNL     1       2.189   5.999  19.916  0.00  0.00    +0.000 C 
ATOM      4  C   UNL     1       2.526   7.561  18.042  0.00  0.00    +0.000 C 
ENDBRANCH   1   2
BRANCH   1   5
ATOM      5  C   UNL     1       3.540   4.253  17.077  0.00  0.00    +0.000 C 
BRANCH   5   6
ATOM      6  C   UNL     1       3.860   2.857  17.621  0.00  0.00    +0.000 C 
BRANCH   6   9
ATOM      7  N   UNL     1       2.821   2.449  19.825  0.00  0.00    +0.000 N 
ATOM      8  C   UNL     1       1.530   2.293  19.167  0.00  0.00    +0.000 C 
ATOM      9  C   UNL     1       3.989   2.805  19.134  0.00  0.00    +0.000 C 
ATOM     10  O   UNL     1       5.047   3.064  19.708  0.00  0.00    +0.000 OA
BRANCH   7  12
ATOM     11  C   UNL     1       1.424   2.743  21.854  0.00  0.00    +0.000 C 
ATOM     12  C   UNL     1       2.814   2.494  21.286  0.00  0.00    +0.000 C 
ENDBRANCH   7  12
ENDBRANCH   6   9
ENDBRANCH   5   6
ENDBRANCH   1   5
BRANCH   1  13
ATOM     13  C   UNL     1       4.881   6.254  17.687  0.00  0.00    +0.000 C 
BRANCH  13  14
ATOM     14  C   UNL     1       5.820   5.668  16.684  0.00  0.00    +0.000 A 
ATOM     15  C   UNL     1       7.077   5.055  16.913  0.00  0.00    +0.000 A 
ATOM     16  N   UNL     1       7.641   4.591  15.795  0.00  0.00    +0.000 NA
ATOM     17  N   UNL     1       6.743   4.895  14.844  0.00  0.00    +0.000 N 
ATOM     18  C   UNL     1       6.909   4.376  13.509  0.00  0.00    +0.000 C 
ATOM     19  C   UNL     1       5.686   5.618  15.309  0.00  0.00    +0.000 A 
ENDBRANCH  13  14
ENDBRANCH   1  13
TORSDOF 7
ENDMDL
MODEL 3
REMARK VINA RESULT:      -5.8      2.129      4.677
REMARK  Name = 
REMARK  12 active torsions:
REMARK  status: ('A' for Active; 'I' for Inactive)
REMARK    1  A    between atoms: C_1  and  C_2
REMARK    2  A    between atoms: C_2  and  N_3
REMARK    3  A    between atoms: N_3  and  C_4
REMARK    4  A    between atoms: C_5  and  C_7
REMARK    5  A    between atoms: C_7  and  C_8
REMARK    6  A    between atoms: C_8  and  N_9
REMARK    7  A    between atoms: N_9  and  C_10
REMARK    8  A    between atoms: N_9  and  C_17
REMARK    9  A    between atoms: C_10  and  C_11
REMARK   10  A    between atoms: N_14  and  C_15
REMARK   11  A    between atoms: C_17  and  C_18
REMARK   12  A    between atoms: C_17  and  C_19
REMARK                            x       y       z     vdW  Elec       q    Type
REMARK                         _______ _______ _______ _____ _____    ______ ____
ROOT
ATOM      1  N   UNL     1       5.160   5.291  16.621  0.00  0.00    +0.000 NA
ENDROOT
BRANCH   1   2
ATOM      2  C   UNL     1       6.574   5.246  16.155  0.00  0.00    +0.000 C 
ATOM      3  C   UNL     1       7.524   4.641  17.207  0.00  0.00    +0.000 C 
ATOM      4  C   UNL     1       6.766   4.409  14.875  0.00  0.00    +0.000 C 
ENDBRANCH   1   2
BRANCH   1   5
ATOM      5  C   UNL     1       4.394   4.074  16.234  0.00  0.00    +0.000 C 
BRANCH   5   6
ATOM      6  C   UNL     1       4.288   3.021  17.342  0.00  0.00    +0.000 C 
BRANCH   6   9
ATOM      7  N   UNL     1       2.857   2.652  19.323  0.00  0.00    +0.000 N 
ATOM      8  C   UNL     1       4.052   2.361  20.107  0.00  0.00    +0.000 C 
ATOM      9  C   UNL     1       2.897   2.905  17.943  0.00  0.00    +0.000 C 
ATOM     10  O   UNL     1       1.880   3.020  17.261  0.00  0.00    +0.000 OA
BRANCH   7  12
ATOM     11  C   UNL     1       1.256   3.412  21.059  0.00  0.00    +0.000 C 
ATOM     12  C   UNL     1       1.570   2.400  19.967  0.00  0.00    +0.000 C 
ENDBRANCH   7  12
ENDBRANCH   6   9
ENDBRANCH   5   6
ENDBRANCH   1   5
BRANCH   1  13
ATOM     13  C   UNL     1       5.004   5.656  18.049  0.00  0.00    +0.000 C 
BRANCH  13  14
ATOM     14  C   UNL     1       3.834   6.543  18.320  0.00  0.00    +0.000 A 
ATOM     15  C   UNL     1       2.926   6.490  19.407  0.00  0.00    +0.000 A 
ATOM     16  N   UNL     1       2.016   7.467  19.373  0.00  0.00    +0.000 NA
ATOM     17  N   UNL     1       2.342   8.157  18.269  0.00  0.00    +0.000 N 
ATOM     18  C   UNL     1       1.698   9.419  17.996  0.00  0.00    +0.000 C 
ATOM     19  C   UNL     1       3.358   7.594  17.558  0.00  0.00    +0.000 A 
ENDBRANCH  13  14
ENDBRANCH   1  13
TORSDOF 7
ENDMDL
MODEL 4
REMARK VINA RESULT:      -5.7      2.028      6.209
REMARK  Name = 
REMARK  12 active torsions:
REMARK  status: ('A' for Active; 'I' for Inactive)
REMARK    1  A    between atoms: C_1  and  C_2
REMARK    2  A    between atoms: C_2  and  N_3
REMARK    3  A    between atoms: N_3  and  C_4
REMARK    4  A    between atoms: C_5  and  C_7
REMARK    5  A    between atoms: C_7  and  C_8
REMARK    6  A    between atoms: C_8  and  N_9
REMARK    7  A    between atoms: N_9  and  C_10
REMARK    8  A    between atoms: N_9  and  C_17
REMARK    9  A    between atoms: C_10  and  C_11
REMARK   10  A    between atoms: N_14  and  C_15
REMARK   11  A    between atoms: C_17  and  C_18
REMARK   12  A    between atoms: C_17  and  C_19
REMARK                            x       y       z     vdW  Elec       q    Type
REMARK                         _______ _______ _______ _____ _____    ______ ____
ROOT
ATOM      1  N   UNL     1       2.500   4.275  19.206  0.00  0.00    +0.000 NA
ENDROOT
BRANCH   1   2
ATOM      2  C   UNL     1       1.229   3.607  19.604  0.00  0.00    +0.000 C 
ATOM      3  C   UNL     1       0.909   2.378  18.732  0.00  0.00    +0.000 C 
ATOM      4  C   UNL     1       1.239   3.106  21.062  0.00  0.00    +0.000 C 
ENDBRANCH   1   2
BRANCH   1   5
ATOM      5  C   UNL     1       2.803   5.470  20.042  0.00  0.00    +0.000 C 
BRANCH   5   6
ATOM      6  C   UNL     1       2.719   6.800  19.287  0.00  0.00    +0.000 C 
BRANCH   6   9
ATOM      7  N   UNL     1       1.443   8.910  19.128  0.00  0.00    +0.000 N 
ATOM      8  C   UNL     1       2.067   9.168  17.835  0.00  0.00    +0.000 C 
ATOM      9  C   UNL     1       1.778   7.808  19.928  0.00  0.00    +0.000 C 
ATOM     10  O   UNL     1       1.347   7.663  21.072  0.00  0.00    +0.000 OA
BRANCH   7  12
ATOM     11  C   UNL     1      -0.435  10.487  18.749  0.00  0.00    +0.000 C 
ATOM     12  C   UNL     1       0.645   9.993  19.701  0.00  0.00    +0.000 C 
ENDBRANCH   7  12
ENDBRANCH   6   9
ENDBRANCH   5   6
ENDBRANCH   1   5
BRANCH   1  13
ATOM     13  C   UNL     1       3.650   3.350  19.061  0.00  0.00    +0.000 C 
BRANCH  13  14
ATOM     14  C   UNL     1       4.677   3.815  18.081  0.00  0.00    +0.000 A 
ATOM     15  C   UNL     1       5.925   4.433  18.345  0.00  0.00    +0.000 A 
ATOM     16  N   UNL     1       6.628   4.679  17.236  0.00  0.00    +0.000 NA
ATOM     17  N   UNL     1       5.838   4.213  16.257  0.00  0.00    +0.000 N 
ATOM     18  C   UNL     1       6.343   4.124  14.909  0.00  0.00    +0.000 C 
ATOM     19  C   UNL     1       4.627   3.773  16.700  0.00  0.00    +0.000 A 
ENDBRANCH  13  14
ENDBRANCH   1  13
TORSDOF 7
ENDMDL
MODEL 5
REMARK VINA RESULT:      -5.7      1.739      2.379
REMARK  Name = 
REMARK  12 active torsions:
REMARK  status: ('A' for Active; 'I' for Inactive)
REMARK    1  A    between atoms: C_1  and  C_2
REMARK    2  A    between atoms: C_2  and  N_3
REMARK    3  A    between atoms: N_3  and  C_4
REMARK    4  A    between atoms: C_5  and  C_7
REMARK    5  A    between atoms: C_7  and  C_8
REMARK    6  A    between atoms: C_8  and  N_9
REMARK    7  A    between atoms: N_9  and  C_10
REMARK    8  A    between atoms: N_9  and  C_17
REMARK    9  A    between atoms: C_10  and  C_11
REMARK   10  A    between atoms: N_14  and  C_15
REMARK   11  A    between atoms: C_17  and  C_18
REMARK   12  A    between atoms: C_17  and  C_19
REMARK                            x       y       z     vdW  Elec       q    Type
REMARK                         _______ _______ _______ _____ _____    ______ ____
ROOT
ATOM      1  N   UNL     1       2.974   4.438  19.044  0.00  0.00    +0.000 NA
ENDROOT
BRANCH   1   2
ATOM      2  C   UNL     1       1.907   3.417  18.849  0.00  0.00    +0.000 C 
ATOM      3  C   UNL     1       2.286   2.360  17.793  0.00  0.00    +0.000 C 
ATOM      4  C   UNL     1       1.573   2.635  20.135  0.00  0.00    +0.000 C 
ENDBRANCH   1   2
BRANCH   1   5
ATOM      5  C   UNL     1       4.302   3.827  19.330  0.00  0.00    +0.000 C 
BRANCH   5   6
ATOM      6  C   UNL     1       5.391   4.190  18.316  0.00  0.00    +0.000 C 
BRANCH   6   9
ATOM      7  N   UNL     1       6.890   6.111  17.901  0.00  0.00    +0.000 N 
ATOM      8  C   UNL     1       6.570   6.028  16.480  0.00  0.00    +0.000 C 
ATOM      9  C   UNL     1       6.407   5.190  18.843  0.00  0.00    +0.000 C 
ATOM     10  O   UNL     1       6.782   5.183  20.015  0.00  0.00    +0.000 OA
BRANCH   7  12
ATOM     11  C   UNL     1       7.804   8.403  17.646  0.00  0.00    +0.000 C 
ATOM     12  C   UNL     1       7.961   7.029  18.282  0.00  0.00    +0.000 C 
ENDBRANCH   7  12
ENDBRANCH   6   9
ENDBRANCH   5   6
ENDBRANCH   1   5
BRANCH   1  13
ATOM     13  C   UNL     1       3.019   5.476  17.986  0.00  0.00    +0.000 C 
BRANCH  13  14
ATOM     14  C   UNL     1       2.496   6.804  18.425  0.00  0.00    +0.000 A 
ATOM     15  C   UNL     1       2.127   7.215  19.730  0.00  0.00    +0.000 A 
ATOM     16  N   UNL     1       1.743   8.492  19.785  0.00  0.00    +0.000 NA
ATOM     17  N   UNL     1       1.873   8.911  18.516  0.00  0.00    +0.000 N 
ATOM     18  C   UNL     1       1.735  10.313  18.206  0.00  0.00    +0.000 C 
ATOM     19  C   UNL     1       2.230   7.920  17.652  0.00  0.00    +0.000 A 
ENDBRANCH  13  14
ENDBRANCH   1  13
TORSDOF 7
ENDMDL
MODEL 6
REMARK VINA RESULT:      -5.7      3.183      6.996
REMARK  Name = 
REMARK  12 active torsions:
REMARK  status: ('A' for Active; 'I' for Inactive)
REMARK    1  A    between atoms: C_1  and  C_2
REMARK    2  A    between atoms: C_2  and  N_3
REMARK    3  A    between atoms: N_3  and  C_4
REMARK    4  A    between atoms: C_5  and  C_7
REMARK    5  A    between atoms: C_7  and  C_8
REMARK    6  A    between atoms: C_8  and  N_9
REMARK    7  A    between atoms: N_9  and  C_10
REMARK    8  A    between atoms: N_9  and  C_17
REMARK    9  A    between atoms: C_10  and  C_11
REMARK   10  A    between atoms: N_14  and  C_15
REMARK   11  A    between atoms: C_17  and  C_18
REMARK   12  A    between atoms: C_17  and  C_19
REMARK                            x       y       z     vdW  Elec       q    Type
REMARK                         _______ _______ _______ _____ _____    ______ ____
ROOT
ATOM      1  N   UNL     1       6.233   4.872  16.863  0.00  0.00    +0.000 NA
ENDROOT
BRANCH   1   2
ATOM      2  C   UNL     1       7.341   5.743  17.346  0.00  0.00    +0.000 C 
ATOM      3  C   UNL     1       7.028   7.243  17.183  0.00  0.00    +0.000 C 
ATOM      4  C   UNL     1       7.670   5.535  18.838  0.00  0.00    +0.000 C 
ENDBRANCH   1   2
BRANCH   1   5
ATOM      5  C   UNL     1       5.317   4.455  17.960  0.00  0.00    +0.000 C 
BRANCH   5   6
ATOM      6  C   UNL     1       3.839   4.757  17.692  0.00  0.00    +0.000 C 
BRANCH   6   9
ATOM      7  N   UNL     1       2.089   3.852  19.184  0.00  0.00    +0.000 N 
ATOM      8  C   UNL     1       1.834   2.795  18.212  0.00  0.00    +0.000 C 
ATOM      9  C   UNL     1       3.003   4.891  18.954  0.00  0.00    +0.000 C 
ATOM     10  O   UNL     1       3.122   5.851  19.716  0.00  0.00    +0.000 OA
BRANCH   7  12
ATOM     11  C   UNL     1       1.463   2.957  21.412  0.00  0.00    +0.000 C 
ATOM     12  C   UNL     1       1.156   3.955  20.304  0.00  0.00    +0.000 C 
ENDBRANCH   7  12
ENDBRANCH   6   9
ENDBRANCH   5   6
ENDBRANCH   1   5
BRANCH   1  13
ATOM     13  C   UNL     1       5.524   5.400  15.672  0.00  0.00    +0.000 C 
BRANCH  13  14
ATOM     14  C   UNL     1       5.934   4.750  14.391  0.00  0.00    +0.000 A 
ATOM     15  C   UNL     1       7.152   4.899  13.683  0.00  0.00    +0.000 A 
ATOM     16  N   UNL     1       7.215   4.133  12.591  0.00  0.00    +0.000 NA
ATOM     17  N   UNL     1       6.041   3.483  12.598  0.00  0.00    +0.000 N 
ATOM     18  C   UNL     1       5.813   2.404  11.668  0.00  0.00    +0.000 C 
ATOM     19  C   UNL     1       5.207   3.883  13.598  0.00  0.00    +0.000 A 
ENDBRANCH  13  14
ENDBRANCH   1  13
TORSDOF 7
ENDMDL
MODEL 7
REMARK VINA RESULT:      -5.6      3.031      6.972
REMARK  Name = 
REMARK  12 active torsions:
REMARK  status: ('A' for Active; 'I' for Inactive)
REMARK    1  A    between atoms: C_1  and  C_2
REMARK    2  A    between atoms: C_2  and  N_3
REMARK    3  A    between atoms: N_3  and  C_4
REMARK    4  A    between atoms: C_5  and  C_7
REMARK    5  A    between atoms: C_7  and  C_8
REMARK    6  A    between atoms: C_8  and  N_9
REMARK    7  A    between atoms: N_9  and  C_10
REMARK    8  A    between atoms: N_9  and  C_17
REMARK    9  A    between atoms: C_10  and  C_11
REMARK   10  A    between atoms: N_14  and  C_15
REMARK   11  A    between atoms: C_17  and  C_18
REMARK   12  A    between atoms: C_17  and  C_19
REMARK                            x       y       z     vdW  Elec       q    Type
REMARK                         _______ _______ _______ _____ _____    ______ ____
ROOT
ATOM      1  N   UNL     1       5.886   4.837  17.088  0.00  0.00    +0.000 NA
ENDROOT
BRANCH   1   2
ATOM      2  C   UNL     1       6.660   5.710  18.014  0.00  0.00    +0.000 C 
ATOM      3  C   UNL     1       7.947   5.036  18.525  0.00  0.00    +0.000 C 
ATOM      4  C   UNL     1       7.100   7.039  17.369  0.00  0.00    +0.000 C 
ENDBRANCH   1   2
BRANCH   1   5
ATOM      5  C   UNL     1       4.810   4.079  17.784  0.00  0.00    +0.000 C 
BRANCH   5   6
ATOM      6  C   UNL     1       3.396   4.602  17.508  0.00  0.00    +0.000 C 
BRANCH   6   9
ATOM      7  N   UNL     1       1.773   4.336  19.351  0.00  0.00    +0.000 N 
ATOM      8  C   UNL     1       2.331   5.523  19.989  0.00  0.00    +0.000 C 
ATOM      9  C   UNL     1       2.302   3.786  18.174  0.00  0.00    +0.000 C 
ATOM     10  O   UNL     1       1.913   2.713  17.711  0.00  0.00    +0.000 OA
BRANCH   7  12
ATOM     11  C   UNL     1       1.452   2.820  21.289  0.00  0.00    +0.000 C 
ATOM     12  C   UNL     1       0.806   3.565  20.130  0.00  0.00    +0.000 C 
ENDBRANCH   7  12
ENDBRANCH   6   9
ENDBRANCH   5   6
ENDBRANCH   1   5
BRANCH   1  13
ATOM     13  C   UNL     1       5.424   5.521  15.856  0.00  0.00    +0.000 C 
BRANCH  13  14
ATOM     14  C   UNL     1       5.886   4.868  14.595  0.00  0.00    +0.000 A 
ATOM     15  C   UNL     1       7.152   4.972  13.966  0.00  0.00    +0.000 A 
ATOM     16  N   UNL     1       7.252   4.217  12.870  0.00  0.00    +0.000 NA
ATOM     17  N   UNL     1       6.054   3.617  12.795  0.00  0.00    +0.000 N 
ATOM     18  C   UNL     1       5.839   2.559  11.838  0.00  0.00    +0.000 C 
ATOM     19  C   UNL     1       5.175   4.042  13.745  0.00  0.00    +0.000 A 
ENDBRANCH  13  14
ENDBRANCH   1  13
TORSDOF 7
ENDMDL
MODEL 8
REMARK VINA RESULT:      -5.6      1.869      6.480
REMARK  Name = 
REMARK  12 active torsions:
REMARK  status: ('A' for Active; 'I' for Inactive)
REMARK    1  A    between atoms: C_1  and  C_2
REMARK    2  A    between atoms: C_2  and  N_3
REMARK    3  A    between atoms: N_3  and  C_4
REMARK    4  A    between atoms: C_5  and  C_7
REMARK    5  A    between atoms: C_7  and  C_8
REMARK    6  A    between atoms: C_8  and  N_9
REMARK    7  A    between atoms: N_9  and  C_10
REMARK    8  A    between atoms: N_9  and  C_17
REMARK    9  A    between atoms: C_10  and  C_11
REMARK   10  A    between atoms: N_14  and  C_15
REMARK   11  A    between atoms: C_17  and  C_18
REMARK   12  A    between atoms: C_17  and  C_19
REMARK                            x       y       z     vdW  Elec       q    Type
REMARK                         _______ _______ _______ _____ _____    ______ ____
ROOT
ATOM      1  N   UNL     1       3.809   4.587  18.604  0.00  0.00    +0.000 NA
ENDROOT
BRANCH   1   2
ATOM      2  C   UNL     1       2.698   3.643  18.914  0.00  0.00    +0.000 C 
ATOM      3  C   UNL     1       2.319   2.760  17.710  0.00  0.00    +0.000 C 
ATOM      4  C   UNL     1       3.030   2.674  20.066  0.00  0.00    +0.000 C 
ENDBRANCH   1   2
BRANCH   1   5
ATOM      5  C   UNL     1       3.799   5.787  19.484  0.00  0.00    +0.000 C 
BRANCH   5   6
ATOM      6  C   UNL     1       2.400   6.348  19.764  0.00  0.00    +0.000 C 
BRANCH   6   9
ATOM      7  N   UNL     1       1.480   8.639  19.859  0.00  0.00    +0.000 N 
ATOM      8  C   UNL     1       0.964   8.356  21.194  0.00  0.00    +0.000 C 
ATOM      9  C   UNL     1       2.124   7.672  19.072  0.00  0.00    +0.000 C 
ATOM     10  O   UNL     1       2.441   7.875  17.901  0.00  0.00    +0.000 OA
BRANCH   7  12
ATOM     11  C   UNL     1      -0.394  10.235  19.544  0.00  0.00    +0.000 C 
ATOM     12  C   UNL     1       1.060   9.897  19.246  0.00  0.00    +0.000 C 
ENDBRANCH   7  12
ENDBRANCH   6   9
ENDBRANCH   5   6
ENDBRANCH   1   5
BRANCH   1  13
ATOM     13  C   UNL     1       5.139   3.942  18.501  0.00  0.00    +0.000 C 
BRANCH  13  14
ATOM     14  C   UNL     1       5.832   4.193  17.202  0.00  0.00    +0.000 A 
ATOM     15  C   UNL     1       7.154   4.655  16.987  0.00  0.00    +0.000 A 
ATOM     16  N   UNL     1       7.477   4.725  15.694  0.00  0.00    +0.000 NA
ATOM     17  N   UNL     1       6.367   4.300  15.072  0.00  0.00    +0.000 N 
ATOM     18  C   UNL     1       6.391   4.048  13.652  0.00  0.00    +0.000 C 
ATOM     19  C   UNL     1       5.329   4.060  15.921  0.00  0.00    +0.000 A 
ENDBRANCH  13  14
ENDBRANCH   1  13
TORSDOF 7
ENDMDL
MODEL 9
REMARK VINA RESULT:      -5.6      1.905      6.344
REMARK  Name = 
REMARK  12 active torsions:
REMARK  status: ('A' for Active; 'I' for Inactive)
REMARK    1  A    between atoms: C_1  and  C_2
REMARK    2  A    between atoms: C_2  and  N_3
REMARK    3  A    between atoms: N_3  and  C_4
REMARK    4  A    between atoms: C_5  and  C_7
REMARK    5  A    between atoms: C_7  and  C_8
REMARK    6  A    between atoms: C_8  and  N_9
REMARK    7  A    between atoms: N_9  and  C_10
REMARK    8  A    between atoms: N_9  and  C_17
REMARK    9  A    between atoms: C_10  and  C_11
REMARK   10  A    between atoms: N_14  and  C_15
REMARK   11  A    between atoms: C_17  and  C_18
REMARK   12  A    between atoms: C_17  and  C_19
REMARK                            x       y       z     vdW  Elec       q    Type
REMARK                         _______ _______ _______ _____ _____    ______ ____
ROOT
ATOM      1  N   UNL     1       3.142   4.516  18.384  0.00  0.00    +0.000 NA
ENDROOT
BRANCH   1   2
ATOM      2  C   UNL     1       2.537   3.487  19.275  0.00  0.00    +0.000 C 
ATOM      3  C   UNL     1       2.339   3.995  20.716  0.00  0.00    +0.000 C 
ATOM      4  C   UNL     1       1.151   3.010  18.797  0.00  0.00    +0.000 C 
ENDBRANCH   1   2
BRANCH   1   5
ATOM      5  C   UNL     1       2.287   5.727  18.249  0.00  0.00    +0.000 C 
BRANCH   5   6
ATOM      6  C   UNL     1       2.920   7.006  18.806  0.00  0.00    +0.000 C 
BRANCH   6   9
ATOM      7  N   UNL     1       1.448   8.852  19.536  0.00  0.00    +0.000 N 
ATOM      8  C   UNL     1       1.336   8.219  20.845  0.00  0.00    +0.000 C 
ATOM      9  C   UNL     1       2.145   8.269  18.467  0.00  0.00    +0.000 C 
ATOM     10  O   UNL     1       2.129   8.739  17.329  0.00  0.00    +0.000 OA
BRANCH   7  12
ATOM     11  C   UNL     1       0.973  11.224  20.088  0.00  0.00    +0.000 C 
ATOM     12  C   UNL     1       0.575   9.996  19.281  0.00  0.00    +0.000 C 
ENDBRANCH   7  12
ENDBRANCH   6   9
ENDBRANCH   5   6
ENDBRANCH   1   5
BRANCH   1  13
ATOM     13  C   UNL     1       4.559   4.825  18.694  0.00  0.00    +0.000 C 
BRANCH  13  14
ATOM     14  C   UNL     1       5.469   4.723  17.514  0.00  0.00    +0.000 A 
ATOM     15  C   UNL     1       6.885   4.789  17.490  0.00  0.00    +0.000 A 
ATOM     16  N   UNL     1       7.393   4.612  16.268  0.00  0.00    +0.000 NA
ATOM     17  N   UNL     1       6.306   4.423  15.503  0.00  0.00    +0.000 N 
ATOM     18  C   UNL     1       6.458   4.001  14.132  0.00  0.00    +0.000 C 
ATOM     19  C   UNL     1       5.134   4.572  16.181  0.00  0.00    +0.000 A 
ENDBRANCH  13  14
ENDBRANCH   1  13
TORSDOF 7
ENDMDL
