MODEL 1
REMARK VINA RESULT:      -7.4      0.000      0.000
REMARK  Name = 
REMARK  2 active torsions:
REMARK  status: ('A' for Active; 'I' for Inactive)
REMARK    1  A    between atoms: C_4  and  C_5
REMARK    2  A    between atoms: C_13  and  O_14
REMARK                            x       y       z     vdW  Elec       q    Type
REMARK                         _______ _______ _______ _____ _____    ______ ____
ROOT
ATOM      1  O   UNL     1       3.950   7.340  17.765  0.00  0.00    +0.000 OA
ATOM      2  C   UNL     1       4.167   6.183  17.412  0.00  0.00    +0.000 A 
ATOM      3  C   UNL     1       4.932   5.953  16.172  0.00  0.00    +0.000 A 
ATOM      4  C   UNL     1       5.193   4.693  15.810  0.00  0.00    +0.000 A 
ATOM      5  N   UNL     1       4.828   3.588  16.533  0.00  0.00    +0.000 NA
ATOM      6  C   UNL     1       4.119   3.795  17.606  0.00  0.00    +0.000 A 
ATOM      7  C   UNL     1       3.676   2.601  18.406  0.00  0.00    +0.000 A 
ATOM      8  C   UNL     1       2.878   2.776  19.464  0.00  0.00    +0.000 A 
ATOM      9  C   UNL     1       2.475   4.100  19.865  0.00  0.00    +0.000 A 
ATOM     10  C   UNL     1       2.923   5.169  19.194  0.00  0.00    +0.000 A 
ATOM     11  N   UNL     1       3.739   5.044  18.072  0.00  0.00    +0.000 N 
ENDROOT
BRANCH   4  12
ATOM     12  C   UNL     1       5.890   4.467  14.533  0.00  0.00    +0.000 A 
ATOM     13  C   UNL     1       5.345   3.621  13.561  0.00  0.00    +0.000 A 
ATOM     14  C   UNL     1       5.988   3.454  12.332  0.00  0.00    +0.000 A 
ATOM     15  C   UNL     1       7.184   4.123  12.072  0.00  0.00    +0.000 A 
ATOM     16  C   UNL     1       7.747   4.948  13.045  0.00  0.00    +0.000 A 
ATOM     17  C   UNL     1       7.102   5.120  14.272  0.00  0.00    +0.000 A 
ENDBRANCH   4  12
BRANCH   7  18
ATOM     18  O   UNL     1       4.114   1.350  18.020  0.00  0.00    +0.000 OA
ATOM     19  H   UNL     1       3.774   1.242  17.106  0.00  0.00    +0.000 HD
ENDBRANCH   7  18
TORSDOF 2
ENDMDL
MODEL 2
REMARK VINA RESULT:      -7.4      1.644      2.076
REMARK  Name = 
REMARK  2 active torsions:
REMARK  status: ('A' for Active; 'I' for Inactive)
REMARK    1  A    between atoms: C_4  and  C_5
REMARK    2  A    between atoms: C_13  and  O_14
REMARK                            x       y       z     vdW  Elec       q    Type
REMARK                         _______ _______ _______ _____ _____    ______ ____
ROOT
ATOM      1  O   UNL     1       7.162   5.046  19.131  0.00  0.00    +0.000 OA
ATOM      2  C   UNL     1       6.330   4.783  18.266  0.00  0.00    +0.000 A 
ATOM      3  C   UNL     1       6.773   4.685  16.863  0.00  0.00    +0.000 A 
ATOM      4  C   UNL     1       5.869   4.366  15.931  0.00  0.00    +0.000 A 
ATOM      5  N   UNL     1       4.554   4.086  16.191  0.00  0.00    +0.000 NA
ATOM      6  C   UNL     1       4.159   4.212  17.427  0.00  0.00    +0.000 A 
ATOM      7  C   UNL     1       2.714   3.942  17.741  0.00  0.00    +0.000 A 
ATOM      8  C   UNL     1       2.260   4.144  18.982  0.00  0.00    +0.000 A 
ATOM      9  C   UNL     1       3.154   4.578  20.026  0.00  0.00    +0.000 A 
ATOM     10  C   UNL     1       4.456   4.755  19.762  0.00  0.00    +0.000 A 
ATOM     11  N   UNL     1       4.978   4.580  18.483  0.00  0.00    +0.000 N 
ENDROOT
BRANCH   4  12
ATOM     12  C   UNL     1       6.301   4.345  14.524  0.00  0.00    +0.000 A 
ATOM     13  C   UNL     1       7.366   5.143  14.090  0.00  0.00    +0.000 A 
ATOM     14  C   UNL     1       7.801   5.077  12.765  0.00  0.00    +0.000 A 
ATOM     15  C   UNL     1       7.169   4.221  11.863  0.00  0.00    +0.000 A 
ATOM     16  C   UNL     1       6.090   3.442  12.280  0.00  0.00    +0.000 A 
ATOM     17  C   UNL     1       5.658   3.503  13.606  0.00  0.00    +0.000 A 
ENDBRANCH   4  12
BRANCH   7  18
ATOM     18  O   UNL     1       1.893   3.487  16.729  0.00  0.00    +0.000 OA
ATOM     19  H   UNL     1       1.685   2.561  16.978  0.00  0.00    +0.000 HD
ENDBRANCH   7  18
TORSDOF 2
ENDMDL
MODEL 3
REMARK VINA RESULT:      -7.3      2.710      6.412
REMARK  Name = 
REMARK  2 active torsions:
REMARK  status: ('A' for Active; 'I' for Inactive)
REMARK    1  A    between atoms: C_4  and  C_5
REMARK    2  A    between atoms: C_13  and  O_14
REMARK                            x       y       z     vdW  Elec       q    Type
REMARK                         _______ _______ _______ _____ _____    ______ ____
ROOT
ATOM      1  O   UNL     1       2.595   3.211  17.402  0.00  0.00    +0.000 OA
ATOM      2  C   UNL     1       3.126   4.319  17.444  0.00  0.00    +0.000 A 
ATOM      3  C   UNL     1       2.395   5.431  18.082  0.00  0.00    +0.000 A 
ATOM      4  C   UNL     1       2.991   6.625  18.152  0.00  0.00    +0.000 A 
ATOM      5  N   UNL     1       4.258   6.888  17.702  0.00  0.00    +0.000 NA
ATOM      6  C   UNL     1       4.883   5.913  17.104  0.00  0.00    +0.000 A 
ATOM      7  C   UNL     1       6.263   6.177  16.571  0.00  0.00    +0.000 A 
ATOM      8  C   UNL     1       6.896   5.223  15.880  0.00  0.00    +0.000 A 
ATOM      9  C   UNL     1       6.282   3.935  15.680  0.00  0.00    +0.000 A 
ATOM     10  C   UNL     1       5.080   3.676  16.212  0.00  0.00    +0.000 A 
ATOM     11  N   UNL     1       4.367   4.639  16.922  0.00  0.00    +0.000 N 
ENDROOT
BRANCH   4  12
ATOM     12  C   UNL     1       2.228   7.748  18.721  0.00  0.00    +0.000 A 
ATOM     13  C   UNL     1       1.824   8.819  17.915  0.00  0.00    +0.000 A 
ATOM     14  C   UNL     1       1.056   9.854  18.453  0.00  0.00    +0.000 A 
ATOM     15  C   UNL     1       0.697   9.832  19.800  0.00  0.00    +0.000 A 
ATOM     16  C   UNL     1       1.117   8.782  20.616  0.00  0.00    +0.000 A 
ATOM     17  C   UNL     1       1.880   7.744  20.078  0.00  0.00    +0.000 A 
ENDBRANCH   4  12
BRANCH   7  18
ATOM     18  O   UNL     1       6.841   7.406  16.816  0.00  0.00    +0.000 OA
ATOM     19  H   UNL     1       6.191   8.056  16.472  0.00  0.00    +0.000 HD
ENDBRANCH   7  18
TORSDOF 2
ENDMDL
MODEL 4
REMARK VINA RESULT:      -7.3      0.288      1.173
REMARK  Name = 
REMARK  2 active torsions:
REMARK  status: ('A' for Active; 'I' for Inactive)
REMARK    1  A    between atoms: C_4  and  C_5
REMARK    2  A    between atoms: C_13  and  O_14
REMARK                            x       y       z     vdW  Elec       q    Type
REMARK                         _______ _______ _______ _____ _____    ______ ____
ROOT
ATOM      1  O   UNL     1       4.380   7.455  17.699  0.00  0.00    +0.000 OA
ATOM      2  C   UNL     1       4.496   6.289  17.331  0.00  0.00    +0.000 A 
ATOM      3  C   UNL     1       5.169   6.015  16.047  0.00  0.00    +0.000 A 
ATOM      4  C   UNL     1       5.320   4.742  15.667  0.00  0.00    +0.000 A 
ATOM      5  N   UNL     1       4.923   3.660  16.407  0.00  0.00    +0.000 NA
ATOM      6  C   UNL     1       4.294   3.908  17.521  0.00  0.00    +0.000 A 
ATOM      7  C   UNL     1       3.817   2.743  18.342  0.00  0.00    +0.000 A 
ATOM      8  C   UNL     1       3.096   2.965  19.445  0.00  0.00    +0.000 A 
ATOM      9  C   UNL     1       2.810   4.311  19.874  0.00  0.00    +0.000 A 
ATOM     10  C   UNL     1       3.291   5.351  19.180  0.00  0.00    +0.000 A 
ATOM     11  N   UNL     1       4.029   5.177  18.011  0.00  0.00    +0.000 N 
ENDROOT
BRANCH   4  12
ATOM     12  C   UNL     1       5.924   4.478  14.351  0.00  0.00    +0.000 A 
ATOM     13  C   UNL     1       7.135   5.079  13.986  0.00  0.00    +0.000 A 
ATOM     14  C   UNL     1       7.726   4.782  12.756  0.00  0.00    +0.000 A 
ATOM     15  C   UNL     1       7.106   3.891  11.879  0.00  0.00    +0.000 A 
ATOM     16  C   UNL     1       5.887   3.309  12.224  0.00  0.00    +0.000 A 
ATOM     17  C   UNL     1       5.298   3.601  13.456  0.00  0.00    +0.000 A 
ENDBRANCH   4  12
BRANCH   7  18
ATOM     18  O   UNL     1       4.143   1.467  17.927  0.00  0.00    +0.000 OA
ATOM     19  H   UNL     1       4.805   1.158  18.582  0.00  0.00    +0.000 HD
ENDBRANCH   7  18
TORSDOF 2
ENDMDL
MODEL 5
REMARK VINA RESULT:      -7.3      2.706      6.411
REMARK  Name = 
REMARK  2 active torsions:
REMARK  status: ('A' for Active; 'I' for Inactive)
REMARK    1  A    between atoms: C_4  and  C_5
REMARK    2  A    between atoms: C_13  and  O_14
REMARK                            x       y       z     vdW  Elec       q    Type
REMARK                         _______ _______ _______ _____ _____    ______ ____
ROOT
ATOM      1  O   UNL     1       2.620   3.197  17.401  0.00  0.00    +0.000 OA
ATOM      2  C   UNL     1       3.140   4.309  17.446  0.00  0.00    +0.000 A 
ATOM      3  C   UNL     1       2.398   5.413  18.084  0.00  0.00    +0.000 A 
ATOM      4  C   UNL     1       2.981   6.613  18.159  0.00  0.00    +0.000 A 
ATOM      5  N   UNL     1       4.247   6.888  17.712  0.00  0.00    +0.000 NA
ATOM      6  C   UNL     1       4.883   5.920  17.114  0.00  0.00    +0.000 A 
ATOM      7  C   UNL     1       6.262   6.198  16.584  0.00  0.00    +0.000 A 
ATOM      8  C   UNL     1       6.905   5.252  15.893  0.00  0.00    +0.000 A 
ATOM      9  C   UNL     1       6.303   3.958  15.689  0.00  0.00    +0.000 A 
ATOM     10  C   UNL     1       5.103   3.687  16.217  0.00  0.00    +0.000 A 
ATOM     11  N   UNL     1       4.379   4.642  16.927  0.00  0.00    +0.000 N 
ENDROOT
BRANCH   4  12
ATOM     12  C   UNL     1       2.207   7.727  18.728  0.00  0.00    +0.000 A 
ATOM     13  C   UNL     1       1.847   7.731  20.081  0.00  0.00    +0.000 A 
ATOM     14  C   UNL     1       1.157   8.817  20.623  0.00  0.00    +0.000 A 
ATOM     15  C   UNL     1       0.813   9.901  19.815  0.00  0.00    +0.000 A 
ATOM     16  C   UNL     1       1.144   9.894  18.461  0.00  0.00    +0.000 A 
ATOM     17  C   UNL     1       1.839   8.811  17.919  0.00  0.00    +0.000 A 
ENDBRANCH   4  12
BRANCH   7  18
ATOM     18  O   UNL     1       6.827   7.432  16.833  0.00  0.00    +0.000 OA
ATOM     19  H   UNL     1       6.419   7.725  17.675  0.00  0.00    +0.000 HD
ENDBRANCH   7  18
TORSDOF 2
ENDMDL
MODEL 6
REMARK VINA RESULT:      -7.3      1.590      1.671
REMARK  Name = 
REMARK  2 active torsions:
REMARK  status: ('A' for Active; 'I' for Inactive)
REMARK    1  A    between atoms: C_4  and  C_5
REMARK    2  A    between atoms: C_13  and  O_14
REMARK                            x       y       z     vdW  Elec       q    Type
REMARK                         _______ _______ _______ _____ _____    ______ ____
ROOT
ATOM      1  O   UNL     1       7.092   5.447  19.102  0.00  0.00    +0.000 OA
ATOM      2  C   UNL     1       6.285   5.075  18.254  0.00  0.00    +0.000 A 
ATOM      3  C   UNL     1       6.749   4.896  16.865  0.00  0.00    +0.000 A 
ATOM      4  C   UNL     1       5.875   4.460  15.953  0.00  0.00    +0.000 A 
ATOM      5  N   UNL     1       4.573   4.130  16.224  0.00  0.00    +0.000 NA
ATOM      6  C   UNL     1       4.158   4.326  17.443  0.00  0.00    +0.000 A 
ATOM      7  C   UNL     1       2.726   4.002  17.766  0.00  0.00    +0.000 A 
ATOM      8  C   UNL     1       2.248   4.271  18.985  0.00  0.00    +0.000 A 
ATOM      9  C   UNL     1       3.105   4.830  20.000  0.00  0.00    +0.000 A 
ATOM     10  C   UNL     1       4.398   5.057  19.734  0.00  0.00    +0.000 A 
ATOM     11  N   UNL     1       4.943   4.815  18.475  0.00  0.00    +0.000 N 
ENDROOT
BRANCH   4  12
ATOM     12  C   UNL     1       6.323   4.357  14.555  0.00  0.00    +0.000 A 
ATOM     13  C   UNL     1       5.658   3.520  13.651  0.00  0.00    +0.000 A 
ATOM     14  C   UNL     1       6.059   3.469  12.314  0.00  0.00    +0.000 A 
ATOM     15  C   UNL     1       7.132   4.244  11.875  0.00  0.00    +0.000 A 
ATOM     16  C   UNL     1       7.817   5.060  12.775  0.00  0.00    +0.000 A 
ATOM     17  C   UNL     1       7.413   5.117  14.110  0.00  0.00    +0.000 A 
ENDBRANCH   4  12
BRANCH   7  18
ATOM     18  O   UNL     1       1.942   3.429  16.785  0.00  0.00    +0.000 OA
ATOM     19  H   UNL     1       1.098   3.215  17.238  0.00  0.00    +0.000 HD
ENDBRANCH   7  18
TORSDOF 2
ENDMDL
MODEL 7
REMARK VINA RESULT:      -7.3      1.387      2.178
REMARK  Name = 
REMARK  2 active torsions:
REMARK  status: ('A' for Active; 'I' for Inactive)
REMARK    1  A    between atoms: C_4  and  C_5
REMARK    2  A    between atoms: C_13  and  O_14
REMARK                            x       y       z     vdW  Elec       q    Type
REMARK                         _______ _______ _______ _____ _____    ______ ____
ROOT
ATOM      1  O   UNL     1       2.192   6.883  18.972  0.00  0.00    +0.000 OA
ATOM      2  C   UNL     1       2.919   5.910  18.789  0.00  0.00    +0.000 A 
ATOM      3  C   UNL     1       3.810   5.901  17.613  0.00  0.00    +0.000 A 
ATOM      4  C   UNL     1       4.622   4.854  17.438  0.00  0.00    +0.000 A 
ATOM      5  N   UNL     1       4.713   3.792  18.298  0.00  0.00    +0.000 NA
ATOM      6  C   UNL     1       3.897   3.785  19.314  0.00  0.00    +0.000 A 
ATOM      7  C   UNL     1       3.951   2.619  20.260  0.00  0.00    +0.000 A 
ATOM      8  C   UNL     1       3.070   2.542  21.263  0.00  0.00    +0.000 A 
ATOM      9  C   UNL     1       2.100   3.588  21.465  0.00  0.00    +0.000 A 
ATOM     10  C   UNL     1       2.094   4.661  20.663  0.00  0.00    +0.000 A 
ATOM     11  N   UNL     1       2.974   4.782  19.590  0.00  0.00    +0.000 N 
ENDROOT
BRANCH   4  12
ATOM     12  C   UNL     1       5.453   4.816  16.223  0.00  0.00    +0.000 A 
ATOM     13  C   UNL     1       6.699   5.453  16.189  0.00  0.00    +0.000 A 
ATOM     14  C   UNL     1       7.502   5.367  15.050  0.00  0.00    +0.000 A 
ATOM     15  C   UNL     1       7.061   4.654  13.935  0.00  0.00    +0.000 A 
ATOM     16  C   UNL     1       5.810   4.038  13.951  0.00  0.00    +0.000 A 
ATOM     17  C   UNL     1       5.008   4.118  15.092  0.00  0.00    +0.000 A 
ENDBRANCH   4  12
BRANCH   7  18
ATOM     18  O   UNL     1       4.919   1.655  20.064  0.00  0.00    +0.000 OA
ATOM     19  H   UNL     1       5.472   1.694  20.873  0.00  0.00    +0.000 HD
ENDBRANCH   7  18
TORSDOF 2
ENDMDL
MODEL 8
REMARK VINA RESULT:      -7.2      3.251      5.950
REMARK  Name = 
REMARK  2 active torsions:
REMARK  status: ('A' for Active; 'I' for Inactive)
REMARK    1  A    between atoms: C_4  and  C_5
REMARK    2  A    between atoms: C_13  and  O_14
REMARK                            x       y       z     vdW  Elec       q    Type
REMARK                         _______ _______ _______ _____ _____    ______ ____
ROOT
ATOM      1  O   UNL     1       4.617   6.877  15.684  0.00  0.00    +0.000 OA
ATOM      2  C   UNL     1       4.852   6.340  16.764  0.00  0.00    +0.000 A 
ATOM      3  C   UNL     1       3.836   5.442  17.345  0.00  0.00    +0.000 A 
ATOM      4  C   UNL     1       4.110   4.836  18.503  0.00  0.00    +0.000 A 
ATOM      5  N   UNL     1       5.294   4.960  19.182  0.00  0.00    +0.000 NA
ATOM      6  C   UNL     1       6.173   5.784  18.685  0.00  0.00    +0.000 A 
ATOM      7  C   UNL     1       7.470   5.966  19.422  0.00  0.00    +0.000 A 
ATOM      8  C   UNL     1       8.356   6.866  18.983  0.00  0.00    +0.000 A 
ATOM      9  C   UNL     1       8.094   7.630  17.789  0.00  0.00    +0.000 A 
ATOM     10  C   UNL     1       6.968   7.420  17.095  0.00  0.00    +0.000 A 
ATOM     11  N   UNL     1       6.001   6.511  17.518  0.00  0.00    +0.000 N 
ENDROOT
BRANCH   4  12
ATOM     12  C   UNL     1       3.063   4.002  19.115  0.00  0.00    +0.000 A 
ATOM     13  C   UNL     1       3.059   3.756  20.494  0.00  0.00    +0.000 A 
ATOM     14  C   UNL     1       2.032   3.006  21.072  0.00  0.00    +0.000 A 
ATOM     15  C   UNL     1       1.010   2.490  20.277  0.00  0.00    +0.000 A 
ATOM     16  C   UNL     1       1.019   2.709  18.899  0.00  0.00    +0.000 A 
ATOM     17  C   UNL     1       2.043   3.462  18.321  0.00  0.00    +0.000 A 
ENDBRANCH   4  12
BRANCH   7  18
ATOM     18  O   UNL     1       7.710   5.190  20.537  0.00  0.00    +0.000 OA
ATOM     19  H   UNL     1       6.990   5.425  21.160  0.00  0.00    +0.000 HD
ENDBRANCH   7  18
TORSDOF 2
ENDMDL
MODEL 9
REMARK VINA RESULT:      -7.2      1.389      1.827
REMARK  Name = 
REMARK  2 active torsions:
REMARK  status: ('A' for Active; 'I' for Inactive)
REMARK    1  A    between atoms: C_4  and  C_5
REMARK    2  A    between atoms: C_13  and  O_14
REMARK                            x       y       z     vdW  Elec       q    Type
REMARK                         _______ _______ _______ _____ _____    ______ ____
ROOT
ATOM      1  O   UNL     1       2.207   6.782  18.858  0.00  0.00    +0.000 OA
ATOM      2  C   UNL     1       2.942   5.809  18.706  0.00  0.00    +0.000 A 
ATOM      3  C   UNL     1       3.841   5.778  17.537  0.00  0.00    +0.000 A 
ATOM      4  C   UNL     1       4.662   4.733  17.393  0.00  0.00    +0.000 A 
ATOM      5  N   UNL     1       4.755   3.693  18.281  0.00  0.00    +0.000 NA
ATOM      6  C   UNL     1       3.932   3.707  19.291  0.00  0.00    +0.000 A 
ATOM      7  C   UNL     1       3.987   2.565  20.267  0.00  0.00    +0.000 A 
ATOM      8  C   UNL     1       3.100   2.507  21.265  0.00  0.00    +0.000 A 
ATOM      9  C   UNL     1       2.120   3.551  21.434  0.00  0.00    +0.000 A 
ATOM     10  C   UNL     1       2.112   4.603  20.605  0.00  0.00    +0.000 A 
ATOM     11  N   UNL     1       3.000   4.703  19.536  0.00  0.00    +0.000 N 
ENDROOT
BRANCH   4  12
ATOM     12  C   UNL     1       5.501   4.670  16.186  0.00  0.00    +0.000 A 
ATOM     13  C   UNL     1       4.996   4.146  14.990  0.00  0.00    +0.000 A 
ATOM     14  C   UNL     1       5.784   4.138  13.837  0.00  0.00    +0.000 A 
ATOM     15  C   UNL     1       7.083   4.644  13.874  0.00  0.00    +0.000 A 
ATOM     16  C   UNL     1       7.603   5.144  15.067  0.00  0.00    +0.000 A 
ATOM     17  C   UNL     1       6.815   5.157  16.219  0.00  0.00    +0.000 A 
ENDBRANCH   4  12
BRANCH   7  18
ATOM     18  O   UNL     1       4.964   1.604  20.102  0.00  0.00    +0.000 OA
ATOM     19  H   UNL     1       4.518   0.759  20.325  0.00  0.00    +0.000 HD
ENDBRANCH   7  18
TORSDOF 2
ENDMDL
