MODEL 1
REMARK VINA RESULT:      -8.1      0.000      0.000
REMARK  Name = 
REMARK  11 active torsions:
REMARK  status: ('A' for Active; 'I' for Inactive)
REMARK    1  A    between atoms: C_1  and  O_2
REMARK    2  A    between atoms: O_2  and  C_3
REMARK    3  A    between atoms: C_3  and  C_4
REMARK    4  A    between atoms: C_3  and  C_5
REMARK    5  A    between atoms: C_3  and  C_6
REMARK    6  A    between atoms: C_9  and  N_10
REMARK    7  A    between atoms: C_13  and  C_14
REMARK    8  A    between atoms: C_17  and  C_18
REMARK    9  A    between atoms: C_18  and  C_19
REMARK   10  A    between atoms: C_25  and  C_26
REMARK   11  A    between atoms: C_27  and  C_28
REMARK                            x       y       z     vdW  Elec       q    Type
REMARK                         _______ _______ _______ _____ _____    ______ ____
ROOT
ATOM      1  N   UNL     1       1.333   8.753  19.160  0.00  0.00    +0.000 N 
ATOM      2  C   UNL     1       1.032   9.120  20.538  0.00  0.00    +0.000 C 
ATOM      3  C   UNL     1      -0.417   9.602  20.621  0.00  0.00    +0.000 C 
ATOM      4  C   UNL     1      -0.683  10.754  19.644  0.00  0.00    +0.000 C 
ATOM      5  C   UNL     1      -0.427  10.156  18.231  0.00  0.00    +0.000 C 
ATOM      6  C   UNL     1       1.022   9.688  18.087  0.00  0.00    +0.000 C 
ENDROOT
BRANCH   4   7
ATOM      7  C   UNL     1       0.024  12.099  19.816  0.00  0.00    +0.000 A 
ATOM      8  N   UNL     1       0.588  12.547  18.669  0.00  0.00    +0.000 NA
ATOM      9  N   UNL     1       1.194  13.763  18.576  0.00  0.00    +0.000 NA
ATOM     10  C   UNL     1       1.141  14.622  19.609  0.00  0.00    +0.000 A 
ATOM     11  C   UNL     1       0.477  14.273  20.789  0.00  0.00    +0.000 A 
ATOM     12  C   UNL     1       0.272  15.286  21.886  0.00  0.00    +0.000 C 
ATOM     13  C   UNL     1       0.009  12.936  20.941  0.00  0.00    +0.000 A 
ATOM     14  C   UNL     1      -0.488  12.512  22.297  0.00  0.00    +0.000 C 
BRANCH  10  15
ATOM     15  C   UNL     1       1.970  15.875  19.435  0.00  0.00    +0.000 C 
BRANCH  15  16
ATOM     16  C   UNL     1       1.279  16.871  18.524  0.00  0.00    +0.000 A 
ATOM     17  C   UNL     1      -0.090  17.138  18.694  0.00  0.00    +0.000 A 
ATOM     18  C   UNL     1      -0.783  17.906  17.760  0.00  0.00    +0.000 A 
ATOM     19  C   UNL     1      -0.113  18.432  16.658  0.00  0.00    +0.000 A 
ATOM     20  C   UNL     1       1.258  18.224  16.513  0.00  0.00    +0.000 A 
ATOM     21  C   UNL     1       1.955  17.453  17.445  0.00  0.00    +0.000 A 
ENDBRANCH  15  16
ENDBRANCH  10  15
ENDBRANCH   4   7
BRANCH   1  25
ATOM     22  C   UNL     1       3.935   5.662  18.433  0.00  0.00    +0.000 A 
ATOM     23  C   UNL     1       3.154   5.724  19.576  0.00  0.00    +0.000 A 
ATOM     24  N   UNL     1       2.332   6.762  19.860  0.00  0.00    +0.000 NA
ATOM     25  C   UNL     1       2.278   7.769  18.962  0.00  0.00    +0.000 A 
ATOM     26  C   UNL     1       3.111   7.719  17.843  0.00  0.00    +0.000 A 
ATOM     27  N   UNL     1       3.946   6.692  17.554  0.00  0.00    +0.000 NA
BRANCH  22  28
ATOM     28  C   UNL     1       4.886   4.496  18.187  0.00  0.00    +0.000 C 
ATOM     29  C   UNL     1       5.498   4.543  16.774  0.00  0.00    +0.000 C 
ATOM     30  C   UNL     1       4.110   3.171  18.311  0.00  0.00    +0.000 C 
BRANCH  28  32
ATOM     31  C   UNL     1       6.865   5.517  19.157  0.00  0.00    +0.000 C 
ATOM     32  O   UNL     1       5.921   4.449  19.193  0.00  0.00    +0.000 OA
ENDBRANCH  28  32
ENDBRANCH  22  28
ENDBRANCH   1  25
TORSDOF 6
ENDMDL
MODEL 2
REMARK VINA RESULT:      -7.8      0.479      1.241
REMARK  Name = 
REMARK  11 active torsions:
REMARK  status: ('A' for Active; 'I' for Inactive)
REMARK    1  A    between atoms: C_1  and  O_2
REMARK    2  A    between atoms: O_2  and  C_3
REMARK    3  A    between atoms: C_3  and  C_4
REMARK    4  A    between atoms: C_3  and  C_5
REMARK    5  A    between atoms: C_3  and  C_6
REMARK    6  A    between atoms: C_9  and  N_10
REMARK    7  A    between atoms: C_13  and  C_14
REMARK    8  A    between atoms: C_17  and  C_18
REMARK    9  A    between atoms: C_18  and  C_19
REMARK   10  A    between atoms: C_25  and  C_26
REMARK   11  A    between atoms: C_27  and  C_28
REMARK                            x       y       z     vdW  Elec       q    Type
REMARK                         _______ _______ _______ _____ _____    ______ ____
ROOT
ATOM      1  N   UNL     1       1.250   8.785  19.208  0.00  0.00    +0.000 N 
ATOM      2  C   UNL     1       0.979   9.151  20.593  0.00  0.00    +0.000 C 
ATOM      3  C   UNL     1      -0.479   9.597  20.715  0.00  0.00    +0.000 C 
ATOM      4  C   UNL     1      -0.802  10.736  19.741  0.00  0.00    +0.000 C 
ATOM      5  C   UNL     1      -0.570  10.138  18.324  0.00  0.00    +0.000 C 
ATOM      6  C   UNL     1       0.886   9.706  18.141  0.00  0.00    +0.000 C 
ENDROOT
BRANCH   4   7
ATOM      7  C   UNL     1      -0.125  12.100  19.888  0.00  0.00    +0.000 A 
ATOM      8  N   UNL     1       0.471  12.517  18.744  0.00  0.00    +0.000 NA
ATOM      9  N   UNL     1       1.059  13.739  18.628  0.00  0.00    +0.000 NA
ATOM     10  C   UNL     1       0.956  14.634  19.626  0.00  0.00    +0.000 A 
ATOM     11  C   UNL     1       0.257  14.316  20.794  0.00  0.00    +0.000 A 
ATOM     12  C   UNL     1      -0.004  15.365  21.845  0.00  0.00    +0.000 C 
ATOM     13  C   UNL     1      -0.193  12.977  20.980  0.00  0.00    +0.000 A 
ATOM     14  C   UNL     1      -0.730  12.593  22.332  0.00  0.00    +0.000 C 
BRANCH  10  15
ATOM     15  C   UNL     1       1.768  15.895  19.434  0.00  0.00    +0.000 C 
BRANCH  15  16
ATOM     16  C   UNL     1       1.195  16.757  18.327  0.00  0.00    +0.000 A 
ATOM     17  C   UNL     1       2.042  17.264  17.327  0.00  0.00    +0.000 A 
ATOM     18  C   UNL     1       1.574  18.201  16.409  0.00  0.00    +0.000 A 
ATOM     19  C   UNL     1       0.249  18.628  16.465  0.00  0.00    +0.000 A 
ATOM     20  C   UNL     1      -0.617  18.086  17.415  0.00  0.00    +0.000 A 
ATOM     21  C   UNL     1      -0.150  17.149  18.338  0.00  0.00    +0.000 A 
ENDBRANCH  15  16
ENDBRANCH  10  15
ENDBRANCH   4   7
BRANCH   1  25
ATOM     22  C   UNL     1       3.906   5.754  18.428  0.00  0.00    +0.000 A 
ATOM     23  C   UNL     1       3.178   5.820  19.605  0.00  0.00    +0.000 A 
ATOM     24  N   UNL     1       2.339   6.840  19.904  0.00  0.00    +0.000 NA
ATOM     25  C   UNL     1       2.214   7.824  18.988  0.00  0.00    +0.000 A 
ATOM     26  C   UNL     1       2.996   7.772  17.833  0.00  0.00    +0.000 A 
ATOM     27  N   UNL     1       3.846   6.763  17.527  0.00  0.00    +0.000 NA
BRANCH  22  28
ATOM     28  C   UNL     1       4.880   4.610  18.164  0.00  0.00    +0.000 C 
ATOM     29  C   UNL     1       6.327   5.114  18.005  0.00  0.00    +0.000 C 
ATOM     30  C   UNL     1       4.491   3.903  16.850  0.00  0.00    +0.000 C 
BRANCH  28  32
ATOM     31  C   UNL     1       4.033   2.448  18.872  0.00  0.00    +0.000 C 
ATOM     32  O   UNL     1       4.796   3.607  19.198  0.00  0.00    +0.000 OA
ENDBRANCH  28  32
ENDBRANCH  22  28
ENDBRANCH   1  25
TORSDOF 6
ENDMDL
MODEL 3
REMARK VINA RESULT:      -7.7      0.731      1.308
REMARK  Name = 
REMARK  11 active torsions:
REMARK  status: ('A' for Active; 'I' for Inactive)
REMARK    1  A    between atoms: C_1  and  O_2
REMARK    2  A    between atoms: O_2  and  C_3
REMARK    3  A    between atoms: C_3  and  C_4
REMARK    4  A    between atoms: C_3  and  C_5
REMARK    5  A    between atoms: C_3  and  C_6
REMARK    6  A    between atoms: C_9  and  N_10
REMARK    7  A    between atoms: C_13  and  C_14
REMARK    8  A    between atoms: C_17  and  C_18
REMARK    9  A    between atoms: C_18  and  C_19
REMARK   10  A    between atoms: C_25  and  C_26
REMARK   11  A    between atoms: C_27  and  C_28
REMARK                            x       y       z     vdW  Elec       q    Type
REMARK                         _______ _______ _______ _____ _____    ______ ____
ROOT
ATOM      1  N   UNL     1       1.259   8.741  19.140  0.00  0.00    +0.000 N 
ATOM      2  C   UNL     1       1.024   9.121  20.527  0.00  0.00    +0.000 C 
ATOM      3  C   UNL     1      -0.414   9.621  20.670  0.00  0.00    +0.000 C 
ATOM      4  C   UNL     1      -0.708  10.770  19.697  0.00  0.00    +0.000 C 
ATOM      5  C   UNL     1      -0.522  10.160  18.279  0.00  0.00    +0.000 C 
ATOM      6  C   UNL     1       0.914   9.672  18.075  0.00  0.00    +0.000 C 
ENDROOT
BRANCH   4   7
ATOM      7  C   UNL     1       0.022  12.108  19.829  0.00  0.00    +0.000 A 
ATOM      8  N   UNL     1       0.595  12.510  18.669  0.00  0.00    +0.000 NA
ATOM      9  N   UNL     1       1.223  13.711  18.540  0.00  0.00    +0.000 NA
ATOM     10  C   UNL     1       1.185  14.602  19.545  0.00  0.00    +0.000 A 
ATOM     11  C   UNL     1       0.513  14.302  20.734  0.00  0.00    +0.000 A 
ATOM     12  C   UNL     1       0.325  15.352  21.799  0.00  0.00    +0.000 C 
ATOM     13  C   UNL     1       0.022  12.979  20.927  0.00  0.00    +0.000 A 
ATOM     14  C   UNL     1      -0.485  12.606  22.294  0.00  0.00    +0.000 C 
BRANCH  10  15
ATOM     15  C   UNL     1       2.036  15.835  19.333  0.00  0.00    +0.000 C 
BRANCH  15  16
ATOM     16  C   UNL     1       1.332  16.845  18.449  0.00  0.00    +0.000 A 
ATOM     17  C   UNL     1      -0.044  17.075  18.611  0.00  0.00    +0.000 A 
ATOM     18  C   UNL     1      -0.745  17.859  17.697  0.00  0.00    +0.000 A 
ATOM     19  C   UNL     1      -0.075  18.438  16.622  0.00  0.00    +0.000 A 
ATOM     20  C   UNL     1       1.302  18.268  16.486  0.00  0.00    +0.000 A 
ATOM     21  C   UNL     1       2.006  17.480  17.399  0.00  0.00    +0.000 A 
ENDBRANCH  15  16
ENDBRANCH  10  15
ENDBRANCH   4   7
BRANCH   1  25
ATOM     22  C   UNL     1       4.208   5.935  18.606  0.00  0.00    +0.000 A 
ATOM     23  C   UNL     1       4.017   6.990  17.728  0.00  0.00    +0.000 A 
ATOM     24  N   UNL     1       3.016   7.892  17.856  0.00  0.00    +0.000 NA
ATOM     25  C   UNL     1       2.183   7.744  18.908  0.00  0.00    +0.000 A 
ATOM     26  C   UNL     1       2.354   6.645  19.752  0.00  0.00    +0.000 A 
ATOM     27  N   UNL     1       3.344   5.728  19.628  0.00  0.00    +0.000 NA
BRANCH  22  28
ATOM     28  C   UNL     1       5.318   4.913  18.385  0.00  0.00    +0.000 C 
ATOM     29  C   UNL     1       5.040   3.594  19.131  0.00  0.00    +0.000 C 
ATOM     30  C   UNL     1       6.646   5.478  18.925  0.00  0.00    +0.000 C 
BRANCH  28  32
ATOM     31  C   UNL     1       6.891   4.575  16.566  0.00  0.00    +0.000 C 
ATOM     32  O   UNL     1       5.530   4.671  16.977  0.00  0.00    +0.000 OA
ENDBRANCH  28  32
ENDBRANCH  22  28
ENDBRANCH   1  25
TORSDOF 6
ENDMDL
MODEL 4
REMARK VINA RESULT:      -7.7      0.846      1.144
REMARK  Name = 
REMARK  11 active torsions:
REMARK  status: ('A' for Active; 'I' for Inactive)
REMARK    1  A    between atoms: C_1  and  O_2
REMARK    2  A    between atoms: O_2  and  C_3
REMARK    3  A    between atoms: C_3  and  C_4
REMARK    4  A    between atoms: C_3  and  C_5
REMARK    5  A    between atoms: C_3  and  C_6
REMARK    6  A    between atoms: C_9  and  N_10
REMARK    7  A    between atoms: C_13  and  C_14
REMARK    8  A    between atoms: C_17  and  C_18
REMARK    9  A    between atoms: C_18  and  C_19
REMARK   10  A    between atoms: C_25  and  C_26
REMARK   11  A    between atoms: C_27  and  C_28
REMARK                            x       y       z     vdW  Elec       q    Type
REMARK                         _______ _______ _______ _____ _____    ______ ____
ROOT
ATOM      1  N   UNL     1       1.416   8.710  19.159  0.00  0.00    +0.000 N 
ATOM      2  C   UNL     1       1.207   8.937  20.584  0.00  0.00    +0.000 C 
ATOM      3  C   UNL     1      -0.217   9.449  20.803  0.00  0.00    +0.000 C 
ATOM      4  C   UNL     1      -0.497  10.705  19.970  0.00  0.00    +0.000 C 
ATOM      5  C   UNL     1      -0.342  10.255  18.489  0.00  0.00    +0.000 C 
ATOM      6  C   UNL     1       1.079   9.763  18.211  0.00  0.00    +0.000 C 
ENDROOT
BRANCH   4   7
ATOM      7  C   UNL     1       0.266  12.004  20.240  0.00  0.00    +0.000 A 
ATOM      8  N   UNL     1       1.102  12.342  19.229  0.00  0.00    +0.000 NA
ATOM      9  N   UNL     1       1.813  13.503  19.224  0.00  0.00    +0.000 NA
ATOM     10  C   UNL     1       1.609  14.422  20.184  0.00  0.00    +0.000 A 
ATOM     11  C   UNL     1       0.677  14.191  21.200  0.00  0.00    +0.000 A 
ATOM     12  C   UNL     1       0.323  15.279  22.182  0.00  0.00    +0.000 C 
ATOM     13  C   UNL     1       0.077  12.903  21.299  0.00  0.00    +0.000 A 
ATOM     14  C   UNL     1      -0.738  12.596  22.526  0.00  0.00    +0.000 C 
BRANCH  10  15
ATOM     15  C   UNL     1       2.558  15.599  20.147  0.00  0.00    +0.000 C 
BRANCH  15  16
ATOM     16  C   UNL     1       2.207  16.555  19.024  0.00  0.00    +0.000 A 
ATOM     17  C   UNL     1       1.037  17.328  19.105  0.00  0.00    +0.000 A 
ATOM     18  C   UNL     1       0.602  18.073  18.010  0.00  0.00    +0.000 A 
ATOM     19  C   UNL     1       1.341  18.071  16.830  0.00  0.00    +0.000 A 
ATOM     20  C   UNL     1       2.537  17.356  16.759  0.00  0.00    +0.000 A 
ATOM     21  C   UNL     1       2.973  16.606  17.853  0.00  0.00    +0.000 A 
ENDBRANCH  15  16
ENDBRANCH  10  15
ENDBRANCH   4   7
BRANCH   1  25
ATOM     22  C   UNL     1       4.301   5.937  18.244  0.00  0.00    +0.000 A 
ATOM     23  C   UNL     1       4.034   7.027  17.432  0.00  0.00    +0.000 A 
ATOM     24  N   UNL     1       3.049   7.921  17.687  0.00  0.00    +0.000 NA
ATOM     25  C   UNL     1       2.314   7.726  18.803  0.00  0.00    +0.000 A 
ATOM     26  C   UNL     1       2.559   6.593  19.581  0.00  0.00    +0.000 A 
ATOM     27  N   UNL     1       3.532   5.685  19.330  0.00  0.00    +0.000 NA
BRANCH  22  28
ATOM     28  C   UNL     1       5.385   4.928  17.880  0.00  0.00    +0.000 C 
ATOM     29  C   UNL     1       6.253   5.417  16.705  0.00  0.00    +0.000 C 
ATOM     30  C   UNL     1       4.724   3.605  17.446  0.00  0.00    +0.000 C 
BRANCH  28  32
ATOM     31  C   UNL     1       7.210   5.567  19.349  0.00  0.00    +0.000 C 
ATOM     32  O   UNL     1       6.205   4.609  19.025  0.00  0.00    +0.000 OA
ENDBRANCH  28  32
ENDBRANCH  22  28
ENDBRANCH   1  25
TORSDOF 6
ENDMDL
MODEL 5
REMARK VINA RESULT:      -7.6      2.263      3.429
REMARK  Name = 
REMARK  11 active torsions:
REMARK  status: ('A' for Active; 'I' for Inactive)
REMARK    1  A    between atoms: C_1  and  O_2
REMARK    2  A    between atoms: O_2  and  C_3
REMARK    3  A    between atoms: C_3  and  C_4
REMARK    4  A    between atoms: C_3  and  C_5
REMARK    5  A    between atoms: C_3  and  C_6
REMARK    6  A    between atoms: C_9  and  N_10
REMARK    7  A    between atoms: C_13  and  C_14
REMARK    8  A    between atoms: C_17  and  C_18
REMARK    9  A    between atoms: C_18  and  C_19
REMARK   10  A    between atoms: C_25  and  C_26
REMARK   11  A    between atoms: C_27  and  C_28
REMARK                            x       y       z     vdW  Elec       q    Type
REMARK                         _______ _______ _______ _____ _____    ______ ____
ROOT
ATOM      1  N   UNL     1       1.556   8.657  19.201  0.00  0.00    +0.000 N 
ATOM      2  C   UNL     1       1.262   8.968  20.594  0.00  0.00    +0.000 C 
ATOM      3  C   UNL     1      -0.157   9.531  20.690  0.00  0.00    +0.000 C 
ATOM      4  C   UNL     1      -0.342  10.747  19.774  0.00  0.00    +0.000 C 
ATOM      5  C   UNL     1      -0.106  10.210  18.333  0.00  0.00    +0.000 C 
ATOM      6  C   UNL     1       1.314   9.663  18.176  0.00  0.00    +0.000 C 
ENDROOT
BRANCH   4   7
ATOM      7  C   UNL     1       0.442  12.037  20.023  0.00  0.00    +0.000 A 
ATOM      8  N   UNL     1       1.314  11.930  21.055  0.00  0.00    +0.000 NA
ATOM      9  N   UNL     1       2.172  12.930  21.395  0.00  0.00    +0.000 NA
ATOM     10  C   UNL     1       2.265  14.028  20.625  0.00  0.00    +0.000 A 
ATOM     11  C   UNL     1       1.477  14.160  19.478  0.00  0.00    +0.000 A 
ATOM     12  C   UNL     1       1.691  15.306  18.523  0.00  0.00    +0.000 C 
ATOM     13  C   UNL     1       0.456  13.196  19.236  0.00  0.00    +0.000 A 
ATOM     14  C   UNL     1      -0.533  13.476  18.136  0.00  0.00    +0.000 C 
BRANCH  10  15
ATOM     15  C   UNL     1       3.146  15.123  21.185  0.00  0.00    +0.000 C 
BRANCH  15  16
ATOM     16  C   UNL     1       4.611  14.843  20.916  0.00  0.00    +0.000 A 
ATOM     17  C   UNL     1       5.439  14.397  21.960  0.00  0.00    +0.000 A 
ATOM     18  C   UNL     1       6.819  14.309  21.783  0.00  0.00    +0.000 A 
ATOM     19  C   UNL     1       7.384  14.645  20.555  0.00  0.00    +0.000 A 
ATOM     20  C   UNL     1       6.566  15.030  19.494  0.00  0.00    +0.000 A 
ATOM     21  C   UNL     1       5.184  15.123  19.670  0.00  0.00    +0.000 A 
ENDBRANCH  15  16
ENDBRANCH  10  15
ENDBRANCH   4   7
BRANCH   1  25
ATOM     22  C   UNL     1       3.971   5.448  18.349  0.00  0.00    +0.000 A 
ATOM     23  C   UNL     1       3.239   5.537  19.522  0.00  0.00    +0.000 A 
ATOM     24  N   UNL     1       2.481   6.612  19.846  0.00  0.00    +0.000 NA
ATOM     25  C   UNL     1       2.443   7.629  18.959  0.00  0.00    +0.000 A 
ATOM     26  C   UNL     1       3.229   7.549  17.809  0.00  0.00    +0.000 A 
ATOM     27  N   UNL     1       4.001   6.485  17.479  0.00  0.00    +0.000 NA
BRANCH  22  28
ATOM     28  C   UNL     1       4.854   4.239  18.059  0.00  0.00    +0.000 C 
ATOM     29  C   UNL     1       5.034   4.011  16.546  0.00  0.00    +0.000 C 
ATOM     30  C   UNL     1       4.193   2.975  18.641  0.00  0.00    +0.000 C 
BRANCH  28  32
ATOM     31  C   UNL     1       7.220   4.753  17.880  0.00  0.00    +0.000 C 
ATOM     32  O   UNL     1       6.134   4.360  18.715  0.00  0.00    +0.000 OA
ENDBRANCH  28  32
ENDBRANCH  22  28
ENDBRANCH   1  25
TORSDOF 6
ENDMDL
MODEL 6
REMARK VINA RESULT:      -7.4      0.819      1.375
REMARK  Name = 
REMARK  11 active torsions:
REMARK  status: ('A' for Active; 'I' for Inactive)
REMARK    1  A    between atoms: C_1  and  O_2
REMARK    2  A    between atoms: O_2  and  C_3
REMARK    3  A    between atoms: C_3  and  C_4
REMARK    4  A    between atoms: C_3  and  C_5
REMARK    5  A    between atoms: C_3  and  C_6
REMARK    6  A    between atoms: C_9  and  N_10
REMARK    7  A    between atoms: C_13  and  C_14
REMARK    8  A    between atoms: C_17  and  C_18
REMARK    9  A    between atoms: C_18  and  C_19
REMARK   10  A    between atoms: C_25  and  C_26
REMARK   11  A    between atoms: C_27  and  C_28
REMARK                            x       y       z     vdW  Elec       q    Type
REMARK                         _______ _______ _______ _____ _____    ______ ____
ROOT
ATOM      1  N   UNL     1       1.196   8.850  19.190  0.00  0.00    +0.000 N 
ATOM      2  C   UNL     1       1.193   9.142  20.619  0.00  0.00    +0.000 C 
ATOM      3  C   UNL     1      -0.227   9.513  21.048  0.00  0.00    +0.000 C 
ATOM      4  C   UNL     1      -0.780  10.677  20.217  0.00  0.00    +0.000 C 
ATOM      5  C   UNL     1      -0.813  10.153  18.753  0.00  0.00    +0.000 C 
ATOM      6  C   UNL     1       0.593   9.798  18.265  0.00  0.00    +0.000 C 
ENDROOT
BRANCH   4   7
ATOM      7  C   UNL     1      -0.139  12.064  20.299  0.00  0.00    +0.000 A 
ATOM      8  N   UNL     1       0.463  12.433  19.142  0.00  0.00    +0.000 NA
ATOM      9  N   UNL     1       1.022  13.662  18.967  0.00  0.00    +0.000 NA
ATOM     10  C   UNL     1       0.883  14.606  19.913  0.00  0.00    +0.000 A 
ATOM     11  C   UNL     1       0.175  14.334  21.088  0.00  0.00    +0.000 A 
ATOM     12  C   UNL     1      -0.126  15.431  22.077  0.00  0.00    +0.000 C 
ATOM     13  C   UNL     1      -0.244  12.996  21.340  0.00  0.00    +0.000 A 
ATOM     14  C   UNL     1      -0.791  12.673  22.704  0.00  0.00    +0.000 C 
BRANCH  10  15
ATOM     15  C   UNL     1       1.667  15.875  19.663  0.00  0.00    +0.000 C 
BRANCH  15  16
ATOM     16  C   UNL     1       1.018  16.720  18.585  0.00  0.00    +0.000 A 
ATOM     17  C   UNL     1       1.815  17.311  17.589  0.00  0.00    +0.000 A 
ATOM     18  C   UNL     1       1.268  18.235  16.700  0.00  0.00    +0.000 A 
ATOM     19  C   UNL     1      -0.083  18.563  16.781  0.00  0.00    +0.000 A 
ATOM     20  C   UNL     1      -0.895  17.936  17.726  0.00  0.00    +0.000 A 
ATOM     21  C   UNL     1      -0.350  17.013  18.620  0.00  0.00    +0.000 A 
ENDBRANCH  15  16
ENDBRANCH  10  15
ENDBRANCH   4   7
BRANCH   1  25
ATOM     22  C   UNL     1       4.193   6.320  17.979  0.00  0.00    +0.000 A 
ATOM     23  C   UNL     1       3.824   7.438  17.249  0.00  0.00    +0.000 A 
ATOM     24  N   UNL     1       2.802   8.253  17.603  0.00  0.00    +0.000 NA
ATOM     25  C   UNL     1       2.132   7.946  18.735  0.00  0.00    +0.000 A 
ATOM     26  C   UNL     1       2.480   6.785  19.429  0.00  0.00    +0.000 A 
ATOM     27  N   UNL     1       3.492   5.956  19.079  0.00  0.00    +0.000 NA
BRANCH  22  28
ATOM     28  C   UNL     1       5.317   5.403  17.506  0.00  0.00    +0.000 C 
ATOM     29  C   UNL     1       5.584   5.556  15.996  0.00  0.00    +0.000 C 
ATOM     30  C   UNL     1       4.917   3.936  17.758  0.00  0.00    +0.000 C 
BRANCH  28  32
ATOM     31  C   UNL     1       7.604   4.739  17.981  0.00  0.00    +0.000 C 
ATOM     32  O   UNL     1       6.524   5.625  18.266  0.00  0.00    +0.000 OA
ENDBRANCH  28  32
ENDBRANCH  22  28
ENDBRANCH   1  25
TORSDOF 6
ENDMDL
MODEL 7
REMARK VINA RESULT:      -7.4      3.392      5.434
REMARK  Name = 
REMARK  11 active torsions:
REMARK  status: ('A' for Active; 'I' for Inactive)
REMARK    1  A    between atoms: C_1  and  O_2
REMARK    2  A    between atoms: O_2  and  C_3
REMARK    3  A    between atoms: C_3  and  C_4
REMARK    4  A    between atoms: C_3  and  C_5
REMARK    5  A    between atoms: C_3  and  C_6
REMARK    6  A    between atoms: C_9  and  N_10
REMARK    7  A    between atoms: C_13  and  C_14
REMARK    8  A    between atoms: C_17  and  C_18
REMARK    9  A    between atoms: C_18  and  C_19
REMARK   10  A    between atoms: C_25  and  C_26
REMARK   11  A    between atoms: C_27  and  C_28
REMARK                            x       y       z     vdW  Elec       q    Type
REMARK                         _______ _______ _______ _____ _____    ______ ____
ROOT
ATOM      1  N   UNL     1       0.593  10.948  19.111  0.00  0.00    +0.000 N 
ATOM      2  C   UNL     1      -0.827  10.905  18.784  0.00  0.00    +0.000 C 
ATOM      3  C   UNL     1      -1.254  12.270  18.243  0.00  0.00    +0.000 C 
ATOM      4  C   UNL     1      -0.921  13.395  19.230  0.00  0.00    +0.000 C 
ATOM      5  C   UNL     1       0.628  13.368  19.370  0.00  0.00    +0.000 C 
ATOM      6  C   UNL     1       1.104  12.031  19.940  0.00  0.00    +0.000 C 
ENDROOT
BRANCH   4   7
ATOM      7  C   UNL     1      -1.604  13.459  20.598  0.00  0.00    +0.000 A 
ATOM      8  N   UNL     1      -2.510  12.467  20.779  0.00  0.00    +0.000 NA
ATOM      9  N   UNL     1      -3.171  12.285  21.955  0.00  0.00    +0.000 NA
ATOM     10  C   UNL     1      -2.847  13.024  23.031  0.00  0.00    +0.000 A 
ATOM     11  C   UNL     1      -1.841  13.991  22.950  0.00  0.00    +0.000 A 
ATOM     12  C   UNL     1      -1.359  14.706  24.187  0.00  0.00    +0.000 C 
ATOM     13  C   UNL     1      -1.287  14.299  21.674  0.00  0.00    +0.000 A 
ATOM     14  C   UNL     1      -0.383  15.497  21.567  0.00  0.00    +0.000 C 
BRANCH  10  15
ATOM     15  C   UNL     1      -3.746  12.825  24.230  0.00  0.00    +0.000 C 
BRANCH  15  16
ATOM     16  C   UNL     1      -5.124  13.408  23.989  0.00  0.00    +0.000 A 
ATOM     17  C   UNL     1      -5.267  14.786  23.753  0.00  0.00    +0.000 A 
ATOM     18  C   UNL     1      -6.532  15.370  23.709  0.00  0.00    +0.000 A 
ATOM     19  C   UNL     1      -7.667  14.583  23.880  0.00  0.00    +0.000 A 
ATOM     20  C   UNL     1      -7.539  13.205  24.053  0.00  0.00    +0.000 A 
ATOM     21  C   UNL     1      -6.274  12.617  24.100  0.00  0.00    +0.000 A 
ENDBRANCH  15  16
ENDBRANCH  10  15
ENDBRANCH   4   7
BRANCH   1  25
ATOM     22  C   UNL     1       2.434   7.298  18.734  0.00  0.00    +0.000 A 
ATOM     23  C   UNL     1       1.842   7.714  19.916  0.00  0.00    +0.000 A 
ATOM     24  N   UNL     1       1.280   8.935  20.077  0.00  0.00    +0.000 NA
ATOM     25  C   UNL     1       1.298   9.767  19.013  0.00  0.00    +0.000 A 
ATOM     26  C   UNL     1       1.946   9.354  17.847  0.00  0.00    +0.000 A 
ATOM     27  N   UNL     1       2.522   8.140  17.678  0.00  0.00    +0.000 NA
BRANCH  22  28
ATOM     28  C   UNL     1       3.103   5.932  18.624  0.00  0.00    +0.000 C 
ATOM     29  C   UNL     1       4.372   5.984  17.751  0.00  0.00    +0.000 C 
ATOM     30  C   UNL     1       2.127   4.939  17.961  0.00  0.00    +0.000 C 
BRANCH  28  32
ATOM     31  C   UNL     1       2.793   4.136  20.228  0.00  0.00    +0.000 C 
ATOM     32  O   UNL     1       3.400   5.390  19.929  0.00  0.00    +0.000 OA
ENDBRANCH  28  32
ENDBRANCH  22  28
ENDBRANCH   1  25
TORSDOF 6
ENDMDL
MODEL 8
REMARK VINA RESULT:      -7.4      1.566      2.522
REMARK  Name = 
REMARK  11 active torsions:
REMARK  status: ('A' for Active; 'I' for Inactive)
REMARK    1  A    between atoms: C_1  and  O_2
REMARK    2  A    between atoms: O_2  and  C_3
REMARK    3  A    between atoms: C_3  and  C_4
REMARK    4  A    between atoms: C_3  and  C_5
REMARK    5  A    between atoms: C_3  and  C_6
REMARK    6  A    between atoms: C_9  and  N_10
REMARK    7  A    between atoms: C_13  and  C_14
REMARK    8  A    between atoms: C_17  and  C_18
REMARK    9  A    between atoms: C_18  and  C_19
REMARK   10  A    between atoms: C_25  and  C_26
REMARK   11  A    between atoms: C_27  and  C_28
REMARK                            x       y       z     vdW  Elec       q    Type
REMARK                         _______ _______ _______ _____ _____    ______ ____
ROOT
ATOM      1  N   UNL     1       1.387   8.722  19.178  0.00  0.00    +0.000 N 
ATOM      2  C   UNL     1       1.185   9.167  20.552  0.00  0.00    +0.000 C 
ATOM      3  C   UNL     1      -0.245   9.690  20.700  0.00  0.00    +0.000 C 
ATOM      4  C   UNL     1      -0.547  10.797  19.682  0.00  0.00    +0.000 C 
ATOM      5  C   UNL     1      -0.396  10.120  18.290  0.00  0.00    +0.000 C 
ATOM      6  C   UNL     1       1.029   9.608  18.079  0.00  0.00    +0.000 C 
ENDROOT
BRANCH   4   7
ATOM      7  C   UNL     1       0.200  12.130  19.738  0.00  0.00    +0.000 A 
ATOM      8  N   UNL     1       0.853  12.416  18.585  0.00  0.00    +0.000 NA
ATOM      9  N   UNL     1       1.511  13.591  18.387  0.00  0.00    +0.000 NA
ATOM     10  C   UNL     1       1.427  14.572  19.303  0.00  0.00    +0.000 A 
ATOM     11  C   UNL     1       0.677  14.392  20.469  0.00  0.00    +0.000 A 
ATOM     12  C   UNL     1       0.444  15.539  21.418  0.00  0.00    +0.000 C 
ATOM     13  C   UNL     1       0.149  13.100  20.750  0.00  0.00    +0.000 A 
ATOM     14  C   UNL     1      -0.450  12.862  22.110  0.00  0.00    +0.000 C 
BRANCH  10  15
ATOM     15  C   UNL     1       2.314  15.767  19.034  0.00  0.00    +0.000 C 
BRANCH  15  16
ATOM     16  C   UNL     1       3.781  15.388  19.082  0.00  0.00    +0.000 A 
ATOM     17  C   UNL     1       4.447  15.333  20.318  0.00  0.00    +0.000 A 
ATOM     18  C   UNL     1       5.829  15.165  20.372  0.00  0.00    +0.000 A 
ATOM     19  C   UNL     1       6.559  15.031  19.193  0.00  0.00    +0.000 A 
ATOM     20  C   UNL     1       5.901  15.022  17.964  0.00  0.00    +0.000 A 
ATOM     21  C   UNL     1       4.517  15.193  17.907  0.00  0.00    +0.000 A 
ENDBRANCH  15  16
ENDBRANCH  10  15
ENDBRANCH   4   7
BRANCH   1  25
ATOM     22  C   UNL     1       3.868   5.535  18.440  0.00  0.00    +0.000 A 
ATOM     23  C   UNL     1       3.125   5.646  19.605  0.00  0.00    +0.000 A 
ATOM     24  N   UNL     1       2.345   6.715  19.892  0.00  0.00    +0.000 NA
ATOM     25  C   UNL     1       2.295   7.704  18.974  0.00  0.00    +0.000 A 
ATOM     26  C   UNL     1       3.091   7.604  17.831  0.00  0.00    +0.000 A 
ATOM     27  N   UNL     1       3.884   6.546  17.539  0.00  0.00    +0.000 NA
BRANCH  22  28
ATOM     28  C   UNL     1       4.775   4.335  18.192  0.00  0.00    +0.000 C 
ATOM     29  C   UNL     1       5.303   4.304  16.745  0.00  0.00    +0.000 C 
ATOM     30  C   UNL     1       3.975   3.037  18.419  0.00  0.00    +0.000 C 
BRANCH  28  32
ATOM     31  C   UNL     1       6.827   5.347  19.004  0.00  0.00    +0.000 C 
ATOM     32  O   UNL     1       5.866   4.303  19.137  0.00  0.00    +0.000 OA
ENDBRANCH  28  32
ENDBRANCH  22  28
ENDBRANCH   1  25
TORSDOF 6
ENDMDL
MODEL 9
REMARK VINA RESULT:      -7.3      1.930      2.851
REMARK  Name = 
REMARK  11 active torsions:
REMARK  status: ('A' for Active; 'I' for Inactive)
REMARK    1  A    between atoms: C_1  and  O_2
REMARK    2  A    between atoms: O_2  and  C_3
REMARK    3  A    between atoms: C_3  and  C_4
REMARK    4  A    between atoms: C_3  and  C_5
REMARK    5  A    between atoms: C_3  and  C_6
REMARK    6  A    between atoms: C_9  and  N_10
REMARK    7  A    between atoms: C_13  and  C_14
REMARK    8  A    between atoms: C_17  and  C_18
REMARK    9  A    between atoms: C_18  and  C_19
REMARK   10  A    between atoms: C_25  and  C_26
REMARK   11  A    between atoms: C_27  and  C_28
REMARK                            x       y       z     vdW  Elec       q    Type
REMARK                         _______ _______ _______ _____ _____    ______ ____
ROOT
ATOM      1  N   UNL     1       1.405   8.645  19.542  0.00  0.00    +0.000 N 
ATOM      2  C   UNL     1       1.441   8.954  20.967  0.00  0.00    +0.000 C 
ATOM      3  C   UNL     1       0.043   9.374  21.421  0.00  0.00    +0.000 C 
ATOM      4  C   UNL     1      -0.490  10.546  20.588  0.00  0.00    +0.000 C 
ATOM      5  C   UNL     1      -0.571  10.006  19.131  0.00  0.00    +0.000 C 
ATOM      6  C   UNL     1       0.813   9.602  18.618  0.00  0.00    +0.000 C 
ENDROOT
BRANCH   4   7
ATOM      7  C   UNL     1       0.195  11.912  20.640  0.00  0.00    +0.000 A 
ATOM      8  N   UNL     1       1.467  11.844  21.103  0.00  0.00    +0.000 NA
ATOM      9  N   UNL     1       2.288  12.930  21.151  0.00  0.00    +0.000 NA
ATOM     10  C   UNL     1       1.892  14.098  20.616  0.00  0.00    +0.000 A 
ATOM     11  C   UNL     1       0.634  14.214  20.018  0.00  0.00    +0.000 A 
ATOM     12  C   UNL     1       0.247  15.466  19.273  0.00  0.00    +0.000 C 
ATOM     13  C   UNL     1      -0.283  13.130  20.137  0.00  0.00    +0.000 A 
ATOM     14  C   UNL     1      -1.705  13.356  19.698  0.00  0.00    +0.000 C 
BRANCH  10  15
ATOM     15  C   UNL     1       2.832  15.258  20.859  0.00  0.00    +0.000 C 
BRANCH  15  16
ATOM     16  C   UNL     1       4.103  15.117  20.046  0.00  0.00    +0.000 A 
ATOM     17  C   UNL     1       5.350  15.327  20.659  0.00  0.00    +0.000 A 
ATOM     18  C   UNL     1       6.515  15.382  19.896  0.00  0.00    +0.000 A 
ATOM     19  C   UNL     1       6.450  15.208  18.516  0.00  0.00    +0.000 A 
ATOM     20  C   UNL     1       5.226  14.938  17.905  0.00  0.00    +0.000 A 
ATOM     21  C   UNL     1       4.057  14.885  18.666  0.00  0.00    +0.000 A 
ENDBRANCH  15  16
ENDBRANCH  10  15
ENDBRANCH   4   7
BRANCH   1  25
ATOM     22  C   UNL     1       3.848   5.715  18.025  0.00  0.00    +0.000 A 
ATOM     23  C   UNL     1       3.208   5.591  19.247  0.00  0.00    +0.000 A 
ATOM     24  N   UNL     1       2.444   6.568  19.790  0.00  0.00    +0.000 NA
ATOM     25  C   UNL     1       2.303   7.707  19.079  0.00  0.00    +0.000 A 
ATOM     26  C   UNL     1       2.998   7.839  17.875  0.00  0.00    +0.000 A 
ATOM     27  N   UNL     1       3.775   6.874  17.327  0.00  0.00    +0.000 NA
BRANCH  22  28
ATOM     28  C   UNL     1       4.743   4.605  17.484  0.00  0.00    +0.000 C 
ATOM     29  C   UNL     1       5.212   4.896  16.046  0.00  0.00    +0.000 C 
ATOM     30  C   UNL     1       3.952   3.283  17.454  0.00  0.00    +0.000 C 
BRANCH  28  32
ATOM     31  C   UNL     1       7.141   4.763  17.834  0.00  0.00    +0.000 C 
ATOM     32  O   UNL     1       5.871   4.376  18.355  0.00  0.00    +0.000 OA
ENDBRANCH  28  32
ENDBRANCH  22  28
ENDBRANCH   1  25
TORSDOF 6
ENDMDL
