MODEL 1
REMARK VINA RESULT:      -7.6      0.000      0.000
REMARK  Name = 
REMARK  8 active torsions:
REMARK  status: ('A' for Active; 'I' for Inactive)
REMARK    1  A    between atoms: C_1  and  O_2
REMARK    2  A    between atoms: O_2  and  C_3
REMARK    3  A    between atoms: C_6  and  C_7
REMARK    4  A    between atoms: C_8  and  C_9
REMARK    5  A    between atoms: C_9  and  C_11
REMARK    6  A    between atoms: C_14  and  O_15
REMARK    7  A    between atoms: O_15  and  C_16
REMARK    8  A    between atoms: C_16  and  C_17
REMARK                            x       y       z     vdW  Elec       q    Type
REMARK                         _______ _______ _______ _____ _____    ______ ____
ROOT
ATOM      1  C   UNL     1       7.242   6.785  17.248  0.00  0.00    +0.000 C 
ATOM      2  O   UNL     1       7.688   6.198  16.268  0.00  0.00    +0.000 OA
ENDROOT
BRANCH   1   3
ATOM      3  C   UNL     1       5.902   6.461  17.801  0.00  0.00    +0.000 A 
ATOM      4  C   UNL     1       5.772   5.559  18.867  0.00  0.00    +0.000 A 
ATOM      5  C   UNL     1       4.518   5.273  19.396  0.00  0.00    +0.000 A 
ATOM      6  C   UNL     1       3.381   5.920  18.908  0.00  0.00    +0.000 A 
ATOM      7  C   UNL     1       3.502   6.794  17.825  0.00  0.00    +0.000 A 
ATOM      8  C   UNL     1       4.761   7.078  17.278  0.00  0.00    +0.000 A 
BRANCH   6   9
ATOM      9  O   UNL     1       2.125   5.780  19.436  0.00  0.00    +0.000 OA
BRANCH   9  10
ATOM     10  C   UNL     1       2.078   5.125  20.710  0.00  0.00    +0.000 C 
BRANCH  10  11
ATOM     11  C   UNL     1       1.214   3.913  20.601  0.00  0.00    +0.000 C 
ATOM     12  C   UNL     1       1.696   2.682  19.898  0.00  0.00    +0.000 C 
ATOM     13  S   UNL     1       1.582   2.563  21.617  0.00  0.00    +0.000 S 
ENDBRANCH  10  11
ENDBRANCH   9  10
ENDBRANCH   6   9
ENDBRANCH   1   3
BRANCH   1  15
ATOM     14  C   UNL     1       7.896   9.133  17.666  0.00  0.00    +0.000 C 
ATOM     15  C   UNL     1       8.007   7.832  17.973  0.00  0.00    +0.000 C 
BRANCH  14  19
ATOM     16  C   UNL     1      10.154  12.225  19.603  0.00  0.00    +0.000 A 
ATOM     17  C   UNL     1       9.545  12.441  18.367  0.00  0.00    +0.000 A 
ATOM     18  C   UNL     1       8.790  11.432  17.756  0.00  0.00    +0.000 A 
ATOM     19  C   UNL     1       8.661  10.179  18.363  0.00  0.00    +0.000 A 
ATOM     20  C   UNL     1       9.259   9.977  19.615  0.00  0.00    +0.000 A 
ATOM     21  C   UNL     1      10.011  10.988  20.226  0.00  0.00    +0.000 A 
BRANCH  16  23
ATOM     22  C   UNL     1      10.280  14.017  21.139  0.00  0.00    +0.000 C 
ATOM     23  O   UNL     1      10.884  13.275  20.085  0.00  0.00    +0.000 OA
ENDBRANCH  16  23
ENDBRANCH  14  19
ENDBRANCH   1  15
TORSDOF 7
ENDMDL
MODEL 2
REMARK VINA RESULT:      -7.5      0.490      1.120
REMARK  Name = 
REMARK  8 active torsions:
REMARK  status: ('A' for Active; 'I' for Inactive)
REMARK    1  A    between atoms: C_1  and  O_2
REMARK    2  A    between atoms: O_2  and  C_3
REMARK    3  A    between atoms: C_6  and  C_7
REMARK    4  A    between atoms: C_8  and  C_9
REMARK    5  A    between atoms: C_9  and  C_11
REMARK    6  A    between atoms: C_14  and  O_15
REMARK    7  A    between atoms: O_15  and  C_16
REMARK    8  A    between atoms: C_16  and  C_17
REMARK                            x       y       z     vdW  Elec       q    Type
REMARK                         _______ _______ _______ _____ _____    ______ ____
ROOT
ATOM      1  C   UNL     1       7.291   6.719  17.256  0.00  0.00    +0.000 C 
ATOM      2  O   UNL     1       7.749   6.055  16.331  0.00  0.00    +0.000 OA
ENDROOT
BRANCH   1   3
ATOM      3  C   UNL     1       5.925   6.471  17.785  0.00  0.00    +0.000 A 
ATOM      4  C   UNL     1       4.816   7.118  17.220  0.00  0.00    +0.000 A 
ATOM      5  C   UNL     1       3.536   6.868  17.704  0.00  0.00    +0.000 A 
ATOM      6  C   UNL     1       3.335   5.932  18.720  0.00  0.00    +0.000 A 
ATOM      7  C   UNL     1       4.440   5.311  19.307  0.00  0.00    +0.000 A 
ATOM      8  C   UNL     1       5.735   5.566  18.834  0.00  0.00    +0.000 A 
BRANCH   6   9
ATOM      9  O   UNL     1       2.106   5.546  19.185  0.00  0.00    +0.000 OA
BRANCH   9  10
ATOM     10  C   UNL     1       2.098   5.062  20.535  0.00  0.00    +0.000 C 
BRANCH  10  11
ATOM     11  C   UNL     1       1.175   3.894  20.627  0.00  0.00    +0.000 C 
ATOM     12  C   UNL     1       1.501   2.597  19.951  0.00  0.00    +0.000 C 
ATOM     13  S   UNL     1       1.619   2.591  21.674  0.00  0.00    +0.000 S 
ENDBRANCH  10  11
ENDBRANCH   9  10
ENDBRANCH   6   9
ENDBRANCH   1   3
BRANCH   1  15
ATOM     14  C   UNL     1       7.842   9.090  17.692  0.00  0.00    +0.000 C 
ATOM     15  C   UNL     1       8.065   7.790  17.935  0.00  0.00    +0.000 C 
BRANCH  14  19
ATOM     16  C   UNL     1      10.113  12.253  19.493  0.00  0.00    +0.000 A 
ATOM     17  C   UNL     1       9.462  12.434  18.273  0.00  0.00    +0.000 A 
ATOM     18  C   UNL     1       8.704  11.403  17.708  0.00  0.00    +0.000 A 
ATOM     19  C   UNL     1       8.613  10.161  18.342  0.00  0.00    +0.000 A 
ATOM     20  C   UNL     1       9.254   9.992  19.579  0.00  0.00    +0.000 A 
ATOM     21  C   UNL     1      10.009  11.027  20.145  0.00  0.00    +0.000 A 
BRANCH  16  23
ATOM     22  C   UNL     1      10.955  14.411  19.021  0.00  0.00    +0.000 C 
ATOM     23  O   UNL     1      10.842  13.323  19.931  0.00  0.00    +0.000 OA
ENDBRANCH  16  23
ENDBRANCH  14  19
ENDBRANCH   1  15
TORSDOF 7
ENDMDL
MODEL 3
REMARK VINA RESULT:      -7.3      0.931      1.060
REMARK  Name = 
REMARK  8 active torsions:
REMARK  status: ('A' for Active; 'I' for Inactive)
REMARK    1  A    between atoms: C_1  and  O_2
REMARK    2  A    between atoms: O_2  and  C_3
REMARK    3  A    between atoms: C_6  and  C_7
REMARK    4  A    between atoms: C_8  and  C_9
REMARK    5  A    between atoms: C_9  and  C_11
REMARK    6  A    between atoms: C_14  and  O_15
REMARK    7  A    between atoms: O_15  and  C_16
REMARK    8  A    between atoms: C_16  and  C_17
REMARK                            x       y       z     vdW  Elec       q    Type
REMARK                         _______ _______ _______ _____ _____    ______ ____
ROOT
ATOM      1  C   UNL     1       7.109   6.737  17.038  0.00  0.00    +0.000 C 
ATOM      2  O   UNL     1       7.703   5.898  16.369  0.00  0.00    +0.000 OA
ENDROOT
BRANCH   1   3
ATOM      3  C   UNL     1       5.826   6.419  17.717  0.00  0.00    +0.000 A 
ATOM      4  C   UNL     1       5.806   5.577  18.839  0.00  0.00    +0.000 A 
ATOM      5  C   UNL     1       4.607   5.297  19.485  0.00  0.00    +0.000 A 
ATOM      6  C   UNL     1       3.418   5.892  19.057  0.00  0.00    +0.000 A 
ATOM      7  C   UNL     1       3.429   6.704  17.921  0.00  0.00    +0.000 A 
ATOM      8  C   UNL     1       4.631   6.982  17.256  0.00  0.00    +0.000 A 
BRANCH   6   9
ATOM      9  O   UNL     1       2.213   5.758  19.694  0.00  0.00    +0.000 OA
BRANCH   9  10
ATOM     10  C   UNL     1       2.158   4.697  20.659  0.00  0.00    +0.000 C 
BRANCH  10  11
ATOM     11  C   UNL     1       1.237   3.635  20.160  0.00  0.00    +0.000 C 
ATOM     12  C   UNL     1       1.063   3.391  18.692  0.00  0.00    +0.000 C 
ATOM     13  S   UNL     1       1.938   2.176  19.552  0.00  0.00    +0.000 S 
ENDBRANCH  10  11
ENDBRANCH   9  10
ENDBRANCH   6   9
ENDBRANCH   1   3
BRANCH   1  15
ATOM     14  C   UNL     1       8.247   8.471  18.384  0.00  0.00    +0.000 C 
ATOM     15  C   UNL     1       7.630   8.112  17.248  0.00  0.00    +0.000 C 
BRANCH  14  19
ATOM     16  C   UNL     1       9.721  12.460  18.954  0.00  0.00    +0.000 A 
ATOM     17  C   UNL     1       8.901  12.139  17.873  0.00  0.00    +0.000 A 
ATOM     18  C   UNL     1       8.406  10.841  17.711  0.00  0.00    +0.000 A 
ATOM     19  C   UNL     1       8.752   9.833  18.616  0.00  0.00    +0.000 A 
ATOM     20  C   UNL     1       9.562  10.167  19.712  0.00  0.00    +0.000 A 
ATOM     21  C   UNL     1      10.053  11.468  19.874  0.00  0.00    +0.000 A 
BRANCH  16  23
ATOM     22  C   UNL     1      10.458  14.343  17.730  0.00  0.00    +0.000 C 
ATOM     23  O   UNL     1      10.162  13.753  18.991  0.00  0.00    +0.000 OA
ENDBRANCH  16  23
ENDBRANCH  14  19
ENDBRANCH   1  15
TORSDOF 7
ENDMDL
MODEL 4
REMARK VINA RESULT:      -7.3      0.428      1.072
REMARK  Name = 
REMARK  8 active torsions:
REMARK  status: ('A' for Active; 'I' for Inactive)
REMARK    1  A    between atoms: C_1  and  O_2
REMARK    2  A    between atoms: O_2  and  C_3
REMARK    3  A    between atoms: C_6  and  C_7
REMARK    4  A    between atoms: C_8  and  C_9
REMARK    5  A    between atoms: C_9  and  C_11
REMARK    6  A    between atoms: C_14  and  O_15
REMARK    7  A    between atoms: O_15  and  C_16
REMARK    8  A    between atoms: C_16  and  C_17
REMARK                            x       y       z     vdW  Elec       q    Type
REMARK                         _______ _______ _______ _____ _____    ______ ____
ROOT
ATOM      1  C   UNL     1       7.067   6.931  17.058  0.00  0.00    +0.000 C 
ATOM      2  O   UNL     1       7.698   6.120  16.389  0.00  0.00    +0.000 OA
ENDROOT
BRANCH   1   3
ATOM      3  C   UNL     1       5.760   6.578  17.670  0.00  0.00    +0.000 A 
ATOM      4  C   UNL     1       5.697   5.678  18.745  0.00  0.00    +0.000 A 
ATOM      5  C   UNL     1       4.474   5.366  19.329  0.00  0.00    +0.000 A 
ATOM      6  C   UNL     1       3.303   5.984  18.888  0.00  0.00    +0.000 A 
ATOM      7  C   UNL     1       3.357   6.856  17.798  0.00  0.00    +0.000 A 
ATOM      8  C   UNL     1       4.583   7.167  17.195  0.00  0.00    +0.000 A 
BRANCH   6   9
ATOM      9  O   UNL     1       2.074   5.818  19.471  0.00  0.00    +0.000 OA
BRANCH   9  10
ATOM     10  C   UNL     1       2.087   5.081  20.701  0.00  0.00    +0.000 C 
BRANCH  10  11
ATOM     11  C   UNL     1       1.287   3.833  20.527  0.00  0.00    +0.000 C 
ATOM     12  C   UNL     1       1.920   2.576  20.015  0.00  0.00    +0.000 C 
ATOM     13  S   UNL     1       1.496   2.569  21.689  0.00  0.00    +0.000 S 
ENDBRANCH  10  11
ENDBRANCH   9  10
ENDBRANCH   6   9
ENDBRANCH   1   3
BRANCH   1  15
ATOM     14  C   UNL     1       8.377   8.566  18.370  0.00  0.00    +0.000 C 
ATOM     15  C   UNL     1       7.564   8.303  17.336  0.00  0.00    +0.000 C 
BRANCH  14  19
ATOM     16  C   UNL     1       9.774  12.504  19.346  0.00  0.00    +0.000 A 
ATOM     17  C   UNL     1       9.883  11.452  20.255  0.00  0.00    +0.000 A 
ATOM     18  C   UNL     1       9.447  10.167  19.916  0.00  0.00    +0.000 A 
ATOM     19  C   UNL     1       8.864   9.922  18.670  0.00  0.00    +0.000 A 
ATOM     20  C   UNL     1       8.775  10.981  17.753  0.00  0.00    +0.000 A 
ATOM     21  C   UNL     1       9.216  12.266  18.093  0.00  0.00    +0.000 A 
BRANCH  16  23
ATOM     22  C   UNL     1      10.087  13.935  21.201  0.00  0.00    +0.000 C 
ATOM     23  O   UNL     1      10.211  13.717  19.801  0.00  0.00    +0.000 OA
ENDBRANCH  16  23
ENDBRANCH  14  19
ENDBRANCH   1  15
TORSDOF 7
ENDMDL
MODEL 5
REMARK VINA RESULT:      -7.1      1.252      1.641
REMARK  Name = 
REMARK  8 active torsions:
REMARK  status: ('A' for Active; 'I' for Inactive)
REMARK    1  A    between atoms: C_1  and  O_2
REMARK    2  A    between atoms: O_2  and  C_3
REMARK    3  A    between atoms: C_6  and  C_7
REMARK    4  A    between atoms: C_8  and  C_9
REMARK    5  A    between atoms: C_9  and  C_11
REMARK    6  A    between atoms: C_14  and  O_15
REMARK    7  A    between atoms: O_15  and  C_16
REMARK    8  A    between atoms: C_16  and  C_17
REMARK                            x       y       z     vdW  Elec       q    Type
REMARK                         _______ _______ _______ _____ _____    ______ ____
ROOT
ATOM      1  C   UNL     1       7.091   6.924  17.062  0.00  0.00    +0.000 C 
ATOM      2  O   UNL     1       7.661   6.224  16.232  0.00  0.00    +0.000 OA
ENDROOT
BRANCH   1   3
ATOM      3  C   UNL     1       5.926   6.417  17.833  0.00  0.00    +0.000 A 
ATOM      4  C   UNL     1       4.624   6.818  17.498  0.00  0.00    +0.000 A 
ATOM      5  C   UNL     1       3.533   6.326  18.207  0.00  0.00    +0.000 A 
ATOM      6  C   UNL     1       3.718   5.388  19.225  0.00  0.00    +0.000 A 
ATOM      7  C   UNL     1       5.014   5.011  19.582  0.00  0.00    +0.000 A 
ATOM      8  C   UNL     1       6.120   5.512  18.881  0.00  0.00    +0.000 A 
BRANCH   6   9
ATOM      9  O   UNL     1       2.700   4.772  19.903  0.00  0.00    +0.000 OA
BRANCH   9  10
ATOM     10  C   UNL     1       2.980   3.429  20.319  0.00  0.00    +0.000 C 
BRANCH  10  11
ATOM     11  C   UNL     1       2.095   2.493  19.566  0.00  0.00    +0.000 C 
ATOM     12  C   UNL     1       1.270   2.972  18.411  0.00  0.00    +0.000 C 
ATOM     13  S   UNL     1       2.615   1.968  18.003  0.00  0.00    +0.000 S 
ENDBRANCH  10  11
ENDBRANCH   9  10
ENDBRANCH   6   9
ENDBRANCH   1   3
BRANCH   1  15
ATOM     14  C   UNL     1       8.450   8.553  18.332  0.00  0.00    +0.000 C 
ATOM     15  C   UNL     1       7.531   8.305  17.386  0.00  0.00    +0.000 C 
BRANCH  14  19
ATOM     16  C   UNL     1       9.734  12.546  19.236  0.00  0.00    +0.000 A 
ATOM     17  C   UNL     1       9.148  12.235  18.010  0.00  0.00    +0.000 A 
ATOM     18  C   UNL     1       8.711  10.935  17.735  0.00  0.00    +0.000 A 
ATOM     19  C   UNL     1       8.883   9.916  18.677  0.00  0.00    +0.000 A 
ATOM     20  C   UNL     1       9.455  10.240  19.917  0.00  0.00    +0.000 A 
ATOM     21  C   UNL     1       9.889  11.543  20.191  0.00  0.00    +0.000 A 
BRANCH  16  23
ATOM     22  C   UNL     1      11.447  14.138  18.889  0.00  0.00    +0.000 C 
ATOM     23  O   UNL     1      10.143  13.842  19.377  0.00  0.00    +0.000 OA
ENDBRANCH  16  23
ENDBRANCH  14  19
ENDBRANCH   1  15
TORSDOF 7
ENDMDL
MODEL 6
REMARK VINA RESULT:      -7.0      0.499      1.505
REMARK  Name = 
REMARK  8 active torsions:
REMARK  status: ('A' for Active; 'I' for Inactive)
REMARK    1  A    between atoms: C_1  and  O_2
REMARK    2  A    between atoms: O_2  and  C_3
REMARK    3  A    between atoms: C_6  and  C_7
REMARK    4  A    between atoms: C_8  and  C_9
REMARK    5  A    between atoms: C_9  and  C_11
REMARK    6  A    between atoms: C_14  and  O_15
REMARK    7  A    between atoms: O_15  and  C_16
REMARK    8  A    between atoms: C_16  and  C_17
REMARK                            x       y       z     vdW  Elec       q    Type
REMARK                         _______ _______ _______ _____ _____    ______ ____
ROOT
ATOM      1  C   UNL     1       7.292   6.880  17.231  0.00  0.00    +0.000 C 
ATOM      2  O   UNL     1       7.758   6.268  16.276  0.00  0.00    +0.000 OA
ENDROOT
BRANCH   1   3
ATOM      3  C   UNL     1       5.932   6.584  17.751  0.00  0.00    +0.000 A 
ATOM      4  C   UNL     1       4.800   7.145  17.140  0.00  0.00    +0.000 A 
ATOM      5  C   UNL     1       3.527   6.849  17.616  0.00  0.00    +0.000 A 
ATOM      6  C   UNL     1       3.358   5.951  18.671  0.00  0.00    +0.000 A 
ATOM      7  C   UNL     1       4.484   5.416  19.302  0.00  0.00    +0.000 A 
ATOM      8  C   UNL     1       5.771   5.718  18.838  0.00  0.00    +0.000 A 
BRANCH   6   9
ATOM      9  O   UNL     1       2.143   5.522  19.134  0.00  0.00    +0.000 OA
BRANCH   9  10
ATOM     10  C   UNL     1       2.169   4.949  20.449  0.00  0.00    +0.000 C 
BRANCH  10  11
ATOM     11  C   UNL     1       1.949   3.477  20.342  0.00  0.00    +0.000 C 
ATOM     12  C   UNL     1       2.967   2.505  20.856  0.00  0.00    +0.000 C 
ATOM     13  S   UNL     1       1.510   2.617  21.776  0.00  0.00    +0.000 S 
ENDBRANCH  10  11
ENDBRANCH   9  10
ENDBRANCH   6   9
ENDBRANCH   1   3
BRANCH   1  15
ATOM     14  C   UNL     1       7.949   9.229  17.637  0.00  0.00    +0.000 C 
ATOM     15  C   UNL     1       8.050   7.931  17.959  0.00  0.00    +0.000 C 
BRANCH  14  19
ATOM     16  C   UNL     1      10.127  12.251  19.767  0.00  0.00    +0.000 A 
ATOM     17  C   UNL     1       9.948  10.975  20.302  0.00  0.00    +0.000 A 
ATOM     18  C   UNL     1       9.257   9.991  19.587  0.00  0.00    +0.000 A 
ATOM     19  C   UNL     1       8.707  10.279  18.335  0.00  0.00    +0.000 A 
ATOM     20  C   UNL     1       8.907  11.558  17.794  0.00  0.00    +0.000 A 
ATOM     21  C   UNL     1       9.602  12.541  18.510  0.00  0.00    +0.000 A 
BRANCH  16  23
ATOM     22  C   UNL     1      10.770  14.492  20.150  0.00  0.00    +0.000 C 
ATOM     23  O   UNL     1      10.796  13.133  20.568  0.00  0.00    +0.000 OA
ENDBRANCH  16  23
ENDBRANCH  14  19
ENDBRANCH   1  15
TORSDOF 7
ENDMDL
MODEL 7
REMARK VINA RESULT:      -6.9      1.152      1.432
REMARK  Name = 
REMARK  8 active torsions:
REMARK  status: ('A' for Active; 'I' for Inactive)
REMARK    1  A    between atoms: C_1  and  O_2
REMARK    2  A    between atoms: O_2  and  C_3
REMARK    3  A    between atoms: C_6  and  C_7
REMARK    4  A    between atoms: C_8  and  C_9
REMARK    5  A    between atoms: C_9  and  C_11
REMARK    6  A    between atoms: C_14  and  O_15
REMARK    7  A    between atoms: O_15  and  C_16
REMARK    8  A    between atoms: C_16  and  C_17
REMARK                            x       y       z     vdW  Elec       q    Type
REMARK                         _______ _______ _______ _____ _____    ______ ____
ROOT
ATOM      1  C   UNL     1       7.038   6.340  16.880  0.00  0.00    +0.000 C 
ATOM      2  O   UNL     1       7.691   5.853  15.962  0.00  0.00    +0.000 OA
ENDROOT
BRANCH   1   3
ATOM      3  C   UNL     1       5.683   5.831  17.219  0.00  0.00    +0.000 A 
ATOM      4  C   UNL     1       4.672   6.717  17.620  0.00  0.00    +0.000 A 
ATOM      5  C   UNL     1       3.399   6.241  17.918  0.00  0.00    +0.000 A 
ATOM      6  C   UNL     1       3.100   4.885  17.770  0.00  0.00    +0.000 A 
ATOM      7  C   UNL     1       4.113   3.996  17.403  0.00  0.00    +0.000 A 
ATOM      8  C   UNL     1       5.401   4.466  17.113  0.00  0.00    +0.000 A 
BRANCH   6   9
ATOM      9  O   UNL     1       1.852   4.346  17.938  0.00  0.00    +0.000 OA
BRANCH   9  10
ATOM     10  C   UNL     1       1.397   4.296  19.297  0.00  0.00    +0.000 C 
BRANCH  10  11
ATOM     11  C   UNL     1       1.741   2.964  19.875  0.00  0.00    +0.000 C 
ATOM     12  C   UNL     1       2.994   2.769  20.673  0.00  0.00    +0.000 C 
ATOM     13  S   UNL     1       1.522   2.738  21.575  0.00  0.00    +0.000 S 
ENDBRANCH  10  11
ENDBRANCH   9  10
ENDBRANCH   6   9
ENDBRANCH   1   3
BRANCH   1  15
ATOM     14  C   UNL     1       7.897   8.631  17.228  0.00  0.00    +0.000 C 
ATOM     15  C   UNL     1       7.551   7.439  17.737  0.00  0.00    +0.000 C 
BRANCH  14  19
ATOM     16  C   UNL     1       9.454  11.875  19.566  0.00  0.00    +0.000 A 
ATOM     17  C   UNL     1       8.797  12.105  18.358  0.00  0.00    +0.000 A 
ATOM     18  C   UNL     1       8.272  11.041  17.616  0.00  0.00    +0.000 A 
ATOM     19  C   UNL     1       8.425   9.724  18.060  0.00  0.00    +0.000 A 
ATOM     20  C   UNL     1       9.069   9.502  19.287  0.00  0.00    +0.000 A 
ATOM     21  C   UNL     1       9.591  10.568  20.029  0.00  0.00    +0.000 A 
BRANCH  16  23
ATOM     22  C   UNL     1      11.347  13.198  20.068  0.00  0.00    +0.000 C 
ATOM     23  O   UNL     1       9.944  12.990  20.186  0.00  0.00    +0.000 OA
ENDBRANCH  16  23
ENDBRANCH  14  19
ENDBRANCH   1  15
TORSDOF 7
ENDMDL
MODEL 8
REMARK VINA RESULT:      -6.9      1.117      1.828
REMARK  Name = 
REMARK  8 active torsions:
REMARK  status: ('A' for Active; 'I' for Inactive)
REMARK    1  A    between atoms: C_1  and  O_2
REMARK    2  A    between atoms: O_2  and  C_3
REMARK    3  A    between atoms: C_6  and  C_7
REMARK    4  A    between atoms: C_8  and  C_9
REMARK    5  A    between atoms: C_9  and  C_11
REMARK    6  A    between atoms: C_14  and  O_15
REMARK    7  A    between atoms: O_15  and  C_16
REMARK    8  A    between atoms: C_16  and  C_17
REMARK                            x       y       z     vdW  Elec       q    Type
REMARK                         _______ _______ _______ _____ _____    ______ ____
ROOT
ATOM      1  C   UNL     1       7.429   7.167  17.321  0.00  0.00    +0.000 C 
ATOM      2  O   UNL     1       7.958   6.667  16.333  0.00  0.00    +0.000 OA
ENDROOT
BRANCH   1   3
ATOM      3  C   UNL     1       6.128   6.670  17.837  0.00  0.00    +0.000 A 
ATOM      4  C   UNL     1       4.922   7.162  17.315  0.00  0.00    +0.000 A 
ATOM      5  C   UNL     1       3.705   6.679  17.785  0.00  0.00    +0.000 A 
ATOM      6  C   UNL     1       3.670   5.664  18.744  0.00  0.00    +0.000 A 
ATOM      7  C   UNL     1       4.868   5.196  19.289  0.00  0.00    +0.000 A 
ATOM      8  C   UNL     1       6.098   5.685  18.830  0.00  0.00    +0.000 A 
BRANCH   6   9
ATOM      9  O   UNL     1       2.525   5.057  19.187  0.00  0.00    +0.000 OA
BRANCH   9  10
ATOM     10  C   UNL     1       1.681   4.537  18.150  0.00  0.00    +0.000 C 
BRANCH  10  11
ATOM     11  C   UNL     1       1.845   3.054  18.090  0.00  0.00    +0.000 C 
ATOM     12  C   UNL     1       2.433   2.296  19.240  0.00  0.00    +0.000 C 
ATOM     13  S   UNL     1       0.737   2.080  18.992  0.00  0.00    +0.000 S 
ENDBRANCH  10  11
ENDBRANCH   9  10
ENDBRANCH   6   9
ENDBRANCH   1   3
BRANCH   1  15
ATOM     14  C   UNL     1       8.169   9.511  17.588  0.00  0.00    +0.000 C 
ATOM     15  C   UNL     1       8.053   8.274  18.092  0.00  0.00    +0.000 C 
BRANCH  14  19
ATOM     16  C   UNL     1       9.987  12.674  19.846  0.00  0.00    +0.000 A 
ATOM     17  C   UNL     1       9.980  11.362  20.316  0.00  0.00    +0.000 A 
ATOM     18  C   UNL     1       9.406  10.334  19.560  0.00  0.00    +0.000 A 
ATOM     19  C   UNL     1       8.800  10.613  18.331  0.00  0.00    +0.000 A 
ATOM     20  C   UNL     1       8.828  11.932  17.855  0.00  0.00    +0.000 A 
ATOM     21  C   UNL     1       9.406  12.959  18.613  0.00  0.00    +0.000 A 
BRANCH  16  23
ATOM     22  C   UNL     1      11.536  14.440  20.102  0.00  0.00    +0.000 C 
ATOM     23  O   UNL     1      10.553  13.593  20.685  0.00  0.00    +0.000 OA
ENDBRANCH  16  23
ENDBRANCH  14  19
ENDBRANCH   1  15
TORSDOF 7
ENDMDL
MODEL 9
REMARK VINA RESULT:      -6.9      0.846      1.653
REMARK  Name = 
REMARK  8 active torsions:
REMARK  status: ('A' for Active; 'I' for Inactive)
REMARK    1  A    between atoms: C_1  and  O_2
REMARK    2  A    between atoms: O_2  and  C_3
REMARK    3  A    between atoms: C_6  and  C_7
REMARK    4  A    between atoms: C_8  and  C_9
REMARK    5  A    between atoms: C_9  and  C_11
REMARK    6  A    between atoms: C_14  and  O_15
REMARK    7  A    between atoms: O_15  and  C_16
REMARK    8  A    between atoms: C_16  and  C_17
REMARK                            x       y       z     vdW  Elec       q    Type
REMARK                         _______ _______ _______ _____ _____    ______ ____
ROOT
ATOM      1  C   UNL     1       7.317   7.339  17.201  0.00  0.00    +0.000 C 
ATOM      2  O   UNL     1       8.038   6.842  16.342  0.00  0.00    +0.000 OA
ENDROOT
BRANCH   1   3
ATOM      3  C   UNL     1       6.160   6.597  17.765  0.00  0.00    +0.000 A 
ATOM      4  C   UNL     1       4.855   6.887  17.339  0.00  0.00    +0.000 A 
ATOM      5  C   UNL     1       3.775   6.177  17.853  0.00  0.00    +0.000 A 
ATOM      6  C   UNL     1       3.982   5.133  18.758  0.00  0.00    +0.000 A 
ATOM      7  C   UNL     1       5.277   4.864  19.208  0.00  0.00    +0.000 A 
ATOM      8  C   UNL     1       6.369   5.583  18.705  0.00  0.00    +0.000 A 
BRANCH   6   9
ATOM      9  O   UNL     1       2.993   4.314  19.234  0.00  0.00    +0.000 OA
BRANCH   9  10
ATOM     10  C   UNL     1       2.000   4.973  20.032  0.00  0.00    +0.000 C 
BRANCH  10  11
ATOM     11  C   UNL     1       0.973   3.974  20.451  0.00  0.00    +0.000 C 
ATOM     12  C   UNL     1       0.983   2.581  19.902  0.00  0.00    +0.000 C 
ATOM     13  S   UNL     1       1.455   2.735  21.556  0.00  0.00    +0.000 S 
ENDBRANCH  10  11
ENDBRANCH   9  10
ENDBRANCH   6   9
ENDBRANCH   1   3
BRANCH   1  15
ATOM     14  C   UNL     1       8.782   9.104  18.125  0.00  0.00    +0.000 C 
ATOM     15  C   UNL     1       7.557   8.693  17.765  0.00  0.00    +0.000 C 
BRANCH  14  19
ATOM     16  C   UNL     1       9.482  12.946  19.902  0.00  0.00    +0.000 A 
ATOM     17  C   UNL     1       9.608  11.772  20.644  0.00  0.00    +0.000 A 
ATOM     18  C   UNL     1       9.401  10.523  20.048  0.00  0.00    +0.000 A 
ATOM     19  C   UNL     1       9.034  10.434  18.702  0.00  0.00    +0.000 A 
ATOM     20  C   UNL     1       8.929  11.617  17.956  0.00  0.00    +0.000 A 
ATOM     21  C   UNL     1       9.139  12.866  18.554  0.00  0.00    +0.000 A 
BRANCH  16  23
ATOM     22  C   UNL     1       9.070  14.168  21.882  0.00  0.00    +0.000 C 
ATOM     23  O   UNL     1       9.683  14.103  20.600  0.00  0.00    +0.000 OA
ENDBRANCH  16  23
ENDBRANCH  14  19
ENDBRANCH   1  15
TORSDOF 7
ENDMDL
