MODEL 1
REMARK VINA RESULT:      -7.2      0.000      0.000
REMARK  Name = 
REMARK  11 active torsions:
REMARK  status: ('A' for Active; 'I' for Inactive)
REMARK    1  A    between atoms: C_2  and  C_3
REMARK    2  A    between atoms: C_3  and  C_4
REMARK    3  A    between atoms: C_4  and  C_5
REMARK    4  A    between atoms: C_5  and  C_6
REMARK    5  A    between atoms: C_6  and  C_7
REMARK    6  A    between atoms: C_7  and  C_8
REMARK    7  A    between atoms: C_8  and  C_9
REMARK    8  A    between atoms: C_9  and  C_10
REMARK    9  A    between atoms: C_10  and  N_11
REMARK   10  A    between atoms: C_15  and  C_16
REMARK   11  A    between atoms: N_20  and  C_21
REMARK                            x       y       z     vdW  Elec       q    Type
REMARK                         _______ _______ _______ _____ _____    ______ ____
ROOT
ATOM      1  N   UNL     1       4.507   6.182  17.469  0.00  0.00    +0.000 N 
ATOM      2  C   UNL     1       3.708   7.253  17.671  0.00  0.00    +0.000 A 
ATOM      3  C   UNL     1       2.657   7.185  18.568  0.00  0.00    +0.000 A 
ATOM      4  C   UNL     1       2.456   6.012  19.285  0.00  0.00    +0.000 A 
ATOM      5  C   UNL     1       3.308   4.918  19.098  0.00  0.00    +0.000 A 
ATOM      6  C   UNL     1       4.313   5.031  18.141  0.00  0.00    +0.000 A 
ENDROOT
BRANCH   5   7
ATOM      7  C   UNL     1       3.283   3.657  19.940  0.00  0.00    +0.000 C 
ATOM      8  C   UNL     1       4.307   2.586  19.556  0.00  0.00    +0.000 C 
ATOM      9  C   UNL     1       3.584   1.658  18.581  0.00  0.00    +0.000 C 
ATOM     10  C   UNL     1       2.117   2.063  18.642  0.00  0.00    +0.000 C 
ATOM     11  N   UNL     1       2.032   2.902  19.836  0.00  0.00    +0.000 NA
ATOM     12  C   UNL     1       0.770   3.609  19.956  0.00  0.00    +0.000 C 
ENDBRANCH   5   7
BRANCH   1  13
ATOM     13  C   UNL     1       5.617   6.272  16.505  0.00  0.00    +0.000 C 
BRANCH  13  14
ATOM     14  C   UNL     1       5.255   5.489  15.247  0.00  0.00    +0.000 C 
BRANCH  14  15
ATOM     15  C   UNL     1       6.494   4.957  14.525  0.00  0.00    +0.000 C 
BRANCH  15  16
ATOM     16  C   UNL     1       6.193   3.662  13.776  0.00  0.00    +0.000 C 
BRANCH  16  17
ATOM     17  C   UNL     1       6.442   3.792  12.281  0.00  0.00    +0.000 C 
BRANCH  17  18
ATOM     18  C   UNL     1       5.577   2.782  11.529  0.00  0.00    +0.000 C 
BRANCH  18  19
ATOM     19  C   UNL     1       4.095   3.038  11.775  0.00  0.00    +0.000 C 
BRANCH  19  20
ATOM     20  C   UNL     1       3.325   3.059  10.458  0.00  0.00    +0.000 C 
BRANCH  20  22
ATOM     21  C   UNL     1       2.355   4.797   8.938  0.00  0.00    +0.000 C 
ATOM     22  C   UNL     1       3.070   4.468  10.019  0.00  0.00    +0.000 C 
ENDBRANCH  20  22
ENDBRANCH  19  20
ENDBRANCH  18  19
ENDBRANCH  17  18
ENDBRANCH  16  17
ENDBRANCH  15  16
ENDBRANCH  14  15
ENDBRANCH  13  14
ENDBRANCH   1  13
TORSDOF 10
ENDMDL
MODEL 2
REMARK VINA RESULT:      -7.0      3.270      6.321
REMARK  Name = 
REMARK  11 active torsions:
REMARK  status: ('A' for Active; 'I' for Inactive)
REMARK    1  A    between atoms: C_2  and  C_3
REMARK    2  A    between atoms: C_3  and  C_4
REMARK    3  A    between atoms: C_4  and  C_5
REMARK    4  A    between atoms: C_5  and  C_6
REMARK    5  A    between atoms: C_6  and  C_7
REMARK    6  A    between atoms: C_7  and  C_8
REMARK    7  A    between atoms: C_8  and  C_9
REMARK    8  A    between atoms: C_9  and  C_10
REMARK    9  A    between atoms: C_10  and  N_11
REMARK   10  A    between atoms: C_15  and  C_16
REMARK   11  A    between atoms: N_20  and  C_21
REMARK                            x       y       z     vdW  Elec       q    Type
REMARK                         _______ _______ _______ _____ _____    ______ ____
ROOT
ATOM      1  N   UNL     1       4.467   4.865  16.843  0.00  0.00    +0.000 N 
ATOM      2  C   UNL     1       4.353   6.192  17.071  0.00  0.00    +0.000 A 
ATOM      3  C   UNL     1       3.318   6.683  17.848  0.00  0.00    +0.000 A 
ATOM      4  C   UNL     1       2.420   5.791  18.419  0.00  0.00    +0.000 A 
ATOM      5  C   UNL     1       2.564   4.415  18.208  0.00  0.00    +0.000 A 
ATOM      6  C   UNL     1       3.592   3.988  17.373  0.00  0.00    +0.000 A 
ENDROOT
BRANCH   5   7
ATOM      7  C   UNL     1       1.747   3.349  18.912  0.00  0.00    +0.000 C 
ATOM      8  C   UNL     1       0.951   3.824  20.130  0.00  0.00    +0.000 C 
ATOM      9  C   UNL     1       1.860   3.577  21.334  0.00  0.00    +0.000 C 
ATOM     10  C   UNL     1       3.018   2.739  20.808  0.00  0.00    +0.000 C 
ATOM     11  N   UNL     1       2.554   2.278  19.500  0.00  0.00    +0.000 NA
ATOM     12  C   UNL     1       3.598   1.663  18.701  0.00  0.00    +0.000 C 
ENDBRANCH   5   7
BRANCH   1  13
ATOM     13  C   UNL     1       5.571   4.361  16.007  0.00  0.00    +0.000 C 
BRANCH  13  14
ATOM     14  C   UNL     1       6.849   5.119  16.353  0.00  0.00    +0.000 C 
BRANCH  14  15
ATOM     15  C   UNL     1       7.443   4.664  17.687  0.00  0.00    +0.000 C 
BRANCH  15  16
ATOM     16  C   UNL     1       7.661   5.841  18.633  0.00  0.00    +0.000 C 
BRANCH  16  17
ATOM     17  C   UNL     1       7.643   7.176  17.904  0.00  0.00    +0.000 C 
BRANCH  17  18
ATOM     18  C   UNL     1       8.588   8.152  18.603  0.00  0.00    +0.000 C 
BRANCH  18  19
ATOM     19  C   UNL     1       8.375   9.575  18.102  0.00  0.00    +0.000 C 
BRANCH  19  20
ATOM     20  C   UNL     1       9.334  10.540  18.794  0.00  0.00    +0.000 C 
BRANCH  20  22
ATOM     21  C   UNL     1      10.233  12.838  18.364  0.00  0.00    +0.000 C 
ATOM     22  C   UNL     1       9.522  11.776  17.969  0.00  0.00    +0.000 C 
ENDBRANCH  20  22
ENDBRANCH  19  20
ENDBRANCH  18  19
ENDBRANCH  17  18
ENDBRANCH  16  17
ENDBRANCH  15  16
ENDBRANCH  14  15
ENDBRANCH  13  14
ENDBRANCH   1  13
TORSDOF 10
ENDMDL
MODEL 3
REMARK VINA RESULT:      -6.7      4.336      7.615
REMARK  Name = 
REMARK  11 active torsions:
REMARK  status: ('A' for Active; 'I' for Inactive)
REMARK    1  A    between atoms: C_2  and  C_3
REMARK    2  A    between atoms: C_3  and  C_4
REMARK    3  A    between atoms: C_4  and  C_5
REMARK    4  A    between atoms: C_5  and  C_6
REMARK    5  A    between atoms: C_6  and  C_7
REMARK    6  A    between atoms: C_7  and  C_8
REMARK    7  A    between atoms: C_8  and  C_9
REMARK    8  A    between atoms: C_9  and  C_10
REMARK    9  A    between atoms: C_10  and  N_11
REMARK   10  A    between atoms: C_15  and  C_16
REMARK   11  A    between atoms: N_20  and  C_21
REMARK                            x       y       z     vdW  Elec       q    Type
REMARK                         _______ _______ _______ _____ _____    ______ ____
ROOT
ATOM      1  N   UNL     1       4.975   5.554  17.507  0.00  0.00    +0.000 N 
ATOM      2  C   UNL     1       4.271   6.700  17.636  0.00  0.00    +0.000 A 
ATOM      3  C   UNL     1       2.917   6.664  17.920  0.00  0.00    +0.000 A 
ATOM      4  C   UNL     1       2.299   5.434  18.106  0.00  0.00    +0.000 A 
ATOM      5  C   UNL     1       3.040   4.252  18.006  0.00  0.00    +0.000 A 
ATOM      6  C   UNL     1       4.386   4.353  17.665  0.00  0.00    +0.000 A 
ENDROOT
BRANCH   5   7
ATOM      7  C   UNL     1       2.508   2.874  18.350  0.00  0.00    +0.000 C 
ATOM      8  C   UNL     1       1.001   2.792  18.602  0.00  0.00    +0.000 C 
ATOM      9  C   UNL     1       0.826   2.970  20.110  0.00  0.00    +0.000 C 
ATOM     10  C   UNL     1       2.229   2.882  20.697  0.00  0.00    +0.000 C 
ATOM     11  N   UNL     1       3.034   2.335  19.607  0.00  0.00    +0.000 NA
ATOM     12  C   UNL     1       4.462   2.397  19.856  0.00  0.00    +0.000 C 
ENDBRANCH   5   7
BRANCH   1  13
ATOM     13  C   UNL     1       6.414   5.613  17.198  0.00  0.00    +0.000 C 
BRANCH  13  14
ATOM     14  C   UNL     1       6.816   7.062  16.948  0.00  0.00    +0.000 C 
BRANCH  14  15
ATOM     15  C   UNL     1       7.872   7.546  17.944  0.00  0.00    +0.000 C 
BRANCH  15  16
ATOM     16  C   UNL     1       8.073   9.056  17.859  0.00  0.00    +0.000 C 
BRANCH  16  17
ATOM     17  C   UNL     1       8.985   9.577  18.959  0.00  0.00    +0.000 C 
BRANCH  17  18
ATOM     18  C   UNL     1       9.269  11.060  18.727  0.00  0.00    +0.000 C 
BRANCH  18  19
ATOM     19  C   UNL     1      10.760  11.356  18.829  0.00  0.00    +0.000 C 
BRANCH  19  20
ATOM     20  C   UNL     1      11.026  12.445  19.864  0.00  0.00    +0.000 C 
BRANCH  20  22
ATOM     21  C   UNL     1       9.704  13.283  21.818  0.00  0.00    +0.000 C 
ATOM     22  C   UNL     1      10.127  12.274  21.050  0.00  0.00    +0.000 C 
ENDBRANCH  20  22
ENDBRANCH  19  20
ENDBRANCH  18  19
ENDBRANCH  17  18
ENDBRANCH  16  17
ENDBRANCH  15  16
ENDBRANCH  14  15
ENDBRANCH  13  14
ENDBRANCH   1  13
TORSDOF 10
ENDMDL
MODEL 4
REMARK VINA RESULT:      -6.7      4.020      6.989
REMARK  Name = 
REMARK  11 active torsions:
REMARK  status: ('A' for Active; 'I' for Inactive)
REMARK    1  A    between atoms: C_2  and  C_3
REMARK    2  A    between atoms: C_3  and  C_4
REMARK    3  A    between atoms: C_4  and  C_5
REMARK    4  A    between atoms: C_5  and  C_6
REMARK    5  A    between atoms: C_6  and  C_7
REMARK    6  A    between atoms: C_7  and  C_8
REMARK    7  A    between atoms: C_8  and  C_9
REMARK    8  A    between atoms: C_9  and  C_10
REMARK    9  A    between atoms: C_10  and  N_11
REMARK   10  A    between atoms: C_15  and  C_16
REMARK   11  A    between atoms: N_20  and  C_21
REMARK                            x       y       z     vdW  Elec       q    Type
REMARK                         _______ _______ _______ _____ _____    ______ ____
ROOT
ATOM      1  N   UNL     1       5.498   4.678  18.567  0.00  0.00    +0.000 N 
ATOM      2  C   UNL     1       5.586   4.416  17.244  0.00  0.00    +0.000 A 
ATOM      3  C   UNL     1       4.453   4.096  16.515  0.00  0.00    +0.000 A 
ATOM      4  C   UNL     1       3.221   4.083  17.155  0.00  0.00    +0.000 A 
ATOM      5  C   UNL     1       3.131   4.390  18.517  0.00  0.00    +0.000 A 
ATOM      6  C   UNL     1       4.312   4.650  19.205  0.00  0.00    +0.000 A 
ENDROOT
BRANCH   5   7
ATOM      7  C   UNL     1       1.828   4.567  19.272  0.00  0.00    +0.000 C 
ATOM      8  C   UNL     1       1.947   5.227  20.648  0.00  0.00    +0.000 C 
ATOM      9  C   UNL     1       2.085   4.076  21.644  0.00  0.00    +0.000 C 
ATOM     10  C   UNL     1       1.779   2.811  20.852  0.00  0.00    +0.000 C 
ATOM     11  N   UNL     1       1.170   3.305  19.619  0.00  0.00    +0.000 NA
ATOM     12  C   UNL     1       1.021   2.285  18.599  0.00  0.00    +0.000 C 
ENDBRANCH   5   7
BRANCH   1  13
ATOM     13  C   UNL     1       6.715   5.010  19.327  0.00  0.00    +0.000 C 
BRANCH  13  14
ATOM     14  C   UNL     1       7.779   5.535  18.369  0.00  0.00    +0.000 C 
BRANCH  14  15
ATOM     15  C   UNL     1       8.129   6.998  18.647  0.00  0.00    +0.000 C 
BRANCH  15  16
ATOM     16  C   UNL     1       7.804   7.889  17.452  0.00  0.00    +0.000 C 
BRANCH  16  17
ATOM     17  C   UNL     1       7.910   9.368  17.792  0.00  0.00    +0.000 C 
BRANCH  17  18
ATOM     18  C   UNL     1       9.109   9.597  18.710  0.00  0.00    +0.000 C 
BRANCH  18  19
ATOM     19  C   UNL     1       9.247  11.069  19.076  0.00  0.00    +0.000 C 
BRANCH  19  20
ATOM     20  C   UNL     1      10.597  11.616  18.619  0.00  0.00    +0.000 C 
BRANCH  20  22
ATOM     21  C   UNL     1      11.192  13.096  16.689  0.00  0.00    +0.000 C 
ATOM     22  C   UNL     1      10.408  12.809  17.734  0.00  0.00    +0.000 C 
ENDBRANCH  20  22
ENDBRANCH  19  20
ENDBRANCH  18  19
ENDBRANCH  17  18
ENDBRANCH  16  17
ENDBRANCH  15  16
ENDBRANCH  14  15
ENDBRANCH  13  14
ENDBRANCH   1  13
TORSDOF 10
ENDMDL
MODEL 5
REMARK VINA RESULT:      -6.7      3.489      6.354
REMARK  Name = 
REMARK  11 active torsions:
REMARK  status: ('A' for Active; 'I' for Inactive)
REMARK    1  A    between atoms: C_2  and  C_3
REMARK    2  A    between atoms: C_3  and  C_4
REMARK    3  A    between atoms: C_4  and  C_5
REMARK    4  A    between atoms: C_5  and  C_6
REMARK    5  A    between atoms: C_6  and  C_7
REMARK    6  A    between atoms: C_7  and  C_8
REMARK    7  A    between atoms: C_8  and  C_9
REMARK    8  A    between atoms: C_9  and  C_10
REMARK    9  A    between atoms: C_10  and  N_11
REMARK   10  A    between atoms: C_15  and  C_16
REMARK   11  A    between atoms: N_20  and  C_21
REMARK                            x       y       z     vdW  Elec       q    Type
REMARK                         _______ _______ _______ _____ _____    ______ ____
ROOT
ATOM      1  N   UNL     1       3.878   6.340  17.654  0.00  0.00    +0.000 N 
ATOM      2  C   UNL     1       3.126   7.351  18.142  0.00  0.00    +0.000 A 
ATOM      3  C   UNL     1       2.304   7.149  19.237  0.00  0.00    +0.000 A 
ATOM      4  C   UNL     1       2.291   5.902  19.849  0.00  0.00    +0.000 A 
ATOM      5  C   UNL     1       3.097   4.869  19.361  0.00  0.00    +0.000 A 
ATOM      6  C   UNL     1       3.860   5.120  18.224  0.00  0.00    +0.000 A 
ENDROOT
BRANCH   5   7
ATOM      7  C   UNL     1       3.284   3.529  20.046  0.00  0.00    +0.000 C 
ATOM      8  C   UNL     1       4.259   2.568  19.361  0.00  0.00    +0.000 C 
ATOM      9  C   UNL     1       3.402   1.702  18.439  0.00  0.00    +0.000 C 
ATOM     10  C   UNL     1       1.958   2.009  18.815  0.00  0.00    +0.000 C 
ATOM     11  N   UNL     1       2.068   2.713  20.091  0.00  0.00    +0.000 NA
ATOM     12  C   UNL     1       0.825   3.326  20.521  0.00  0.00    +0.000 C 
ENDBRANCH   5   7
BRANCH   1  13
ATOM     13  C   UNL     1       4.741   6.573  16.483  0.00  0.00    +0.000 C 
BRANCH  13  14
ATOM     14  C   UNL     1       5.850   5.527  16.459  0.00  0.00    +0.000 C 
BRANCH  14  15
ATOM     15  C   UNL     1       7.195   6.105  16.903  0.00  0.00    +0.000 C 
BRANCH  15  16
ATOM     16  C   UNL     1       7.060   7.556  17.356  0.00  0.00    +0.000 C 
BRANCH  16  17
ATOM     17  C   UNL     1       8.180   7.971  18.297  0.00  0.00    +0.000 C 
BRANCH  17  18
ATOM     18  C   UNL     1       8.512   9.446  18.077  0.00  0.00    +0.000 C 
BRANCH  18  19
ATOM     19  C   UNL     1       9.232  10.033  19.285  0.00  0.00    +0.000 C 
BRANCH  19  20
ATOM     20  C   UNL     1       9.410  11.540  19.128  0.00  0.00    +0.000 C 
BRANCH  20  22
ATOM     21  C   UNL     1      11.509  11.804  17.789  0.00  0.00    +0.000 C 
ATOM     22  C   UNL     1      10.176  11.852  17.880  0.00  0.00    +0.000 C 
ENDBRANCH  20  22
ENDBRANCH  19  20
ENDBRANCH  18  19
ENDBRANCH  17  18
ENDBRANCH  16  17
ENDBRANCH  15  16
ENDBRANCH  14  15
ENDBRANCH  13  14
ENDBRANCH   1  13
TORSDOF 10
ENDMDL
MODEL 6
REMARK VINA RESULT:      -6.6      3.841      6.885
REMARK  Name = 
REMARK  11 active torsions:
REMARK  status: ('A' for Active; 'I' for Inactive)
REMARK    1  A    between atoms: C_2  and  C_3
REMARK    2  A    between atoms: C_3  and  C_4
REMARK    3  A    between atoms: C_4  and  C_5
REMARK    4  A    between atoms: C_5  and  C_6
REMARK    5  A    between atoms: C_6  and  C_7
REMARK    6  A    between atoms: C_7  and  C_8
REMARK    7  A    between atoms: C_8  and  C_9
REMARK    8  A    between atoms: C_9  and  C_10
REMARK    9  A    between atoms: C_10  and  N_11
REMARK   10  A    between atoms: C_15  and  C_16
REMARK   11  A    between atoms: N_20  and  C_21
REMARK                            x       y       z     vdW  Elec       q    Type
REMARK                         _______ _______ _______ _____ _____    ______ ____
ROOT
ATOM      1  N   UNL     1       2.982   6.604  18.396  0.00  0.00    +0.000 N 
ATOM      2  C   UNL     1       3.980   6.707  17.491  0.00  0.00    +0.000 A 
ATOM      3  C   UNL     1       4.622   5.574  17.021  0.00  0.00    +0.000 A 
ATOM      4  C   UNL     1       4.201   4.328  17.465  0.00  0.00    +0.000 A 
ATOM      5  C   UNL     1       3.144   4.224  18.376  0.00  0.00    +0.000 A 
ATOM      6  C   UNL     1       2.577   5.403  18.852  0.00  0.00    +0.000 A 
ENDROOT
BRANCH   5   7
ATOM      7  C   UNL     1       2.500   2.918  18.798  0.00  0.00    +0.000 C 
ATOM      8  C   UNL     1       1.040   3.017  19.248  0.00  0.00    +0.000 C 
ATOM      9  C   UNL     1       1.090   3.201  20.764  0.00  0.00    +0.000 C 
ATOM     10  C   UNL     1       2.537   2.938  21.160  0.00  0.00    +0.000 C 
ATOM     11  N   UNL     1       3.118   2.308  19.977  0.00  0.00    +0.000 NA
ATOM     12  C   UNL     1       4.564   2.194  20.035  0.00  0.00    +0.000 C 
ENDBRANCH   5   7
BRANCH   1  13
ATOM     13  C   UNL     1       2.316   7.822  18.889  0.00  0.00    +0.000 C 
BRANCH  13  14
ATOM     14  C   UNL     1       2.231   8.842  17.759  0.00  0.00    +0.000 C 
BRANCH  14  15
ATOM     15  C   UNL     1       1.506  10.118  18.190  0.00  0.00    +0.000 C 
BRANCH  15  16
ATOM     16  C   UNL     1       0.890   9.971  19.578  0.00  0.00    +0.000 C 
BRANCH  16  17
ATOM     17  C   UNL     1      -0.626  10.096  19.550  0.00  0.00    +0.000 C 
BRANCH  17  18
ATOM     18  C   UNL     1      -1.127   9.916  18.118  0.00  0.00    +0.000 C 
BRANCH  18  19
ATOM     19  C   UNL     1      -2.136  10.997  17.750  0.00  0.00    +0.000 C 
BRANCH  19  20
ATOM     20  C   UNL     1      -3.228  10.432  16.845  0.00  0.00    +0.000 C 
BRANCH  20  22
ATOM     21  C   UNL     1      -3.169  10.046  14.372  0.00  0.00    +0.000 C 
ATOM     22  C   UNL     1      -3.004  10.853  15.425  0.00  0.00    +0.000 C 
ENDBRANCH  20  22
ENDBRANCH  19  20
ENDBRANCH  18  19
ENDBRANCH  17  18
ENDBRANCH  16  17
ENDBRANCH  15  16
ENDBRANCH  14  15
ENDBRANCH  13  14
ENDBRANCH   1  13
TORSDOF 10
ENDMDL
MODEL 7
REMARK VINA RESULT:      -6.6      3.949      7.162
REMARK  Name = 
REMARK  11 active torsions:
REMARK  status: ('A' for Active; 'I' for Inactive)
REMARK    1  A    between atoms: C_2  and  C_3
REMARK    2  A    between atoms: C_3  and  C_4
REMARK    3  A    between atoms: C_4  and  C_5
REMARK    4  A    between atoms: C_5  and  C_6
REMARK    5  A    between atoms: C_6  and  C_7
REMARK    6  A    between atoms: C_7  and  C_8
REMARK    7  A    between atoms: C_8  and  C_9
REMARK    8  A    between atoms: C_9  and  C_10
REMARK    9  A    between atoms: C_10  and  N_11
REMARK   10  A    between atoms: C_15  and  C_16
REMARK   11  A    between atoms: N_20  and  C_21
REMARK                            x       y       z     vdW  Elec       q    Type
REMARK                         _______ _______ _______ _____ _____    ______ ____
ROOT
ATOM      1  N   UNL     1       2.768   6.785  18.637  0.00  0.00    +0.000 N 
ATOM      2  C   UNL     1       3.719   6.969  17.694  0.00  0.00    +0.000 A 
ATOM      3  C   UNL     1       4.362   5.883  17.125  0.00  0.00    +0.000 A 
ATOM      4  C   UNL     1       3.990   4.602  17.509  0.00  0.00    +0.000 A 
ATOM      5  C   UNL     1       2.981   4.416  18.460  0.00  0.00    +0.000 A 
ATOM      6  C   UNL     1       2.411   5.549  19.035  0.00  0.00    +0.000 A 
ENDROOT
BRANCH   5   7
ATOM      7  C   UNL     1       2.386   3.071  18.829  0.00  0.00    +0.000 C 
ATOM      8  C   UNL     1       0.943   3.104  19.338  0.00  0.00    +0.000 C 
ATOM      9  C   UNL     1       1.048   3.201  20.860  0.00  0.00    +0.000 C 
ATOM     10  C   UNL     1       2.515   2.956  21.185  0.00  0.00    +0.000 C 
ATOM     11  N   UNL     1       3.065   2.410  19.946  0.00  0.00    +0.000 NA
ATOM     12  C   UNL     1       4.514   2.332  19.941  0.00  0.00    +0.000 C 
ENDBRANCH   5   7
BRANCH   1  13
ATOM     13  C   UNL     1       2.100   7.953  19.236  0.00  0.00    +0.000 C 
BRANCH  13  14
ATOM     14  C   UNL     1       1.613   7.591  20.635  0.00  0.00    +0.000 C 
BRANCH  14  15
ATOM     15  C   UNL     1       0.838   8.737  21.288  0.00  0.00    +0.000 C 
BRANCH  15  16
ATOM     16  C   UNL     1       0.776   9.961  20.380  0.00  0.00    +0.000 C 
BRANCH  16  17
ATOM     17  C   UNL     1      -0.654  10.391  20.090  0.00  0.00    +0.000 C 
BRANCH  17  18
ATOM     18  C   UNL     1      -0.882  10.424  18.580  0.00  0.00    +0.000 C 
BRANCH  18  19
ATOM     19  C   UNL     1      -2.295  10.888  18.249  0.00  0.00    +0.000 C 
BRANCH  19  20
ATOM     20  C   UNL     1      -3.035   9.829  17.437  0.00  0.00    +0.000 C 
BRANCH  20  22
ATOM     21  C   UNL     1      -3.148  10.356  14.991  0.00  0.00    +0.000 C 
ATOM     22  C   UNL     1      -2.522   9.792  16.030  0.00  0.00    +0.000 C 
ENDBRANCH  20  22
ENDBRANCH  19  20
ENDBRANCH  18  19
ENDBRANCH  17  18
ENDBRANCH  16  17
ENDBRANCH  15  16
ENDBRANCH  14  15
ENDBRANCH  13  14
ENDBRANCH   1  13
TORSDOF 10
ENDMDL
MODEL 8
REMARK VINA RESULT:      -6.5      4.134      6.977
REMARK  Name = 
REMARK  11 active torsions:
REMARK  status: ('A' for Active; 'I' for Inactive)
REMARK    1  A    between atoms: C_2  and  C_3
REMARK    2  A    between atoms: C_3  and  C_4
REMARK    3  A    between atoms: C_4  and  C_5
REMARK    4  A    between atoms: C_5  and  C_6
REMARK    5  A    between atoms: C_6  and  C_7
REMARK    6  A    between atoms: C_7  and  C_8
REMARK    7  A    between atoms: C_8  and  C_9
REMARK    8  A    between atoms: C_9  and  C_10
REMARK    9  A    between atoms: C_10  and  N_11
REMARK   10  A    between atoms: C_15  and  C_16
REMARK   11  A    between atoms: N_20  and  C_21
REMARK                            x       y       z     vdW  Elec       q    Type
REMARK                         _______ _______ _______ _____ _____    ______ ____
ROOT
ATOM      1  N   UNL     1       4.672   5.628  17.871  0.00  0.00    +0.000 N 
ATOM      2  C   UNL     1       4.276   6.908  17.697  0.00  0.00    +0.000 A 
ATOM      3  C   UNL     1       2.948   7.260  17.864  0.00  0.00    +0.000 A 
ATOM      4  C   UNL     1       2.035   6.287  18.248  0.00  0.00    +0.000 A 
ATOM      5  C   UNL     1       2.457   4.970  18.461  0.00  0.00    +0.000 A 
ATOM      6  C   UNL     1       3.795   4.669  18.224  0.00  0.00    +0.000 A 
ENDROOT
BRANCH   5   7
ATOM      7  C   UNL     1       1.585   3.873  19.038  0.00  0.00    +0.000 C 
ATOM      8  C   UNL     1       1.098   4.101  20.471  0.00  0.00    +0.000 C 
ATOM      9  C   UNL     1       2.130   3.418  21.368  0.00  0.00    +0.000 C 
ATOM     10  C   UNL     1       3.014   2.607  20.430  0.00  0.00    +0.000 C 
ATOM     11  N   UNL     1       2.269   2.584  19.173  0.00  0.00    +0.000 NA
ATOM     12  C   UNL     1       3.039   2.075  18.054  0.00  0.00    +0.000 C 
ENDBRANCH   5   7
BRANCH   1  13
ATOM     13  C   UNL     1       6.089   5.271  17.682  0.00  0.00    +0.000 C 
BRANCH  13  14
ATOM     14  C   UNL     1       6.852   5.537  18.975  0.00  0.00    +0.000 C 
BRANCH  14  15
ATOM     15  C   UNL     1       7.960   6.574  18.785  0.00  0.00    +0.000 C 
BRANCH  15  16
ATOM     16  C   UNL     1       7.769   7.370  17.497  0.00  0.00    +0.000 C 
BRANCH  16  17
ATOM     17  C   UNL     1       7.711   8.869  17.750  0.00  0.00    +0.000 C 
BRANCH  17  18
ATOM     18  C   UNL     1       8.854   9.275  18.679  0.00  0.00    +0.000 C 
BRANCH  18  19
ATOM     19  C   UNL     1       9.398  10.649  18.311  0.00  0.00    +0.000 C 
BRANCH  19  20
ATOM     20  C   UNL     1       9.239  11.623  19.475  0.00  0.00    +0.000 C 
BRANCH  20  22
ATOM     21  C   UNL     1      11.705  11.837  19.856  0.00  0.00    +0.000 C 
ATOM     22  C   UNL     1      10.471  11.629  20.327  0.00  0.00    +0.000 C 
ENDBRANCH  20  22
ENDBRANCH  19  20
ENDBRANCH  18  19
ENDBRANCH  17  18
ENDBRANCH  16  17
ENDBRANCH  15  16
ENDBRANCH  14  15
ENDBRANCH  13  14
ENDBRANCH   1  13
TORSDOF 10
ENDMDL
MODEL 9
REMARK VINA RESULT:      -6.5      4.183      7.049
REMARK  Name = 
REMARK  11 active torsions:
REMARK  status: ('A' for Active; 'I' for Inactive)
REMARK    1  A    between atoms: C_2  and  C_3
REMARK    2  A    between atoms: C_3  and  C_4
REMARK    3  A    between atoms: C_4  and  C_5
REMARK    4  A    between atoms: C_5  and  C_6
REMARK    5  A    between atoms: C_6  and  C_7
REMARK    6  A    between atoms: C_7  and  C_8
REMARK    7  A    between atoms: C_8  and  C_9
REMARK    8  A    between atoms: C_9  and  C_10
REMARK    9  A    between atoms: C_10  and  N_11
REMARK   10  A    between atoms: C_15  and  C_16
REMARK   11  A    between atoms: N_20  and  C_21
REMARK                            x       y       z     vdW  Elec       q    Type
REMARK                         _______ _______ _______ _____ _____    ______ ____
ROOT
ATOM      1  N   UNL     1       4.764   6.009  17.215  0.00  0.00    +0.000 N 
ATOM      2  C   UNL     1       4.036   7.099  17.540  0.00  0.00    +0.000 A 
ATOM      3  C   UNL     1       2.752   6.963  18.038  0.00  0.00    +0.000 A 
ATOM      4  C   UNL     1       2.236   5.689  18.234  0.00  0.00    +0.000 A 
ATOM      5  C   UNL     1       3.007   4.562  17.928  0.00  0.00    +0.000 A 
ATOM      6  C   UNL     1       4.270   4.766  17.379  0.00  0.00    +0.000 A 
ENDROOT
BRANCH   5   7
ATOM      7  C   UNL     1       2.610   3.135  18.255  0.00  0.00    +0.000 C 
ATOM      8  C   UNL     1       1.112   2.900  18.468  0.00  0.00    +0.000 C 
ATOM      9  C   UNL     1       0.883   3.050  19.971  0.00  0.00    +0.000 C 
ATOM     10  C   UNL     1       2.273   3.102  20.593  0.00  0.00    +0.000 C 
ATOM     11  N   UNL     1       3.156   2.645  19.523  0.00  0.00    +0.000 NA
ATOM     12  C   UNL     1       4.564   2.850  19.808  0.00  0.00    +0.000 C 
ENDBRANCH   5   7
BRANCH   1  13
ATOM     13  C   UNL     1       6.126   6.174  16.679  0.00  0.00    +0.000 C 
BRANCH  13  14
ATOM     14  C   UNL     1       7.048   6.664  17.790  0.00  0.00    +0.000 C 
BRANCH  14  15
ATOM     15  C   UNL     1       8.035   7.722  17.294  0.00  0.00    +0.000 C 
BRANCH  15  16
ATOM     16  C   UNL     1       7.741   9.091  17.899  0.00  0.00    +0.000 C 
BRANCH  16  17
ATOM     17  C   UNL     1       8.858   9.566  18.816  0.00  0.00    +0.000 C 
BRANCH  17  18
ATOM     18  C   UNL     1       9.651  10.673  18.125  0.00  0.00    +0.000 C 
BRANCH  18  19
ATOM     19  C   UNL     1       8.786  11.905  17.893  0.00  0.00    +0.000 C 
BRANCH  19  20
ATOM     20  C   UNL     1       9.620  13.179  17.995  0.00  0.00    +0.000 C 
BRANCH  20  22
ATOM     21  C   UNL     1      11.681  14.087  16.900  0.00  0.00    +0.000 C 
ATOM     22  C   UNL     1      10.858  13.065  17.160  0.00  0.00    +0.000 C 
ENDBRANCH  20  22
ENDBRANCH  19  20
ENDBRANCH  18  19
ENDBRANCH  17  18
ENDBRANCH  16  17
ENDBRANCH  15  16
ENDBRANCH  14  15
ENDBRANCH  13  14
ENDBRANCH   1  13
TORSDOF 10
ENDMDL
