MODEL 1
REMARK VINA RESULT:      -8.0      0.000      0.000
REMARK  Name = 
REMARK  6 active torsions:
REMARK  status: ('A' for Active; 'I' for Inactive)
REMARK    1  A    between atoms: C_1  and  O_2
REMARK    2  A    between atoms: O_2  and  C_3
REMARK    3  A    between atoms: C_6  and  C_7
REMARK    4  A    between atoms: C_7  and  C_8
REMARK    5  A    between atoms: C_8  and  N_9
REMARK    6  A    between atoms: C_10  and  C_12
REMARK                            x       y       z     vdW  Elec       q    Type
REMARK                         _______ _______ _______ _____ _____    ______ ____
ROOT
ATOM      1  N   UNL     1       7.107   8.066  17.921  0.00  0.00    +0.000 N 
ATOM      2  C   UNL     1       6.977   6.854  17.287  0.00  0.00    +0.000 C 
ATOM      3  O   UNL     1       7.672   6.544  16.323  0.00  0.00    +0.000 OA
ATOM      4  H   UNL     1       6.488   8.284  18.700  0.00  0.00    +0.000 HD
ENDROOT
BRANCH   2   5
ATOM      5  C   UNL     1       5.972   5.913  17.857  0.00  0.00    +0.000 A 
ATOM      6  C   UNL     1       6.428   4.822  18.489  0.00  0.00    +0.000 A 
ATOM      7  N   UNL     1       5.661   3.895  19.137  0.00  0.00    +0.000 NA
ATOM      8  C   UNL     1       4.378   4.090  19.144  0.00  0.00    +0.000 A 
ATOM      9  C   UNL     1       3.514   3.131  19.888  0.00  0.00    +0.000 A 
ATOM     10  C   UNL     1       2.188   3.307  19.908  0.00  0.00    +0.000 A 
ATOM     11  C   UNL     1       1.590   4.406  19.199  0.00  0.00    +0.000 A 
ATOM     12  C   UNL     1       2.362   5.276  18.538  0.00  0.00    +0.000 A 
ATOM     13  N   UNL     1       3.748   5.151  18.504  0.00  0.00    +0.000 N 
ATOM     14  C   UNL     1       4.506   6.104  17.822  0.00  0.00    +0.000 A 
ATOM     15  O   UNL     1       4.024   7.068  17.220  0.00  0.00    +0.000 OA
ENDBRANCH   2   5
BRANCH   1  16
ATOM     16  C   UNL     1       8.135   9.008  17.517  0.00  0.00    +0.000 C 
BRANCH  16  17
ATOM     17  C   UNL     1       8.822   9.684  18.701  0.00  0.00    +0.000 C 
BRANCH  17  21
ATOM     18  C   UNL     1      10.690  13.400  17.506  0.00  0.00    +0.000 A 
ATOM     19  C   UNL     1       9.301  13.270  17.498  0.00  0.00    +0.000 A 
ATOM     20  C   UNL     1       8.694  12.077  17.901  0.00  0.00    +0.000 A 
ATOM     21  C   UNL     1       9.474  10.986  18.303  0.00  0.00    +0.000 A 
ATOM     22  C   UNL     1      10.870  11.113  18.285  0.00  0.00    +0.000 A 
ATOM     23  C   UNL     1      11.474  12.313  17.893  0.00  0.00    +0.000 A 
BRANCH  18  25
ATOM     24  C   UNL     1      11.200  15.645  18.047  0.00  0.00    +0.000 C 
ATOM     25  O   UNL     1      11.166  14.607  17.074  0.00  0.00    +0.000 OA
ENDBRANCH  18  25
ENDBRANCH  17  21
ENDBRANCH  16  17
ENDBRANCH   1  16
TORSDOF 5
ENDMDL
MODEL 2
REMARK VINA RESULT:      -8.0      1.585      2.044
REMARK  Name = 
REMARK  6 active torsions:
REMARK  status: ('A' for Active; 'I' for Inactive)
REMARK    1  A    between atoms: C_1  and  O_2
REMARK    2  A    between atoms: O_2  and  C_3
REMARK    3  A    between atoms: C_6  and  C_7
REMARK    4  A    between atoms: C_7  and  C_8
REMARK    5  A    between atoms: C_8  and  N_9
REMARK    6  A    between atoms: C_10  and  C_12
REMARK                            x       y       z     vdW  Elec       q    Type
REMARK                         _______ _______ _______ _____ _____    ______ ____
ROOT
ATOM      1  N   UNL     1       6.901   7.406  17.688  0.00  0.00    +0.000 N 
ATOM      2  C   UNL     1       6.823   6.260  16.934  0.00  0.00    +0.000 C 
ATOM      3  O   UNL     1       7.640   6.002  16.053  0.00  0.00    +0.000 OA
ATOM      4  H   UNL     1       6.183   7.585  18.388  0.00  0.00    +0.000 HD
ENDROOT
BRANCH   2   5
ATOM      5  C   UNL     1       5.716   5.321  17.268  0.00  0.00    +0.000 A 
ATOM      6  C   UNL     1       5.063   4.741  16.252  0.00  0.00    +0.000 A 
ATOM      7  N   UNL     1       4.078   3.799  16.368  0.00  0.00    +0.000 NA
ATOM      8  C   UNL     1       3.749   3.433  17.568  0.00  0.00    +0.000 A 
ATOM      9  C   UNL     1       2.720   2.370  17.734  0.00  0.00    +0.000 A 
ATOM     10  C   UNL     1       2.360   1.976  18.961  0.00  0.00    +0.000 A 
ATOM     11  C   UNL     1       2.946   2.590  20.122  0.00  0.00    +0.000 A 
ATOM     12  C   UNL     1       3.879   3.538  19.979  0.00  0.00    +0.000 A 
ATOM     13  N   UNL     1       4.306   3.968  18.725  0.00  0.00    +0.000 N 
ATOM     14  C   UNL     1       5.302   4.941  18.636  0.00  0.00    +0.000 A 
ATOM     15  O   UNL     1       5.838   5.472  19.613  0.00  0.00    +0.000 OA
ENDBRANCH   2   5
BRANCH   1  16
ATOM     16  C   UNL     1       8.008   8.331  17.520  0.00  0.00    +0.000 C 
BRANCH  16  17
ATOM     17  C   UNL     1       8.661   8.724  18.843  0.00  0.00    +0.000 C 
BRANCH  17  21
ATOM     18  C   UNL     1       9.785  12.902  18.918  0.00  0.00    +0.000 A 
ATOM     19  C   UNL     1      10.190  12.040  19.938  0.00  0.00    +0.000 A 
ATOM     20  C   UNL     1       9.844  10.686  19.907  0.00  0.00    +0.000 A 
ATOM     21  C   UNL     1       9.069  10.178  18.858  0.00  0.00    +0.000 A 
ATOM     22  C   UNL     1       8.643  11.052  17.849  0.00  0.00    +0.000 A 
ATOM     23  C   UNL     1       9.001  12.404  17.877  0.00  0.00    +0.000 A 
BRANCH  18  25
ATOM     24  C   UNL     1      11.561  14.463  18.920  0.00  0.00    +0.000 C 
ATOM     25  O   UNL     1      10.169  14.206  19.068  0.00  0.00    +0.000 OA
ENDBRANCH  18  25
ENDBRANCH  17  21
ENDBRANCH  16  17
ENDBRANCH   1  16
TORSDOF 5
ENDMDL
MODEL 3
REMARK VINA RESULT:      -8.0      1.001      1.711
REMARK  Name = 
REMARK  6 active torsions:
REMARK  status: ('A' for Active; 'I' for Inactive)
REMARK    1  A    between atoms: C_1  and  O_2
REMARK    2  A    between atoms: O_2  and  C_3
REMARK    3  A    between atoms: C_6  and  C_7
REMARK    4  A    between atoms: C_7  and  C_8
REMARK    5  A    between atoms: C_8  and  N_9
REMARK    6  A    between atoms: C_10  and  C_12
REMARK                            x       y       z     vdW  Elec       q    Type
REMARK                         _______ _______ _______ _____ _____    ______ ____
ROOT
ATOM      1  N   UNL     1       7.012   8.132  17.809  0.00  0.00    +0.000 N 
ATOM      2  C   UNL     1       6.751   6.925  17.208  0.00  0.00    +0.000 C 
ATOM      3  O   UNL     1       7.479   6.460  16.334  0.00  0.00    +0.000 OA
ATOM      4  H   UNL     1       6.362   8.485  18.510  0.00  0.00    +0.000 HD
ENDROOT
BRANCH   2   5
ATOM      5  C   UNL     1       5.556   6.184  17.701  0.00  0.00    +0.000 A 
ATOM      6  C   UNL     1       4.349   6.706  17.440  0.00  0.00    +0.000 A 
ATOM      7  N   UNL     1       3.147   6.129  17.744  0.00  0.00    +0.000 NA
ATOM      8  C   UNL     1       3.178   4.973  18.334  0.00  0.00    +0.000 A 
ATOM      9  C   UNL     1       1.889   4.289  18.631  0.00  0.00    +0.000 A 
ATOM     10  C   UNL     1       1.893   3.098  19.241  0.00  0.00    +0.000 A 
ATOM     11  C   UNL     1       3.133   2.485  19.630  0.00  0.00    +0.000 A 
ATOM     12  C   UNL     1       4.294   3.090  19.356  0.00  0.00    +0.000 A 
ATOM     13  N   UNL     1       4.348   4.319  18.704  0.00  0.00    +0.000 N 
ATOM     14  C   UNL     1       5.588   4.891  18.420  0.00  0.00    +0.000 A 
ATOM     15  O   UNL     1       6.670   4.382  18.723  0.00  0.00    +0.000 OA
ENDBRANCH   2   5
BRANCH   1  16
ATOM     16  C   UNL     1       8.214   8.879  17.484  0.00  0.00    +0.000 C 
BRANCH  16  17
ATOM     17  C   UNL     1       8.794   9.626  18.682  0.00  0.00    +0.000 C 
BRANCH  17  21
ATOM     18  C   UNL     1      10.529  13.401  17.473  0.00  0.00    +0.000 A 
ATOM     19  C   UNL     1       9.146  13.261  17.588  0.00  0.00    +0.000 A 
ATOM     20  C   UNL     1       8.583  12.048  17.996  0.00  0.00    +0.000 A 
ATOM     21  C   UNL     1       9.402  10.948  18.279  0.00  0.00    +0.000 A 
ATOM     22  C   UNL     1      10.789  11.086  18.138  0.00  0.00    +0.000 A 
ATOM     23  C   UNL     1      11.350  12.305  17.741  0.00  0.00    +0.000 A 
BRANCH  18  25
ATOM     24  C   UNL     1      12.333  14.919  17.279  0.00  0.00    +0.000 C 
ATOM     25  O   UNL     1      10.959  14.628  17.048  0.00  0.00    +0.000 OA
ENDBRANCH  18  25
ENDBRANCH  17  21
ENDBRANCH  16  17
ENDBRANCH   1  16
TORSDOF 5
ENDMDL
MODEL 4
REMARK VINA RESULT:      -7.9      1.390      2.060
REMARK  Name = 
REMARK  6 active torsions:
REMARK  status: ('A' for Active; 'I' for Inactive)
REMARK    1  A    between atoms: C_1  and  O_2
REMARK    2  A    between atoms: O_2  and  C_3
REMARK    3  A    between atoms: C_6  and  C_7
REMARK    4  A    between atoms: C_7  and  C_8
REMARK    5  A    between atoms: C_8  and  N_9
REMARK    6  A    between atoms: C_10  and  C_12
REMARK                            x       y       z     vdW  Elec       q    Type
REMARK                         _______ _______ _______ _____ _____    ______ ____
ROOT
ATOM      1  N   UNL     1       6.927   8.211  17.882  0.00  0.00    +0.000 N 
ATOM      2  C   UNL     1       6.773   6.994  17.262  0.00  0.00    +0.000 C 
ATOM      3  O   UNL     1       7.615   6.545  16.488  0.00  0.00    +0.000 OA
ATOM      4  H   UNL     1       6.186   8.548  18.495  0.00  0.00    +0.000 HD
ENDROOT
BRANCH   2   5
ATOM      5  C   UNL     1       5.547   6.224  17.610  0.00  0.00    +0.000 A 
ATOM      6  C   UNL     1       4.360   6.780  17.328  0.00  0.00    +0.000 A 
ATOM      7  N   UNL     1       3.139   6.191  17.504  0.00  0.00    +0.000 NA
ATOM      8  C   UNL     1       3.128   4.985  17.982  0.00  0.00    +0.000 A 
ATOM      9  C   UNL     1       1.820   4.290  18.136  0.00  0.00    +0.000 A 
ATOM     10  C   UNL     1       1.780   3.047  18.630  0.00  0.00    +0.000 A 
ATOM     11  C   UNL     1       2.992   2.386  19.034  0.00  0.00    +0.000 A 
ATOM     12  C   UNL     1       4.170   3.002  18.888  0.00  0.00    +0.000 A 
ATOM     13  N   UNL     1       4.270   4.286  18.359  0.00  0.00    +0.000 N 
ATOM     14  C   UNL     1       5.528   4.869  18.205  0.00  0.00    +0.000 A 
ATOM     15  O   UNL     1       6.587   4.321  18.524  0.00  0.00    +0.000 OA
ENDBRANCH   2   5
BRANCH   1  16
ATOM     16  C   UNL     1       8.140   8.988  17.701  0.00  0.00    +0.000 C 
BRANCH  16  17
ATOM     17  C   UNL     1       8.916   9.193  19.000  0.00  0.00    +0.000 C 
BRANCH  17  21
ATOM     18  C   UNL     1      10.645  13.153  19.208  0.00  0.00    +0.000 A 
ATOM     19  C   UNL     1      10.278  12.478  20.372  0.00  0.00    +0.000 A 
ATOM     20  C   UNL     1       9.735  11.192  20.309  0.00  0.00    +0.000 A 
ATOM     21  C   UNL     1       9.537  10.567  19.072  0.00  0.00    +0.000 A 
ATOM     22  C   UNL     1       9.885  11.258  17.904  0.00  0.00    +0.000 A 
ATOM     23  C   UNL     1      10.438  12.542  17.971  0.00  0.00    +0.000 A 
BRANCH  18  25
ATOM     24  C   UNL     1      10.404  15.471  18.802  0.00  0.00    +0.000 C 
ATOM     25  O   UNL     1      11.147  14.412  19.396  0.00  0.00    +0.000 OA
ENDBRANCH  18  25
ENDBRANCH  17  21
ENDBRANCH  16  17
ENDBRANCH   1  16
TORSDOF 5
ENDMDL
MODEL 5
REMARK VINA RESULT:      -7.8      1.681      1.832
REMARK  Name = 
REMARK  6 active torsions:
REMARK  status: ('A' for Active; 'I' for Inactive)
REMARK    1  A    between atoms: C_1  and  O_2
REMARK    2  A    between atoms: O_2  and  C_3
REMARK    3  A    between atoms: C_6  and  C_7
REMARK    4  A    between atoms: C_7  and  C_8
REMARK    5  A    between atoms: C_8  and  N_9
REMARK    6  A    between atoms: C_10  and  C_12
REMARK                            x       y       z     vdW  Elec       q    Type
REMARK                         _______ _______ _______ _____ _____    ______ ____
ROOT
ATOM      1  N   UNL     1       6.479   6.965  17.707  0.00  0.00    +0.000 N 
ATOM      2  C   UNL     1       5.541   6.536  16.799  0.00  0.00    +0.000 C 
ATOM      3  O   UNL     1       5.494   6.973  15.652  0.00  0.00    +0.000 OA
ATOM      4  H   UNL     1       6.457   6.588  18.653  0.00  0.00    +0.000 HD
ENDROOT
BRANCH   2   5
ATOM      5  C   UNL     1       4.603   5.476  17.266  0.00  0.00    +0.000 A 
ATOM      6  C   UNL     1       4.803   4.228  16.823  0.00  0.00    +0.000 A 
ATOM      7  N   UNL     1       4.095   3.121  17.204  0.00  0.00    +0.000 NA
ATOM      8  C   UNL     1       3.148   3.296  18.074  0.00  0.00    +0.000 A 
ATOM      9  C   UNL     1       2.392   2.106  18.555  0.00  0.00    +0.000 A 
ATOM     10  C   UNL     1       1.409   2.259  19.450  0.00  0.00    +0.000 A 
ATOM     11  C   UNL     1       1.065   3.568  19.935  0.00  0.00    +0.000 A 
ATOM     12  C   UNL     1       1.748   4.639  19.514  0.00  0.00    +0.000 A 
ATOM     13  N   UNL     1       2.794   4.533  18.601  0.00  0.00    +0.000 N 
ATOM     14  C   UNL     1       3.489   5.680  18.219  0.00  0.00    +0.000 A 
ATOM     15  O   UNL     1       3.231   6.814  18.631  0.00  0.00    +0.000 OA
ENDBRANCH   2   5
BRANCH   1  16
ATOM     16  C   UNL     1       7.510   7.909  17.317  0.00  0.00    +0.000 C 
BRANCH  16  17
ATOM     17  C   UNL     1       8.482   8.231  18.450  0.00  0.00    +0.000 C 
BRANCH  17  21
ATOM     18  C   UNL     1       9.246  12.478  18.766  0.00  0.00    +0.000 A 
ATOM     19  C   UNL     1       8.537  11.963  17.679  0.00  0.00    +0.000 A 
ATOM     20  C   UNL     1       8.274  10.594  17.584  0.00  0.00    +0.000 A 
ATOM     21  C   UNL     1       8.733   9.714  18.571  0.00  0.00    +0.000 A 
ATOM     22  C   UNL     1       9.465  10.232  19.648  0.00  0.00    +0.000 A 
ATOM     23  C   UNL     1       9.718  11.605  19.747  0.00  0.00    +0.000 A 
BRANCH  18  25
ATOM     24  C   UNL     1      10.448  14.320  19.635  0.00  0.00    +0.000 C 
ATOM     25  O   UNL     1       9.457  13.829  18.739  0.00  0.00    +0.000 OA
ENDBRANCH  18  25
ENDBRANCH  17  21
ENDBRANCH  16  17
ENDBRANCH   1  16
TORSDOF 5
ENDMDL
MODEL 6
REMARK VINA RESULT:      -7.8      1.577      1.776
REMARK  Name = 
REMARK  6 active torsions:
REMARK  status: ('A' for Active; 'I' for Inactive)
REMARK    1  A    between atoms: C_1  and  O_2
REMARK    2  A    between atoms: O_2  and  C_3
REMARK    3  A    between atoms: C_6  and  C_7
REMARK    4  A    between atoms: C_7  and  C_8
REMARK    5  A    between atoms: C_8  and  N_9
REMARK    6  A    between atoms: C_10  and  C_12
REMARK                            x       y       z     vdW  Elec       q    Type
REMARK                         _______ _______ _______ _____ _____    ______ ____
ROOT
ATOM      1  N   UNL     1       6.846   7.670  17.590  0.00  0.00    +0.000 N 
ATOM      2  C   UNL     1       6.828   6.559  16.781  0.00  0.00    +0.000 C 
ATOM      3  O   UNL     1       7.709   6.339  15.954  0.00  0.00    +0.000 OA
ATOM      4  H   UNL     1       6.077   7.819  18.241  0.00  0.00    +0.000 HD
ENDROOT
BRANCH   2   5
ATOM      5  C   UNL     1       5.698   5.609  16.987  0.00  0.00    +0.000 A 
ATOM      6  C   UNL     1       5.927   4.310  16.753  0.00  0.00    +0.000 A 
ATOM      7  N   UNL     1       5.039   3.291  16.962  0.00  0.00    +0.000 NA
ATOM      8  C   UNL     1       3.872   3.612  17.431  0.00  0.00    +0.000 A 
ATOM      9  C   UNL     1       2.897   2.524  17.723  0.00  0.00    +0.000 A 
ATOM     10  C   UNL     1       1.686   2.828  18.205  0.00  0.00    +0.000 A 
ATOM     11  C   UNL     1       1.313   4.200  18.422  0.00  0.00    +0.000 A 
ATOM     12  C   UNL     1       2.188   5.179  18.170  0.00  0.00    +0.000 A 
ATOM     13  N   UNL     1       3.469   4.917  17.690  0.00  0.00    +0.000 N 
ATOM     14  C   UNL     1       4.350   5.977  17.472  0.00  0.00    +0.000 A 
ATOM     15  O   UNL     1       4.067   7.162  17.666  0.00  0.00    +0.000 OA
ENDBRANCH   2   5
BRANCH   1  16
ATOM     16  C   UNL     1       7.962   8.598  17.549  0.00  0.00    +0.000 C 
BRANCH  16  17
ATOM     17  C   UNL     1       8.618   8.801  18.914  0.00  0.00    +0.000 C 
BRANCH  17  21
ATOM     18  C   UNL     1      10.153  12.819  19.377  0.00  0.00    +0.000 A 
ATOM     19  C   UNL     1      10.151  11.932  20.454  0.00  0.00    +0.000 A 
ATOM     20  C   UNL     1       9.672  10.628  20.303  0.00  0.00    +0.000 A 
ATOM     21  C   UNL     1       9.171  10.197  19.069  0.00  0.00    +0.000 A 
ATOM     22  C   UNL     1       9.152  11.098  17.997  0.00  0.00    +0.000 A 
ATOM     23  C   UNL     1       9.643  12.400  18.148  0.00  0.00    +0.000 A 
BRANCH  18  25
ATOM     24  C   UNL     1      10.309  14.587  20.941  0.00  0.00    +0.000 C 
ATOM     25  O   UNL     1      10.629  14.071  19.653  0.00  0.00    +0.000 OA
ENDBRANCH  18  25
ENDBRANCH  17  21
ENDBRANCH  16  17
ENDBRANCH   1  16
TORSDOF 5
ENDMDL
MODEL 7
REMARK VINA RESULT:      -7.8      3.231      6.049
REMARK  Name = 
REMARK  6 active torsions:
REMARK  status: ('A' for Active; 'I' for Inactive)
REMARK    1  A    between atoms: C_1  and  O_2
REMARK    2  A    between atoms: O_2  and  C_3
REMARK    3  A    between atoms: C_6  and  C_7
REMARK    4  A    between atoms: C_7  and  C_8
REMARK    5  A    between atoms: C_8  and  N_9
REMARK    6  A    between atoms: C_10  and  C_12
REMARK                            x       y       z     vdW  Elec       q    Type
REMARK                         _______ _______ _______ _____ _____    ______ ____
ROOT
ATOM      1  N   UNL     1       3.302   4.748  17.703  0.00  0.00    +0.000 N 
ATOM      2  C   UNL     1       3.318   5.152  19.017  0.00  0.00    +0.000 C 
ATOM      3  O   UNL     1       3.947   4.543  19.879  0.00  0.00    +0.000 OA
ATOM      4  H   UNL     1       2.743   5.274  17.033  0.00  0.00    +0.000 HD
ENDROOT
BRANCH   2   5
ATOM      5  C   UNL     1       2.563   6.396  19.337  0.00  0.00    +0.000 A 
ATOM      6  C   UNL     1       1.940   6.459  20.522  0.00  0.00    +0.000 A 
ATOM      7  N   UNL     1       1.270   7.544  21.015  0.00  0.00    +0.000 NA
ATOM      8  C   UNL     1       1.237   8.607  20.272  0.00  0.00    +0.000 A 
ATOM      9  C   UNL     1       0.564   9.826  20.799  0.00  0.00    +0.000 A 
ATOM     10  C   UNL     1       0.513  10.935  20.051  0.00  0.00    +0.000 A 
ATOM     11  C   UNL     1       1.087  10.949  18.733  0.00  0.00    +0.000 A 
ATOM     12  C   UNL     1       1.702   9.860  18.259  0.00  0.00    +0.000 A 
ATOM     13  N   UNL     1       1.802   8.688  19.004  0.00  0.00    +0.000 N 
ATOM     14  C   UNL     1       2.479   7.592  18.469  0.00  0.00    +0.000 A 
ATOM     15  O   UNL     1       2.999   7.578  17.350  0.00  0.00    +0.000 OA
ENDBRANCH   2   5
BRANCH   1  16
ATOM     16  C   UNL     1       4.097   3.615  17.266  0.00  0.00    +0.000 C 
BRANCH  16  17
ATOM     17  C   UNL     1       5.273   4.020  16.379  0.00  0.00    +0.000 C 
BRANCH  17  21
ATOM     18  C   UNL     1       7.799   7.004  18.234  0.00  0.00    +0.000 A 
ATOM     19  C   UNL     1       6.970   7.342  17.163  0.00  0.00    +0.000 A 
ATOM     20  C   UNL     1       6.140   6.385  16.574  0.00  0.00    +0.000 A 
ATOM     21  C   UNL     1       6.140   5.065  17.040  0.00  0.00    +0.000 A 
ATOM     22  C   UNL     1       6.993   4.724  18.098  0.00  0.00    +0.000 A 
ATOM     23  C   UNL     1       7.814   5.687  18.694  0.00  0.00    +0.000 A 
BRANCH  18  25
ATOM     24  C   UNL     1       8.363   9.298  18.124  0.00  0.00    +0.000 C 
ATOM     25  O   UNL     1       8.578   8.020  18.714  0.00  0.00    +0.000 OA
ENDBRANCH  18  25
ENDBRANCH  17  21
ENDBRANCH  16  17
ENDBRANCH   1  16
TORSDOF 5
ENDMDL
MODEL 8
REMARK VINA RESULT:      -7.7      0.993      1.102
REMARK  Name = 
REMARK  6 active torsions:
REMARK  status: ('A' for Active; 'I' for Inactive)
REMARK    1  A    between atoms: C_1  and  O_2
REMARK    2  A    between atoms: O_2  and  C_3
REMARK    3  A    between atoms: C_6  and  C_7
REMARK    4  A    between atoms: C_7  and  C_8
REMARK    5  A    between atoms: C_8  and  N_9
REMARK    6  A    between atoms: C_10  and  C_12
REMARK                            x       y       z     vdW  Elec       q    Type
REMARK                         _______ _______ _______ _____ _____    ______ ____
ROOT
ATOM      1  N   UNL     1       7.096   8.195  17.992  0.00  0.00    +0.000 N 
ATOM      2  C   UNL     1       7.072   7.009  17.299  0.00  0.00    +0.000 C 
ATOM      3  O   UNL     1       7.865   6.766  16.392  0.00  0.00    +0.000 OA
ATOM      4  H   UNL     1       6.400   8.356  18.718  0.00  0.00    +0.000 HD
ENDROOT
BRANCH   2   5
ATOM      5  C   UNL     1       6.057   6.008  17.733  0.00  0.00    +0.000 A 
ATOM      6  C   UNL     1       6.490   4.929  18.399  0.00  0.00    +0.000 A 
ATOM      7  N   UNL     1       5.700   3.952  18.939  0.00  0.00    +0.000 NA
ATOM      8  C   UNL     1       4.417   4.085  18.798  0.00  0.00    +0.000 A 
ATOM      9  C   UNL     1       3.522   3.070  19.420  0.00  0.00    +0.000 A 
ATOM     10  C   UNL     1       2.195   3.181  19.287  0.00  0.00    +0.000 A 
ATOM     11  C   UNL     1       1.630   4.263  18.527  0.00  0.00    +0.000 A 
ATOM     12  C   UNL     1       2.428   5.183  17.975  0.00  0.00    +0.000 A 
ATOM     13  N   UNL     1       3.814   5.127  18.102  0.00  0.00    +0.000 N 
ATOM     14  C   UNL     1       4.597   6.129  17.528  0.00  0.00    +0.000 A 
ATOM     15  O   UNL     1       4.141   7.080  16.888  0.00  0.00    +0.000 OA
ENDBRANCH   2   5
BRANCH   1  16
ATOM     16  C   UNL     1       8.120   9.189  17.725  0.00  0.00    +0.000 C 
BRANCH  16  17
ATOM     17  C   UNL     1       9.053   9.418  18.912  0.00  0.00    +0.000 C 
BRANCH  17  21
ATOM     18  C   UNL     1      10.644  13.440  19.006  0.00  0.00    +0.000 A 
ATOM     19  C   UNL     1      10.703  12.681  17.836  0.00  0.00    +0.000 A 
ATOM     20  C   UNL     1      10.174  11.388  17.798  0.00  0.00    +0.000 A 
ATOM     21  C   UNL     1       9.590  10.828  18.941  0.00  0.00    +0.000 A 
ATOM     22  C   UNL     1       9.556  11.584  20.120  0.00  0.00    +0.000 A 
ATOM     23  C   UNL     1      10.076  12.883  20.152  0.00  0.00    +0.000 A 
BRANCH  18  25
ATOM     24  C   UNL     1      10.489  15.736  19.555  0.00  0.00    +0.000 C 
ATOM     25  O   UNL     1      11.211  14.682  18.926  0.00  0.00    +0.000 OA
ENDBRANCH  18  25
ENDBRANCH  17  21
ENDBRANCH  16  17
ENDBRANCH   1  16
TORSDOF 5
ENDMDL
MODEL 9
REMARK VINA RESULT:      -7.7      3.321      6.350
REMARK  Name = 
REMARK  6 active torsions:
REMARK  status: ('A' for Active; 'I' for Inactive)
REMARK    1  A    between atoms: C_1  and  O_2
REMARK    2  A    between atoms: O_2  and  C_3
REMARK    3  A    between atoms: C_6  and  C_7
REMARK    4  A    between atoms: C_7  and  C_8
REMARK    5  A    between atoms: C_8  and  N_9
REMARK    6  A    between atoms: C_10  and  C_12
REMARK                            x       y       z     vdW  Elec       q    Type
REMARK                         _______ _______ _______ _____ _____    ______ ____
ROOT
ATOM      1  N   UNL     1       2.885   4.901  17.991  0.00  0.00    +0.000 N 
ATOM      2  C   UNL     1       3.085   5.467  19.227  0.00  0.00    +0.000 C 
ATOM      3  O   UNL     1       3.866   4.988  20.046  0.00  0.00    +0.000 OA
ATOM      4  H   UNL     1       2.207   5.323  17.359  0.00  0.00    +0.000 HD
ENDROOT
BRANCH   2   5
ATOM      5  C   UNL     1       2.332   6.721  19.510  0.00  0.00    +0.000 A 
ATOM      6  C   UNL     1       1.687   6.810  20.681  0.00  0.00    +0.000 A 
ATOM      7  N   UNL     1       1.014   7.907  21.143  0.00  0.00    +0.000 NA
ATOM      8  C   UNL     1       1.003   8.957  20.380  0.00  0.00    +0.000 A 
ATOM      9  C   UNL     1       0.327  10.190  20.872  0.00  0.00    +0.000 A 
ATOM     10  C   UNL     1       0.298  11.285  20.104  0.00  0.00    +0.000 A 
ATOM     11  C   UNL     1       0.897  11.272  18.797  0.00  0.00    +0.000 A 
ATOM     12  C   UNL     1       1.513  10.171  18.354  0.00  0.00    +0.000 A 
ATOM     13  N   UNL     1       1.592   9.012  19.121  0.00  0.00    +0.000 N 
ATOM     14  C   UNL     1       2.272   7.902  18.620  0.00  0.00    +0.000 A 
ATOM     15  O   UNL     1       2.813   7.865  17.511  0.00  0.00    +0.000 OA
ENDBRANCH   2   5
BRANCH   1  16
ATOM     16  C   UNL     1       3.655   3.743  17.572  0.00  0.00    +0.000 C 
BRANCH  16  17
ATOM     17  C   UNL     1       4.708   4.078  16.517  0.00  0.00    +0.000 C 
BRANCH  17  21
ATOM     18  C   UNL     1       7.565   6.956  18.024  0.00  0.00    +0.000 A 
ATOM     19  C   UNL     1       7.567   5.642  18.494  0.00  0.00    +0.000 A 
ATOM     20  C   UNL     1       6.656   4.706  17.997  0.00  0.00    +0.000 A 
ATOM     21  C   UNL     1       5.717   5.078  17.028  0.00  0.00    +0.000 A 
ATOM     22  C   UNL     1       5.703   6.404  16.576  0.00  0.00    +0.000 A 
ATOM     23  C   UNL     1       6.623   7.337  17.068  0.00  0.00    +0.000 A 
BRANCH  18  25
ATOM     24  C   UNL     1       8.415   9.155  18.223  0.00  0.00    +0.000 C 
ATOM     25  O   UNL     1       8.490   7.784  18.600  0.00  0.00    +0.000 OA
ENDBRANCH  18  25
ENDBRANCH  17  21
ENDBRANCH  16  17
ENDBRANCH   1  16
TORSDOF 5
ENDMDL
