MODEL 1
REMARK VINA RESULT:      -8.2      0.000      0.000
REMARK  Name = 
REMARK  10 active torsions:
REMARK  status: ('A' for Active; 'I' for Inactive)
REMARK    1  A    between atoms: C_1  and  O_2
REMARK    2  A    between atoms: O_2  and  C_3
REMARK    3  A    between atoms: C_7  and  C_8
REMARK    4  A    between atoms: N_9  and  C_10
REMARK    5  A    between atoms: C_15  and  N_16
REMARK    6  A    between atoms: N_16  and  C_17
REMARK    7  A    between atoms: C_26  and  O_27
REMARK    8  A    between atoms: O_27  and  C_28
REMARK    9  A    between atoms: C_29  and  O_30
REMARK   10  A    between atoms: O_30  and  C_31
REMARK                            x       y       z     vdW  Elec       q    Type
REMARK                         _______ _______ _______ _____ _____    ______ ____
ROOT
ATOM      1  C   UNL     1       3.221   7.219  18.553  0.00  0.00    +0.000 C 
ATOM      2  N   UNL     1       3.087   6.420  17.536  0.00  0.00    +0.000 NA
ENDROOT
BRANCH   1   7
ATOM      3  C   UNL     1      -0.254  10.759  21.930  0.00  0.00    +0.000 A 
ATOM      4  C   UNL     1       0.491   9.575  21.806  0.00  0.00    +0.000 A 
ATOM      5  C   UNL     1       0.979   9.177  20.550  0.00  0.00    +0.000 A 
ATOM      6  N   UNL     1       1.849   8.119  20.321  0.00  0.00    +0.000 NA
ATOM      7  C   UNL     1       2.171   8.083  19.045  0.00  0.00    +0.000 A 
ATOM      8  S   UNL     1       1.342   9.176  18.034  0.00  0.00    +0.000 S 
ATOM      9  C   UNL     1       0.614   9.911  19.425  0.00  0.00    +0.000 A 
ATOM     10  C   UNL     1      -0.204  11.063  19.492  0.00  0.00    +0.000 A 
ATOM     11  C   UNL     1      -0.615  11.498  20.782  0.00  0.00    +0.000 A 
BRANCH   3  13
ATOM     12  C   UNL     1      -2.034  11.483  23.348  0.00  0.00    +0.000 C 
ATOM     13  O   UNL     1      -0.646  11.215  23.162  0.00  0.00    +0.000 OA
ENDBRANCH   3  13
BRANCH  10  14
ATOM     14  O   UNL     1      -0.465  11.648  18.283  0.00  0.00    +0.000 OA
ATOM     15  C   UNL     1      -1.758  11.577  17.710  0.00  0.00    +0.000 C 
ENDBRANCH  10  14
BRANCH  11  16
ATOM     16  O   UNL     1      -1.251  12.716  20.819  0.00  0.00    +0.000 OA
ATOM     17  C   UNL     1      -0.502  13.919  20.894  0.00  0.00    +0.000 C 
ENDBRANCH  11  16
ENDBRANCH   1   7
BRANCH   2  18
ATOM     18  C   UNL     1       4.246   5.725  17.106  0.00  0.00    +0.000 A 
ATOM     19  C   UNL     1       5.434   6.423  16.838  0.00  0.00    +0.000 A 
ATOM     20  C   UNL     1       6.569   5.746  16.402  0.00  0.00    +0.000 A 
ATOM     21  C   UNL     1       6.477   4.384  16.214  0.00  0.00    +0.000 A 
ATOM     22  N   UNL     1       5.356   3.675  16.446  0.00  0.00    +0.000 NA
ATOM     23  C   UNL     1       4.247   4.330  16.881  0.00  0.00    +0.000 A 
BRANCH  23  24
ATOM     24  N   UNL     1       3.080   3.575  17.167  0.00  0.00    +0.000 N 
ATOM     25  H   UNL     1       2.943   2.858  16.464  0.00  0.00    +0.000 HD
BRANCH  24  26
ATOM     26  C   UNL     1       2.594   3.290  18.460  0.00  0.00    +0.000 A 
ATOM     27  C   UNL     1       1.232   3.458  18.759  0.00  0.00    +0.000 A 
ATOM     28  C   UNL     1       0.727   3.210  20.034  0.00  0.00    +0.000 A 
ATOM     29  C   UNL     1       1.593   2.793  21.033  0.00  0.00    +0.000 A 
ATOM     30  F   UNL     1       1.119   2.562  22.263  0.00  0.00    +0.000 F 
ATOM     31  C   UNL     1       2.948   2.619  20.772  0.00  0.00    +0.000 A 
ATOM     32  C   UNL     1       3.449   2.864  19.485  0.00  0.00    +0.000 A 
ENDBRANCH  24  26
ENDBRANCH  23  24
ENDBRANCH   2  18
TORSDOF 7
ENDMDL
MODEL 2
REMARK VINA RESULT:      -8.2      2.570      4.658
REMARK  Name = 
REMARK  10 active torsions:
REMARK  status: ('A' for Active; 'I' for Inactive)
REMARK    1  A    between atoms: C_1  and  O_2
REMARK    2  A    between atoms: O_2  and  C_3
REMARK    3  A    between atoms: C_7  and  C_8
REMARK    4  A    between atoms: N_9  and  C_10
REMARK    5  A    between atoms: C_15  and  N_16
REMARK    6  A    between atoms: N_16  and  C_17
REMARK    7  A    between atoms: C_26  and  O_27
REMARK    8  A    between atoms: O_27  and  C_28
REMARK    9  A    between atoms: C_29  and  O_30
REMARK   10  A    between atoms: O_30  and  C_31
REMARK                            x       y       z     vdW  Elec       q    Type
REMARK                         _______ _______ _______ _____ _____    ______ ____
ROOT
ATOM      1  C   UNL     1       1.203   7.257  20.819  0.00  0.00    +0.000 C 
ATOM      2  N   UNL     1       2.094   6.720  20.039  0.00  0.00    +0.000 NA
ENDROOT
BRANCH   1   7
ATOM      3  C   UNL     1       0.169  13.076  19.778  0.00  0.00    +0.000 A 
ATOM      4  C   UNL     1       0.845  11.896  19.427  0.00  0.00    +0.000 A 
ATOM      5  C   UNL     1       0.797  10.776  20.274  0.00  0.00    +0.000 A 
ATOM      6  N   UNL     1       1.290   9.514  19.972  0.00  0.00    +0.000 NA
ATOM      7  C   UNL     1       0.999   8.682  20.950  0.00  0.00    +0.000 A 
ATOM      8  S   UNL     1       0.288   9.376  22.334  0.00  0.00    +0.000 S 
ATOM      9  C   UNL     1       0.170  10.897  21.510  0.00  0.00    +0.000 A 
ATOM     10  C   UNL     1      -0.452  12.092  21.943  0.00  0.00    +0.000 A 
ATOM     11  C   UNL     1      -0.467  13.186  21.034  0.00  0.00    +0.000 A 
BRANCH   3  13
ATOM     12  C   UNL     1       1.256  14.998  18.868  0.00  0.00    +0.000 C 
ATOM     13  O   UNL     1       0.119  14.139  18.913  0.00  0.00    +0.000 OA
ENDBRANCH   3  13
BRANCH  10  14
ATOM     14  O   UNL     1      -1.008  12.027  23.191  0.00  0.00    +0.000 OA
ATOM     15  C   UNL     1      -2.405  11.862  23.353  0.00  0.00    +0.000 C 
ENDBRANCH  10  14
BRANCH  11  16
ATOM     16  O   UNL     1      -1.234  14.260  21.416  0.00  0.00    +0.000 OA
ATOM     17  C   UNL     1      -0.667  15.321  22.169  0.00  0.00    +0.000 C 
ENDBRANCH  11  16
ENDBRANCH   1   7
BRANCH   2  18
ATOM     18  C   UNL     1       2.248   5.312  20.112  0.00  0.00    +0.000 A 
ATOM     19  C   UNL     1       1.174   4.498  20.506  0.00  0.00    +0.000 A 
ATOM     20  C   UNL     1       1.326   3.118  20.592  0.00  0.00    +0.000 A 
ATOM     21  C   UNL     1       2.565   2.585  20.309  0.00  0.00    +0.000 A 
ATOM     22  N   UNL     1       3.626   3.326  19.939  0.00  0.00    +0.000 NA
ATOM     23  C   UNL     1       3.481   4.675  19.845  0.00  0.00    +0.000 A 
BRANCH  23  24
ATOM     24  N   UNL     1       4.589   5.449  19.412  0.00  0.00    +0.000 N 
ATOM     25  H   UNL     1       5.125   5.773  20.208  0.00  0.00    +0.000 HD
BRANCH  24  26
ATOM     26  C   UNL     1       5.302   5.246  18.212  0.00  0.00    +0.000 A 
ATOM     27  C   UNL     1       4.665   5.411  16.971  0.00  0.00    +0.000 A 
ATOM     28  C   UNL     1       5.336   5.192  15.769  0.00  0.00    +0.000 A 
ATOM     29  C   UNL     1       6.664   4.796  15.801  0.00  0.00    +0.000 A 
ATOM     30  F   UNL     1       7.314   4.573  14.653  0.00  0.00    +0.000 F 
ATOM     31  C   UNL     1       7.324   4.621  17.012  0.00  0.00    +0.000 A 
ATOM     32  C   UNL     1       6.646   4.850  18.218  0.00  0.00    +0.000 A 
ENDBRANCH  24  26
ENDBRANCH  23  24
ENDBRANCH   2  18
TORSDOF 7
ENDMDL
MODEL 3
REMARK VINA RESULT:      -8.2      4.213      9.026
REMARK  Name = 
REMARK  10 active torsions:
REMARK  status: ('A' for Active; 'I' for Inactive)
REMARK    1  A    between atoms: C_1  and  O_2
REMARK    2  A    between atoms: O_2  and  C_3
REMARK    3  A    between atoms: C_7  and  C_8
REMARK    4  A    between atoms: N_9  and  C_10
REMARK    5  A    between atoms: C_15  and  N_16
REMARK    6  A    between atoms: N_16  and  C_17
REMARK    7  A    between atoms: C_26  and  O_27
REMARK    8  A    between atoms: O_27  and  C_28
REMARK    9  A    between atoms: C_29  and  O_30
REMARK   10  A    between atoms: O_30  and  C_31
REMARK                            x       y       z     vdW  Elec       q    Type
REMARK                         _______ _______ _______ _____ _____    ______ ____
ROOT
ATOM      1  C   UNL     1       1.583   9.832  18.565  0.00  0.00    +0.000 C 
ATOM      2  N   UNL     1       0.985  10.403  19.569  0.00  0.00    +0.000 NA
ENDROOT
BRANCH   1   7
ATOM      3  C   UNL     1       4.827   4.837  17.831  0.00  0.00    +0.000 A 
ATOM      4  C   UNL     1       4.278   6.003  17.274  0.00  0.00    +0.000 A 
ATOM      5  C   UNL     1       3.348   6.763  18.003  0.00  0.00    +0.000 A 
ATOM      6  N   UNL     1       2.851   8.005  17.631  0.00  0.00    +0.000 NA
ATOM      7  C   UNL     1       2.072   8.472  18.584  0.00  0.00    +0.000 A 
ATOM      8  S   UNL     1       1.754   7.408  19.876  0.00  0.00    +0.000 S 
ATOM      9  C   UNL     1       2.900   6.279  19.228  0.00  0.00    +0.000 A 
ATOM     10  C   UNL     1       3.363   5.066  19.790  0.00  0.00    +0.000 A 
ATOM     11  C   UNL     1       4.367   4.357  19.076  0.00  0.00    +0.000 A 
BRANCH   3  13
ATOM     12  C   UNL     1       6.861   4.908  16.580  0.00  0.00    +0.000 C 
ATOM     13  O   UNL     1       5.813   4.145  17.176  0.00  0.00    +0.000 OA
ENDBRANCH   3  13
BRANCH  10  14
ATOM     14  O   UNL     1       2.802   4.746  20.997  0.00  0.00    +0.000 OA
ATOM     15  C   UNL     1       1.743   3.808  21.076  0.00  0.00    +0.000 C 
ENDBRANCH  10  14
BRANCH  11  16
ATOM     16  O   UNL     1       4.919   3.287  19.740  0.00  0.00    +0.000 OA
ATOM     17  C   UNL     1       4.408   1.977  19.546  0.00  0.00    +0.000 C 
ENDBRANCH  11  16
ENDBRANCH   1   7
BRANCH   2  18
ATOM     18  C   UNL     1       0.671  11.779  19.433  0.00  0.00    +0.000 A 
ATOM     19  C   UNL     1       1.683  12.749  19.499  0.00  0.00    +0.000 A 
ATOM     20  C   UNL     1       1.376  14.101  19.381  0.00  0.00    +0.000 A 
ATOM     21  C   UNL     1       0.052  14.453  19.230  0.00  0.00    +0.000 A 
ATOM     22  N   UNL     1      -0.952  13.559  19.174  0.00  0.00    +0.000 NA
ATOM     23  C   UNL     1      -0.657  12.236  19.280  0.00  0.00    +0.000 A 
BRANCH  23  24
ATOM     24  N   UNL     1      -1.713  11.294  19.176  0.00  0.00    +0.000 N 
ATOM     25  H   UNL     1      -2.254  11.274  20.033  0.00  0.00    +0.000 HD
BRANCH  24  26
ATOM     26  C   UNL     1      -2.404  10.975  17.988  0.00  0.00    +0.000 A 
ATOM     27  C   UNL     1      -1.844  10.082  17.059  0.00  0.00    +0.000 A 
ATOM     28  C   UNL     1      -2.490   9.769  15.864  0.00  0.00    +0.000 A 
ATOM     29  C   UNL     1      -3.713  10.358  15.585  0.00  0.00    +0.000 A 
ATOM     30  F   UNL     1      -4.336  10.071  14.435  0.00  0.00    +0.000 F 
ATOM     31  C   UNL     1      -4.294  11.249  16.481  0.00  0.00    +0.000 A 
ATOM     32  C   UNL     1      -3.643  11.555  17.684  0.00  0.00    +0.000 A 
ENDBRANCH  24  26
ENDBRANCH  23  24
ENDBRANCH   2  18
TORSDOF 7
ENDMDL
MODEL 4
REMARK VINA RESULT:      -8.1      2.417      4.417
REMARK  Name = 
REMARK  10 active torsions:
REMARK  status: ('A' for Active; 'I' for Inactive)
REMARK    1  A    between atoms: C_1  and  O_2
REMARK    2  A    between atoms: O_2  and  C_3
REMARK    3  A    between atoms: C_7  and  C_8
REMARK    4  A    between atoms: N_9  and  C_10
REMARK    5  A    between atoms: C_15  and  N_16
REMARK    6  A    between atoms: N_16  and  C_17
REMARK    7  A    between atoms: C_26  and  O_27
REMARK    8  A    between atoms: O_27  and  C_28
REMARK    9  A    between atoms: C_29  and  O_30
REMARK   10  A    between atoms: O_30  and  C_31
REMARK                            x       y       z     vdW  Elec       q    Type
REMARK                         _______ _______ _______ _____ _____    ______ ____
ROOT
ATOM      1  C   UNL     1       2.027   6.249  19.734  0.00  0.00    +0.000 C 
ATOM      2  N   UNL     1       2.099   5.725  18.546  0.00  0.00    +0.000 NA
ENDROOT
BRANCH   1   7
ATOM      3  C   UNL     1       0.637  12.066  19.244  0.00  0.00    +0.000 A 
ATOM      4  C   UNL     1       1.270  10.934  18.704  0.00  0.00    +0.000 A 
ATOM      5  C   UNL     1       1.418   9.772  19.479  0.00  0.00    +0.000 A 
ATOM      6  N   UNL     1       1.883   8.548  19.018  0.00  0.00    +0.000 NA
ATOM      7  C   UNL     1       1.809   7.656  19.983  0.00  0.00    +0.000 A 
ATOM      8  S   UNL     1       1.352   8.249  21.514  0.00  0.00    +0.000 S 
ATOM      9  C   UNL     1       1.033   9.804  20.816  0.00  0.00    +0.000 A 
ATOM     10  C   UNL     1       0.469  10.949  21.426  0.00  0.00    +0.000 A 
ATOM     11  C   UNL     1       0.248  12.086  20.601  0.00  0.00    +0.000 A 
BRANCH   3  13
ATOM     12  C   UNL     1       1.434  14.136  18.358  0.00  0.00    +0.000 C 
ATOM     13  O   UNL     1       0.391  13.169  18.466  0.00  0.00    +0.000 OA
ENDBRANCH   3  13
BRANCH  10  14
ATOM     14  O   UNL     1       0.162  10.797  22.750  0.00  0.00    +0.000 OA
ATOM     15  C   UNL     1      -1.170  10.543  23.160  0.00  0.00    +0.000 C 
ENDBRANCH  10  14
BRANCH  11  16
ATOM     16  O   UNL     1      -0.466  13.107  21.182  0.00  0.00    +0.000 OA
ATOM     17  C   UNL     1       0.201  14.143  21.886  0.00  0.00    +0.000 C 
ENDBRANCH  11  16
ENDBRANCH   1   7
BRANCH   2  18
ATOM     18  C   UNL     1       2.435   4.349  18.469  0.00  0.00    +0.000 A 
ATOM     19  C   UNL     1       1.672   3.391  19.154  0.00  0.00    +0.000 A 
ATOM     20  C   UNL     1       2.007   2.042  19.092  0.00  0.00    +0.000 A 
ATOM     21  C   UNL     1       3.123   1.687  18.366  0.00  0.00    +0.000 A 
ATOM     22  N   UNL     1       3.891   2.571  17.703  0.00  0.00    +0.000 NA
ATOM     23  C   UNL     1       3.563   3.889  17.753  0.00  0.00    +0.000 A 
BRANCH  23  24
ATOM     24  N   UNL     1       4.349   4.814  17.017  0.00  0.00    +0.000 N 
ATOM     25  H   UNL     1       3.772   5.314  16.350  0.00  0.00    +0.000 HD
BRANCH  24  26
ATOM     26  C   UNL     1       5.476   5.499  17.515  0.00  0.00    +0.000 A 
ATOM     27  C   UNL     1       5.941   6.660  16.875  0.00  0.00    +0.000 A 
ATOM     28  C   UNL     1       7.068   7.344  17.328  0.00  0.00    +0.000 A 
ATOM     29  C   UNL     1       7.748   6.863  18.437  0.00  0.00    +0.000 A 
ATOM     30  F   UNL     1       8.836   7.507  18.873  0.00  0.00    +0.000 F 
ATOM     31  C   UNL     1       7.315   5.716  19.093  0.00  0.00    +0.000 A 
ATOM     32  C   UNL     1       6.177   5.035  18.636  0.00  0.00    +0.000 A 
ENDBRANCH  24  26
ENDBRANCH  23  24
ENDBRANCH   2  18
TORSDOF 7
ENDMDL
MODEL 5
REMARK VINA RESULT:      -7.9      2.533      4.631
REMARK  Name = 
REMARK  10 active torsions:
REMARK  status: ('A' for Active; 'I' for Inactive)
REMARK    1  A    between atoms: C_1  and  O_2
REMARK    2  A    between atoms: O_2  and  C_3
REMARK    3  A    between atoms: C_7  and  C_8
REMARK    4  A    between atoms: N_9  and  C_10
REMARK    5  A    between atoms: C_15  and  N_16
REMARK    6  A    between atoms: N_16  and  C_17
REMARK    7  A    between atoms: C_26  and  O_27
REMARK    8  A    between atoms: O_27  and  C_28
REMARK    9  A    between atoms: C_29  and  O_30
REMARK   10  A    between atoms: O_30  and  C_31
REMARK                            x       y       z     vdW  Elec       q    Type
REMARK                         _______ _______ _______ _____ _____    ______ ____
ROOT
ATOM      1  C   UNL     1       2.111   6.564  20.401  0.00  0.00    +0.000 C 
ATOM      2  N   UNL     1       2.857   6.019  19.487  0.00  0.00    +0.000 NA
ENDROOT
BRANCH   1   7
ATOM      3  C   UNL     1      -0.733  11.598  18.792  0.00  0.00    +0.000 A 
ATOM      4  C   UNL     1       0.051  10.493  18.423  0.00  0.00    +0.000 A 
ATOM      5  C   UNL     1       0.618   9.668  19.409  0.00  0.00    +0.000 A 
ATOM      6  N   UNL     1       1.279   8.469  19.178  0.00  0.00    +0.000 NA
ATOM      7  C   UNL     1       1.601   7.915  20.327  0.00  0.00    +0.000 A 
ATOM      8  S   UNL     1       1.296   8.850  21.719  0.00  0.00    +0.000 S 
ATOM      9  C   UNL     1       0.484  10.034  20.746  0.00  0.00    +0.000 A 
ATOM     10  C   UNL     1      -0.225  11.185  21.160  0.00  0.00    +0.000 A 
ATOM     11  C   UNL     1      -0.864  11.957  20.151  0.00  0.00    +0.000 A 
BRANCH   3  13
ATOM     12  C   UNL     1      -2.323  11.676  17.011  0.00  0.00    +0.000 C 
ATOM     13  O   UNL     1      -1.378  12.348  17.842  0.00  0.00    +0.000 OA
ENDBRANCH   3  13
BRANCH  10  14
ATOM     14  O   UNL     1      -0.241  11.389  22.513  0.00  0.00    +0.000 OA
ATOM     15  C   UNL     1      -1.312  10.905  23.304  0.00  0.00    +0.000 C 
ENDBRANCH  10  14
BRANCH  11  16
ATOM     16  O   UNL     1      -1.690  12.956  20.607  0.00  0.00    +0.000 OA
ATOM     17  C   UNL     1      -3.092  12.754  20.684  0.00  0.00    +0.000 C 
ENDBRANCH  11  16
ENDBRANCH   1   7
BRANCH   2  18
ATOM     18  C   UNL     1       3.372   4.727  19.763  0.00  0.00    +0.000 A 
ATOM     19  C   UNL     1       2.625   3.810  20.518  0.00  0.00    +0.000 A 
ATOM     20  C   UNL     1       3.133   2.546  20.802  0.00  0.00    +0.000 A 
ATOM     21  C   UNL     1       4.398   2.241  20.347  0.00  0.00    +0.000 A 
ATOM     22  N   UNL     1       5.155   3.092  19.630  0.00  0.00    +0.000 NA
ATOM     23  C   UNL     1       4.660   4.325  19.341  0.00  0.00    +0.000 A 
BRANCH  23  24
ATOM     24  N   UNL     1       5.442   5.203  18.548  0.00  0.00    +0.000 N 
ATOM     25  H   UNL     1       6.116   5.693  19.125  0.00  0.00    +0.000 HD
BRANCH  24  26
ATOM     26  C   UNL     1       5.809   4.975  17.205  0.00  0.00    +0.000 A 
ATOM     27  C   UNL     1       4.856   4.528  16.275  0.00  0.00    +0.000 A 
ATOM     28  C   UNL     1       5.195   4.268  14.948  0.00  0.00    +0.000 A 
ATOM     29  C   UNL     1       6.507   4.452  14.539  0.00  0.00    +0.000 A 
ATOM     30  F   UNL     1       6.844   4.195  13.269  0.00  0.00    +0.000 F 
ATOM     31  C   UNL     1       7.476   4.891  15.435  0.00  0.00    +0.000 A 
ATOM     32  C   UNL     1       7.128   5.157  16.767  0.00  0.00    +0.000 A 
ENDBRANCH  24  26
ENDBRANCH  23  24
ENDBRANCH   2  18
TORSDOF 7
ENDMDL
MODEL 6
REMARK VINA RESULT:      -7.9      2.592      4.490
REMARK  Name = 
REMARK  10 active torsions:
REMARK  status: ('A' for Active; 'I' for Inactive)
REMARK    1  A    between atoms: C_1  and  O_2
REMARK    2  A    between atoms: O_2  and  C_3
REMARK    3  A    between atoms: C_7  and  C_8
REMARK    4  A    between atoms: N_9  and  C_10
REMARK    5  A    between atoms: C_15  and  N_16
REMARK    6  A    between atoms: N_16  and  C_17
REMARK    7  A    between atoms: C_26  and  O_27
REMARK    8  A    between atoms: O_27  and  C_28
REMARK    9  A    between atoms: C_29  and  O_30
REMARK   10  A    between atoms: O_30  and  C_31
REMARK                            x       y       z     vdW  Elec       q    Type
REMARK                         _______ _______ _______ _____ _____    ______ ____
ROOT
ATOM      1  C   UNL     1       2.103   6.619  19.036  0.00  0.00    +0.000 C 
ATOM      2  N   UNL     1       2.699   5.722  19.764  0.00  0.00    +0.000 NA
ENDROOT
BRANCH   1   7
ATOM      3  C   UNL     1       0.318  12.335  19.418  0.00  0.00    +0.000 A 
ATOM      4  C   UNL     1       0.972  11.329  18.689  0.00  0.00    +0.000 A 
ATOM      5  C   UNL     1       1.257  10.092  19.291  0.00  0.00    +0.000 A 
ATOM      6  N   UNL     1       1.757   8.973  18.640  0.00  0.00    +0.000 NA
ATOM      7  C   UNL     1       1.820   7.964  19.483  0.00  0.00    +0.000 A 
ATOM      8  S   UNL     1       1.458   8.326  21.108  0.00  0.00    +0.000 S 
ATOM      9  C   UNL     1       0.985   9.929  20.647  0.00  0.00    +0.000 A 
ATOM     10  C   UNL     1       0.404  10.944  21.442  0.00  0.00    +0.000 A 
ATOM     11  C   UNL     1       0.045  12.156  20.792  0.00  0.00    +0.000 A 
BRANCH   3  13
ATOM     12  C   UNL     1       0.902  14.558  18.766  0.00  0.00    +0.000 C 
ATOM     13  O   UNL     1      -0.061  13.506  18.813  0.00  0.00    +0.000 OA
ENDBRANCH   3  13
BRANCH  10  14
ATOM     14  O   UNL     1       0.221  10.606  22.754  0.00  0.00    +0.000 OA
ATOM     15  C   UNL     1      -1.060  10.236  23.234  0.00  0.00    +0.000 C 
ENDBRANCH  10  14
BRANCH  11  16
ATOM     16  O   UNL     1      -0.679  13.042  21.554  0.00  0.00    +0.000 OA
ATOM     17  C   UNL     1      -0.026  14.075  22.276  0.00  0.00    +0.000 C 
ENDBRANCH  11  16
ENDBRANCH   1   7
BRANCH   2  18
ATOM     18  C   UNL     1       2.798   4.415  19.223  0.00  0.00    +0.000 A 
ATOM     19  C   UNL     1       1.665   3.775  18.698  0.00  0.00    +0.000 A 
ATOM     20  C   UNL     1       1.756   2.487  18.179  0.00  0.00    +0.000 A 
ATOM     21  C   UNL     1       2.980   1.856  18.228  0.00  0.00    +0.000 A 
ATOM     22  N   UNL     1       4.090   2.425  18.732  0.00  0.00    +0.000 NA
ATOM     23  C   UNL     1       4.009   3.687  19.232  0.00  0.00    +0.000 A 
BRANCH  23  24
ATOM     24  N   UNL     1       5.191   4.300  19.723  0.00  0.00    +0.000 N 
ATOM     25  H   UNL     1       5.698   3.660  20.323  0.00  0.00    +0.000 HD
BRANCH  24  26
ATOM     26  C   UNL     1       5.962   5.253  19.024  0.00  0.00    +0.000 A 
ATOM     27  C   UNL     1       5.482   5.816  17.830  0.00  0.00    +0.000 A 
ATOM     28  C   UNL     1       6.232   6.740  17.104  0.00  0.00    +0.000 A 
ATOM     29  C   UNL     1       7.485   7.106  17.570  0.00  0.00    +0.000 A 
ATOM     30  F   UNL     1       8.216   7.985  16.874  0.00  0.00    +0.000 F 
ATOM     31  C   UNL     1       7.991   6.566  18.747  0.00  0.00    +0.000 A 
ATOM     32  C   UNL     1       7.229   5.642  19.477  0.00  0.00    +0.000 A 
ENDBRANCH  24  26
ENDBRANCH  23  24
ENDBRANCH   2  18
TORSDOF 7
ENDMDL
MODEL 7
REMARK VINA RESULT:      -7.9      2.514      4.595
REMARK  Name = 
REMARK  10 active torsions:
REMARK  status: ('A' for Active; 'I' for Inactive)
REMARK    1  A    between atoms: C_1  and  O_2
REMARK    2  A    between atoms: O_2  and  C_3
REMARK    3  A    between atoms: C_7  and  C_8
REMARK    4  A    between atoms: N_9  and  C_10
REMARK    5  A    between atoms: C_15  and  N_16
REMARK    6  A    between atoms: N_16  and  C_17
REMARK    7  A    between atoms: C_26  and  O_27
REMARK    8  A    between atoms: O_27  and  C_28
REMARK    9  A    between atoms: C_29  and  O_30
REMARK   10  A    between atoms: O_30  and  C_31
REMARK                            x       y       z     vdW  Elec       q    Type
REMARK                         _______ _______ _______ _____ _____    ______ ____
ROOT
ATOM      1  C   UNL     1       1.296   6.959  20.519  0.00  0.00    +0.000 C 
ATOM      2  N   UNL     1       2.181   6.382  19.761  0.00  0.00    +0.000 NA
ENDROOT
BRANCH   1   7
ATOM      3  C   UNL     1       0.487  12.826  19.553  0.00  0.00    +0.000 A 
ATOM      4  C   UNL     1       1.086  11.617  19.161  0.00  0.00    +0.000 A 
ATOM      5  C   UNL     1       1.030  10.497  20.007  0.00  0.00    +0.000 A 
ATOM      6  N   UNL     1       1.445   9.214  19.675  0.00  0.00    +0.000 NA
ATOM      7  C   UNL     1       1.168   8.392  20.666  0.00  0.00    +0.000 A 
ATOM      8  S   UNL     1       0.568   9.112  22.088  0.00  0.00    +0.000 S 
ATOM      9  C   UNL     1       0.478  10.641  21.276  0.00  0.00    +0.000 A 
ATOM     10  C   UNL     1      -0.060  11.862  21.745  0.00  0.00    +0.000 A 
ATOM     11  C   UNL     1      -0.073  12.960  20.842  0.00  0.00    +0.000 A 
BRANCH   3  13
ATOM     12  C   UNL     1       1.553  14.788  18.705  0.00  0.00    +0.000 C 
ATOM     13  O   UNL     1       0.441  13.895  18.695  0.00  0.00    +0.000 OA
ENDBRANCH   3  13
BRANCH  10  14
ATOM     14  O   UNL     1      -0.550  11.817  23.022  0.00  0.00    +0.000 OA
ATOM     15  C   UNL     1      -1.931  11.615  23.260  0.00  0.00    +0.000 C 
ENDBRANCH  10  14
BRANCH  11  16
ATOM     16  O   UNL     1      -0.765  14.067  21.269  0.00  0.00    +0.000 OA
ATOM     17  C   UNL     1      -0.125  15.060  22.055  0.00  0.00    +0.000 C 
ENDBRANCH  11  16
ENDBRANCH   1   7
BRANCH   2  18
ATOM     18  C   UNL     1       2.252   4.967  19.817  0.00  0.00    +0.000 A 
ATOM     19  C   UNL     1       1.521   4.255  20.781  0.00  0.00    +0.000 A 
ATOM     20  C   UNL     1       1.600   2.868  20.847  0.00  0.00    +0.000 A 
ATOM     21  C   UNL     1       2.439   2.225  19.962  0.00  0.00    +0.000 A 
ATOM     22  N   UNL     1       3.168   2.866  19.030  0.00  0.00    +0.000 NA
ATOM     23  C   UNL     1       3.087   4.222  18.954  0.00  0.00    +0.000 A 
BRANCH  23  24
ATOM     24  N   UNL     1       3.822   4.891  17.941  0.00  0.00    +0.000 N 
ATOM     25  H   UNL     1       3.191   5.326  17.278  0.00  0.00    +0.000 HD
BRANCH  24  26
ATOM     26  C   UNL     1       5.074   5.515  18.124  0.00  0.00    +0.000 A 
ATOM     27  C   UNL     1       5.494   6.532  17.251  0.00  0.00    +0.000 A 
ATOM     28  C   UNL     1       6.736   7.148  17.390  0.00  0.00    +0.000 A 
ATOM     29  C   UNL     1       7.579   6.742  18.413  0.00  0.00    +0.000 A 
ATOM     30  F   UNL     1       8.778   7.321  18.548  0.00  0.00    +0.000 F 
ATOM     31  C   UNL     1       7.196   5.736  19.293  0.00  0.00    +0.000 A 
ATOM     32  C   UNL     1       5.942   5.124  19.152  0.00  0.00    +0.000 A 
ENDBRANCH  24  26
ENDBRANCH  23  24
ENDBRANCH   2  18
TORSDOF 7
ENDMDL
MODEL 8
REMARK VINA RESULT:      -7.9      4.244      8.734
REMARK  Name = 
REMARK  10 active torsions:
REMARK  status: ('A' for Active; 'I' for Inactive)
REMARK    1  A    between atoms: C_1  and  O_2
REMARK    2  A    between atoms: O_2  and  C_3
REMARK    3  A    between atoms: C_7  and  C_8
REMARK    4  A    between atoms: N_9  and  C_10
REMARK    5  A    between atoms: C_15  and  N_16
REMARK    6  A    between atoms: N_16  and  C_17
REMARK    7  A    between atoms: C_26  and  O_27
REMARK    8  A    between atoms: O_27  and  C_28
REMARK    9  A    between atoms: C_29  and  O_30
REMARK   10  A    between atoms: O_30  and  C_31
REMARK                            x       y       z     vdW  Elec       q    Type
REMARK                         _______ _______ _______ _____ _____    ______ ____
ROOT
ATOM      1  C   UNL     1       1.705   9.761  18.766  0.00  0.00    +0.000 C 
ATOM      2  N   UNL     1       0.888  10.368  19.575  0.00  0.00    +0.000 NA
ENDROOT
BRANCH   1   7
ATOM      3  C   UNL     1       1.823   3.883  19.971  0.00  0.00    +0.000 A 
ATOM      4  C   UNL     1       1.556   5.192  20.406  0.00  0.00    +0.000 A 
ATOM      5  C   UNL     1       1.954   6.290  19.625  0.00  0.00    +0.000 A 
ATOM      6  N   UNL     1       1.619   7.616  19.865  0.00  0.00    +0.000 NA
ATOM      7  C   UNL     1       2.081   8.370  18.891  0.00  0.00    +0.000 A 
ATOM      8  S   UNL     1       3.067   7.587  17.743  0.00  0.00    +0.000 S 
ATOM      9  C   UNL     1       2.711   6.059  18.480  0.00  0.00    +0.000 A 
ATOM     10  C   UNL     1       3.076   4.762  18.049  0.00  0.00    +0.000 A 
ATOM     11  C   UNL     1       2.589   3.661  18.807  0.00  0.00    +0.000 A 
BRANCH   3  13
ATOM     12  C   UNL     1       1.969   2.510  21.920  0.00  0.00    +0.000 C 
ATOM     13  O   UNL     1       1.348   2.803  20.670  0.00  0.00    +0.000 OA
ENDBRANCH   3  13
BRANCH  10  14
ATOM     14  O   UNL     1       3.830   4.731  16.908  0.00  0.00    +0.000 OA
ATOM     15  C   UNL     1       5.238   4.588  16.976  0.00  0.00    +0.000 C 
ENDBRANCH  10  14
BRANCH  11  16
ATOM     16  O   UNL     1       2.810   2.422  18.255  0.00  0.00    +0.000 OA
ATOM     17  C   UNL     1       3.843   1.585  18.751  0.00  0.00    +0.000 C 
ENDBRANCH  11  16
ENDBRANCH   1   7
BRANCH   2  18
ATOM     18  C   UNL     1       0.713  11.762  19.387  0.00  0.00    +0.000 A 
ATOM     19  C   UNL     1       1.820  12.625  19.389  0.00  0.00    +0.000 A 
ATOM     20  C   UNL     1       1.651  13.995  19.219  0.00  0.00    +0.000 A 
ATOM     21  C   UNL     1       0.366  14.475  19.082  0.00  0.00    +0.000 A 
ATOM     22  N   UNL     1      -0.726  13.688  19.086  0.00  0.00    +0.000 NA
ATOM     23  C   UNL     1      -0.565  12.347  19.242  0.00  0.00    +0.000 A 
BRANCH  23  24
ATOM     24  N   UNL     1      -1.714  11.516  19.201  0.00  0.00    +0.000 N 
ATOM     25  H   UNL     1      -2.281  11.656  20.030  0.00  0.00    +0.000 HD
BRANCH  24  26
ATOM     26  C   UNL     1      -2.398  11.131  18.029  0.00  0.00    +0.000 A 
ATOM     27  C   UNL     1      -1.822  10.206  17.143  0.00  0.00    +0.000 A 
ATOM     28  C   UNL     1      -2.461   9.827  15.963  0.00  0.00    +0.000 A 
ATOM     29  C   UNL     1      -3.693  10.383  15.656  0.00  0.00    +0.000 A 
ATOM     30  F   UNL     1      -4.309  10.033  14.520  0.00  0.00    +0.000 F 
ATOM     31  C   UNL     1      -4.290  11.304  16.509  0.00  0.00    +0.000 A 
ATOM     32  C   UNL     1      -3.645  11.676  17.698  0.00  0.00    +0.000 A 
ENDBRANCH  24  26
ENDBRANCH  23  24
ENDBRANCH   2  18
TORSDOF 7
ENDMDL
MODEL 9
REMARK VINA RESULT:      -7.8      1.546      2.621
REMARK  Name = 
REMARK  10 active torsions:
REMARK  status: ('A' for Active; 'I' for Inactive)
REMARK    1  A    between atoms: C_1  and  O_2
REMARK    2  A    between atoms: O_2  and  C_3
REMARK    3  A    between atoms: C_7  and  C_8
REMARK    4  A    between atoms: N_9  and  C_10
REMARK    5  A    between atoms: C_15  and  N_16
REMARK    6  A    between atoms: N_16  and  C_17
REMARK    7  A    between atoms: C_26  and  O_27
REMARK    8  A    between atoms: O_27  and  C_28
REMARK    9  A    between atoms: C_29  and  O_30
REMARK   10  A    between atoms: O_30  and  C_31
REMARK                            x       y       z     vdW  Elec       q    Type
REMARK                         _______ _______ _______ _____ _____    ______ ____
ROOT
ATOM      1  C   UNL     1       3.068   7.593  17.581  0.00  0.00    +0.000 C 
ATOM      2  N   UNL     1       4.346   7.387  17.703  0.00  0.00    +0.000 NA
ENDROOT
BRANCH   1   7
ATOM      3  C   UNL     1      -0.308  12.283  19.200  0.00  0.00    +0.000 A 
ATOM      4  C   UNL     1       0.727  11.769  18.402  0.00  0.00    +0.000 A 
ATOM      5  C   UNL     1       1.237  10.483  18.650  0.00  0.00    +0.000 A 
ATOM      6  N   UNL     1       2.145   9.806  17.847  0.00  0.00    +0.000 NA
ATOM      7  C   UNL     1       2.337   8.594  18.325  0.00  0.00    +0.000 A 
ATOM      8  S   UNL     1       1.596   8.256  19.822  0.00  0.00    +0.000 S 
ATOM      9  C   UNL     1       0.780   9.784  19.764  0.00  0.00    +0.000 A 
ATOM     10  C   UNL     1      -0.200  10.298  20.644  0.00  0.00    +0.000 A 
ATOM     11  C   UNL     1      -0.765  11.564  20.325  0.00  0.00    +0.000 A 
BRANCH   3  13
ATOM     12  C   UNL     1      -0.093  14.660  19.099  0.00  0.00    +0.000 C 
ATOM     13  O   UNL     1      -0.886  13.491  18.904  0.00  0.00    +0.000 OA
ENDBRANCH   3  13
BRANCH  10  14
ATOM     14  O   UNL     1      -0.517   9.474  21.689  0.00  0.00    +0.000 OA
ATOM     15  C   UNL     1       0.043   9.687  22.973  0.00  0.00    +0.000 C 
ENDBRANCH  10  14
BRANCH  11  16
ATOM     16  O   UNL     1      -1.837  11.943  21.097  0.00  0.00    +0.000 OA
ATOM     17  C   UNL     1      -1.656  12.800  22.213  0.00  0.00    +0.000 C 
ENDBRANCH  11  16
ENDBRANCH   1   7
BRANCH   2  18
ATOM     18  C   UNL     1       4.892   6.289  16.990  0.00  0.00    +0.000 A 
ATOM     19  C   UNL     1       5.061   6.359  15.598  0.00  0.00    +0.000 A 
ATOM     20  C   UNL     1       5.583   5.279  14.894  0.00  0.00    +0.000 A 
ATOM     21  C   UNL     1       5.896   4.137  15.600  0.00  0.00    +0.000 A 
ATOM     22  N   UNL     1       5.739   4.020  16.931  0.00  0.00    +0.000 NA
ATOM     23  C   UNL     1       5.238   5.076  17.626  0.00  0.00    +0.000 A 
BRANCH  23  24
ATOM     24  N   UNL     1       5.116   4.966  19.036  0.00  0.00    +0.000 N 
ATOM     25  H   UNL     1       5.554   5.758  19.490  0.00  0.00    +0.000 HD
BRANCH  24  26
ATOM     26  C   UNL     1       4.031   4.371  19.713  0.00  0.00    +0.000 A 
ATOM     27  C   UNL     1       3.986   2.979  19.897  0.00  0.00    +0.000 A 
ATOM     28  C   UNL     1       2.915   2.360  20.539  0.00  0.00    +0.000 A 
ATOM     29  C   UNL     1       1.865   3.139  21.001  0.00  0.00    +0.000 A 
ATOM     30  F   UNL     1       0.827   2.552  21.609  0.00  0.00    +0.000 F 
ATOM     31  C   UNL     1       1.876   4.519  20.832  0.00  0.00    +0.000 A 
ATOM     32  C   UNL     1       2.960   5.137  20.192  0.00  0.00    +0.000 A 
ENDBRANCH  24  26
ENDBRANCH  23  24
ENDBRANCH   2  18
TORSDOF 7
ENDMDL
