MODEL 1
REMARK VINA RESULT:      -7.5      0.000      0.000
REMARK  Name = 
REMARK  6 active torsions:
REMARK  status: ('A' for Active; 'I' for Inactive)
REMARK    1  A    between atoms: C_1  and  C_2
REMARK    2  A    between atoms: C_7  and  C_8
REMARK    3  A    between atoms: C_8  and  C_9
REMARK    4  A    between atoms: C_9  and  N_10
REMARK    5  A    between atoms: N_10  and  C_11
REMARK    6  A    between atoms: C_11  and  C_12
REMARK                            x       y       z     vdW  Elec       q    Type
REMARK                         _______ _______ _______ _____ _____    ______ ____
ROOT
ATOM      1  N   UNL     1       4.619   7.111  17.274  0.00  0.00    +0.000 NA
ATOM      2  H   UNL     1       5.209   7.923  17.433  0.00  0.00    +0.000 HD
ENDROOT
BRANCH   1   3
ATOM      3  C   UNL     1       5.114   6.400  16.095  0.00  0.00    +0.000 C 
BRANCH   3   4
ATOM      4  C   UNL     1       5.386   4.922  16.255  0.00  0.00    +0.000 C 
ATOM      5  C   UNL     1       6.786   4.378  15.968  0.00  0.00    +0.000 C 
ATOM      6  C   UNL     1       5.722   4.257  14.927  0.00  0.00    +0.000 C 
BRANCH   4  13
ATOM      7  C   UNL     1       6.048   4.867  19.264  0.00  0.00    +0.000 C 
ATOM      8  C   UNL     1       4.855   4.149  18.696  0.00  0.00    +0.000 A 
ATOM      9  C   UNL     1       4.014   3.456  19.594  0.00  0.00    +0.000 A 
ATOM     10  C   UNL     1       2.903   2.751  19.141  0.00  0.00    +0.000 A 
ATOM     11  C   UNL     1       2.613   2.731  17.786  0.00  0.00    +0.000 A 
ATOM     12  C   UNL     1       3.431   3.426  16.890  0.00  0.00    +0.000 A 
ATOM     13  C   UNL     1       4.561   4.165  17.311  0.00  0.00    +0.000 A 
ENDBRANCH   4  13
ENDBRANCH   3   4
ENDBRANCH   1   3
BRANCH   1  14
ATOM     14  C   UNL     1       3.246   7.522  16.952  0.00  0.00    +0.000 C 
BRANCH  14  15
ATOM     15  C   UNL     1       2.450   8.082  18.070  0.00  0.00    +0.000 A 
ATOM     16  C   UNL     1       2.293   7.498  19.299  0.00  0.00    +0.000 A 
ATOM     17  N   UNL     1       1.665   8.087  20.326  0.00  0.00    +0.000 NA
ATOM     18  C   UNL     1       1.154   9.317  20.134  0.00  0.00    +0.000 A 
ATOM     19  N   UNL     1       0.423   9.883  21.146  0.00  0.00    +0.000 N 
ATOM     20  C   UNL     1       0.727   9.466  22.517  0.00  0.00    +0.000 C 
ATOM     21  C   UNL     1      -0.512   9.728  23.376  0.00  0.00    +0.000 C 
ATOM     22  O   UNL     1      -0.920  11.107  23.308  0.00  0.00    +0.000 OA
ATOM     23  C   UNL     1      -1.216  11.480  21.949  0.00  0.00    +0.000 C 
ATOM     24  C   UNL     1      -0.012  11.273  21.022  0.00  0.00    +0.000 C 
ATOM     25  N   UNL     1       1.272   9.975  18.971  0.00  0.00    +0.000 NA
ATOM     26  C   UNL     1       1.915   9.351  17.975  0.00  0.00    +0.000 A 
ENDBRANCH  14  15
ENDBRANCH   1  14
TORSDOF 5
ENDMDL
MODEL 2
REMARK VINA RESULT:      -7.5      1.586      3.397
REMARK  Name = 
REMARK  6 active torsions:
REMARK  status: ('A' for Active; 'I' for Inactive)
REMARK    1  A    between atoms: C_1  and  C_2
REMARK    2  A    between atoms: C_7  and  C_8
REMARK    3  A    between atoms: C_8  and  C_9
REMARK    4  A    between atoms: C_9  and  N_10
REMARK    5  A    between atoms: N_10  and  C_11
REMARK    6  A    between atoms: C_11  and  C_12
REMARK                            x       y       z     vdW  Elec       q    Type
REMARK                         _______ _______ _______ _____ _____    ______ ____
ROOT
ATOM      1  N   UNL     1       2.815   6.807  18.834  0.00  0.00    +0.000 NA
ATOM      2  H   UNL     1       3.800   6.927  19.056  0.00  0.00    +0.000 HD
ENDROOT
BRANCH   1   3
ATOM      3  C   UNL     1       2.671   5.624  17.986  0.00  0.00    +0.000 C 
BRANCH   3   4
ATOM      4  C   UNL     1       3.882   4.731  17.849  0.00  0.00    +0.000 C 
ATOM      5  C   UNL     1       3.811   3.499  16.947  0.00  0.00    +0.000 C 
ATOM      6  C   UNL     1       3.632   3.341  18.421  0.00  0.00    +0.000 C 
BRANCH   4  13
ATOM      7  C   UNL     1       5.151   6.597  15.751  0.00  0.00    +0.000 C 
ATOM      8  C   UNL     1       5.843   6.260  17.044  0.00  0.00    +0.000 A 
ATOM      9  C   UNL     1       7.103   6.850  17.289  0.00  0.00    +0.000 A 
ATOM     10  C   UNL     1       7.814   6.571  18.453  0.00  0.00    +0.000 A 
ATOM     11  C   UNL     1       7.276   5.702  19.389  0.00  0.00    +0.000 A 
ATOM     12  C   UNL     1       6.024   5.124  19.162  0.00  0.00    +0.000 A 
ATOM     13  C   UNL     1       5.263   5.392  18.000  0.00  0.00    +0.000 A 
ENDBRANCH   4  13
ENDBRANCH   3   4
ENDBRANCH   1   3
BRANCH   1  14
ATOM     14  C   UNL     1       2.319   7.939  18.041  0.00  0.00    +0.000 C 
BRANCH  14  15
ATOM     15  C   UNL     1       1.537   8.962  18.774  0.00  0.00    +0.000 A 
ATOM     16  C   UNL     1       0.828   9.980  18.195  0.00  0.00    +0.000 A 
ATOM     17  N   UNL     1       0.036  10.816  18.880  0.00  0.00    +0.000 NA
ATOM     18  C   UNL     1      -0.059  10.650  20.212  0.00  0.00    +0.000 A 
ATOM     19  N   UNL     1      -0.785  11.563  20.932  0.00  0.00    +0.000 N 
ATOM     20  C   UNL     1      -1.874  12.258  20.242  0.00  0.00    +0.000 C 
ATOM     21  C   UNL     1      -2.139  13.572  20.981  0.00  0.00    +0.000 C 
ATOM     22  O   UNL     1      -2.437  13.345  22.371  0.00  0.00    +0.000 OA
ATOM     23  C   UNL     1      -1.345  12.666  23.018  0.00  0.00    +0.000 C 
ATOM     24  C   UNL     1      -1.031  11.320  22.353  0.00  0.00    +0.000 C 
ATOM     25  N   UNL     1       0.585   9.671  20.866  0.00  0.00    +0.000 NA
ATOM     26  C   UNL     1       1.359   8.853  20.139  0.00  0.00    +0.000 A 
ENDBRANCH  14  15
ENDBRANCH   1  14
TORSDOF 5
ENDMDL
MODEL 3
REMARK VINA RESULT:      -7.3      1.299      2.995
REMARK  Name = 
REMARK  6 active torsions:
REMARK  status: ('A' for Active; 'I' for Inactive)
REMARK    1  A    between atoms: C_1  and  C_2
REMARK    2  A    between atoms: C_7  and  C_8
REMARK    3  A    between atoms: C_8  and  C_9
REMARK    4  A    between atoms: C_9  and  N_10
REMARK    5  A    between atoms: N_10  and  C_11
REMARK    6  A    between atoms: C_11  and  C_12
REMARK                            x       y       z     vdW  Elec       q    Type
REMARK                         _______ _______ _______ _____ _____    ______ ____
ROOT
ATOM      1  N   UNL     1       2.373   5.619  17.843  0.00  0.00    +0.000 NA
ATOM      2  H   UNL     1       1.368   5.721  17.959  0.00  0.00    +0.000 HD
ENDROOT
BRANCH   1   3
ATOM      3  C   UNL     1       2.860   4.660  18.834  0.00  0.00    +0.000 C 
BRANCH   3   4
ATOM      4  C   UNL     1       3.848   3.624  18.351  0.00  0.00    +0.000 C 
ATOM      5  C   UNL     1       3.397   2.172  18.187  0.00  0.00    +0.000 C 
ATOM      6  C   UNL     1       4.141   2.576  19.416  0.00  0.00    +0.000 C 
BRANCH   4  13
ATOM      7  C   UNL     1       6.304   5.247  19.262  0.00  0.00    +0.000 C 
ATOM      8  C   UNL     1       6.104   4.838  17.828  0.00  0.00    +0.000 A 
ATOM      9  C   UNL     1       7.100   5.201  16.895  0.00  0.00    +0.000 A 
ATOM     10  C   UNL     1       6.976   4.876  15.547  0.00  0.00    +0.000 A 
ATOM     11  C   UNL     1       5.858   4.182  15.113  0.00  0.00    +0.000 A 
ATOM     12  C   UNL     1       4.873   3.805  16.031  0.00  0.00    +0.000 A 
ATOM     13  C   UNL     1       4.967   4.104  17.410  0.00  0.00    +0.000 A 
ENDBRANCH   4  13
ENDBRANCH   3   4
ENDBRANCH   1   3
BRANCH   1  14
ATOM     14  C   UNL     1       3.060   6.885  18.131  0.00  0.00    +0.000 C 
BRANCH  14  15
ATOM     15  C   UNL     1       2.244   7.944  18.771  0.00  0.00    +0.000 A 
ATOM     16  C   UNL     1       1.635   8.979  18.112  0.00  0.00    +0.000 A 
ATOM     17  N   UNL     1       0.807   9.850  18.704  0.00  0.00    +0.000 NA
ATOM     18  C   UNL     1       0.569   9.704  20.021  0.00  0.00    +0.000 A 
ATOM     19  N   UNL     1      -0.194  10.651  20.653  0.00  0.00    +0.000 N 
ATOM     20  C   UNL     1      -1.181  11.375  19.847  0.00  0.00    +0.000 C 
ATOM     21  C   UNL     1      -1.473  12.706  20.544  0.00  0.00    +0.000 C 
ATOM     22  O   UNL     1      -1.921  12.507  21.898  0.00  0.00    +0.000 OA
ATOM     23  C   UNL     1      -0.926  11.798  22.660  0.00  0.00    +0.000 C 
ATOM     24  C   UNL     1      -0.594  10.434  22.043  0.00  0.00    +0.000 C 
ATOM     25  N   UNL     1       1.107   8.712  20.746  0.00  0.00    +0.000 NA
ATOM     26  C   UNL     1       1.921   7.858  20.111  0.00  0.00    +0.000 A 
ENDBRANCH  14  15
ENDBRANCH   1  14
TORSDOF 5
ENDMDL
MODEL 4
REMARK VINA RESULT:      -7.3      1.995      3.794
REMARK  Name = 
REMARK  6 active torsions:
REMARK  status: ('A' for Active; 'I' for Inactive)
REMARK    1  A    between atoms: C_1  and  C_2
REMARK    2  A    between atoms: C_7  and  C_8
REMARK    3  A    between atoms: C_8  and  C_9
REMARK    4  A    between atoms: C_9  and  N_10
REMARK    5  A    between atoms: N_10  and  C_11
REMARK    6  A    between atoms: C_11  and  C_12
REMARK                            x       y       z     vdW  Elec       q    Type
REMARK                         _______ _______ _______ _____ _____    ______ ____
ROOT
ATOM      1  N   UNL     1       3.188   6.265  19.976  0.00  0.00    +0.000 NA
ATOM      2  H   UNL     1       3.658   7.102  19.641  0.00  0.00    +0.000 HD
ENDROOT
BRANCH   1   3
ATOM      3  C   UNL     1       2.972   5.367  18.841  0.00  0.00    +0.000 C 
BRANCH   3   4
ATOM      4  C   UNL     1       4.186   4.652  18.298  0.00  0.00    +0.000 C 
ATOM      5  C   UNL     1       4.008   3.567  17.236  0.00  0.00    +0.000 C 
ATOM      6  C   UNL     1       4.189   3.174  18.665  0.00  0.00    +0.000 C 
BRANCH   4  13
ATOM      7  C   UNL     1       4.861   6.802  16.196  0.00  0.00    +0.000 C 
ATOM      8  C   UNL     1       5.814   6.438  17.300  0.00  0.00    +0.000 A 
ATOM      9  C   UNL     1       7.041   7.136  17.368  0.00  0.00    +0.000 A 
ATOM     10  C   UNL     1       7.983   6.841  18.349  0.00  0.00    +0.000 A 
ATOM     11  C   UNL     1       7.713   5.849  19.278  0.00  0.00    +0.000 A 
ATOM     12  C   UNL     1       6.497   5.162  19.228  0.00  0.00    +0.000 A 
ATOM     13  C   UNL     1       5.507   5.440  18.257  0.00  0.00    +0.000 A 
ENDBRANCH   4  13
ENDBRANCH   3   4
ENDBRANCH   1   3
BRANCH   1  14
ATOM     14  C   UNL     1       1.853   6.592  20.495  0.00  0.00    +0.000 C 
BRANCH  14  15
ATOM     15  C   UNL     1       1.426   8.006  20.363  0.00  0.00    +0.000 A 
ATOM     16  C   UNL     1       1.582   8.778  19.243  0.00  0.00    +0.000 A 
ATOM     17  N   UNL     1       1.078  10.013  19.117  0.00  0.00    +0.000 NA
ATOM     18  C   UNL     1       0.390  10.525  20.154  0.00  0.00    +0.000 A 
ATOM     19  N   UNL     1      -0.040  11.824  20.071  0.00  0.00    +0.000 N 
ATOM     20  C   UNL     1      -0.290  12.372  18.736  0.00  0.00    +0.000 C 
ATOM     21  C   UNL     1      -0.176  13.896  18.822  0.00  0.00    +0.000 C 
ATOM     22  O   UNL     1      -1.076  14.438  19.807  0.00  0.00    +0.000 OA
ATOM     23  C   UNL     1      -0.799  13.882  21.106  0.00  0.00    +0.000 C 
ATOM     24  C   UNL     1      -0.919  12.353  21.113  0.00  0.00    +0.000 C 
ATOM     25  N   UNL     1       0.171   9.838  21.285  0.00  0.00    +0.000 NA
ATOM     26  C   UNL     1       0.685   8.604  21.364  0.00  0.00    +0.000 A 
ENDBRANCH  14  15
ENDBRANCH   1  14
TORSDOF 5
ENDMDL
MODEL 5
REMARK VINA RESULT:      -7.2      2.070      3.686
REMARK  Name = 
REMARK  6 active torsions:
REMARK  status: ('A' for Active; 'I' for Inactive)
REMARK    1  A    between atoms: C_1  and  C_2
REMARK    2  A    between atoms: C_7  and  C_8
REMARK    3  A    between atoms: C_8  and  C_9
REMARK    4  A    between atoms: C_9  and  N_10
REMARK    5  A    between atoms: N_10  and  C_11
REMARK    6  A    between atoms: C_11  and  C_12
REMARK                            x       y       z     vdW  Elec       q    Type
REMARK                         _______ _______ _______ _____ _____    ______ ____
ROOT
ATOM      1  N   UNL     1       3.188   6.353  19.837  0.00  0.00    +0.000 NA
ATOM      2  H   UNL     1       3.561   7.169  19.359  0.00  0.00    +0.000 HD
ENDROOT
BRANCH   1   3
ATOM      3  C   UNL     1       2.917   5.315  18.842  0.00  0.00    +0.000 C 
BRANCH   3   4
ATOM      4  C   UNL     1       4.116   4.628  18.231  0.00  0.00    +0.000 C 
ATOM      5  C   UNL     1       3.910   3.614  17.105  0.00  0.00    +0.000 C 
ATOM      6  C   UNL     1       4.114   3.129  18.503  0.00  0.00    +0.000 C 
BRANCH   4  13
ATOM      7  C   UNL     1       4.872   6.724  16.102  0.00  0.00    +0.000 C 
ATOM      8  C   UNL     1       5.787   6.382  17.246  0.00  0.00    +0.000 A 
ATOM      9  C   UNL     1       7.014   7.075  17.338  0.00  0.00    +0.000 A 
ATOM     10  C   UNL     1       7.921   6.799  18.357  0.00  0.00    +0.000 A 
ATOM     11  C   UNL     1       7.616   5.830  19.299  0.00  0.00    +0.000 A 
ATOM     12  C   UNL     1       6.397   5.149  19.226  0.00  0.00    +0.000 A 
ATOM     13  C   UNL     1       5.442   5.408  18.215  0.00  0.00    +0.000 A 
ENDBRANCH   4  13
ENDBRANCH   3   4
ENDBRANCH   1   3
BRANCH   1  14
ATOM     14  C   UNL     1       1.896   6.664  20.462  0.00  0.00    +0.000 C 
BRANCH  14  15
ATOM     15  C   UNL     1       1.446   8.073  20.373  0.00  0.00    +0.000 A 
ATOM     16  C   UNL     1       1.055   8.846  21.434  0.00  0.00    +0.000 A 
ATOM     17  N   UNL     1       0.768  10.151  21.335  0.00  0.00    +0.000 NA
ATOM     18  C   UNL     1       0.861  10.730  20.124  0.00  0.00    +0.000 A 
ATOM     19  N   UNL     1       0.472  12.038  19.996  0.00  0.00    +0.000 N 
ATOM     20  C   UNL     1       0.569  12.893  21.182  0.00  0.00    +0.000 C 
ATOM     21  C   UNL     1      -0.412  14.055  21.008  0.00  0.00    +0.000 C 
ATOM     22  O   UNL     1      -0.158  14.784  19.793  0.00  0.00    +0.000 OA
ATOM     23  C   UNL     1      -0.268  13.915  18.650  0.00  0.00    +0.000 C 
ATOM     24  C   UNL     1       0.706  12.734  18.732  0.00  0.00    +0.000 C 
ATOM     25  N   UNL     1       1.252  10.059  19.030  0.00  0.00    +0.000 NA
ATOM     26  C   UNL     1       1.537   8.758  19.177  0.00  0.00    +0.000 A 
ENDBRANCH  14  15
ENDBRANCH   1  14
TORSDOF 5
ENDMDL
MODEL 6
REMARK VINA RESULT:      -7.2      1.632      3.284
REMARK  Name = 
REMARK  6 active torsions:
REMARK  status: ('A' for Active; 'I' for Inactive)
REMARK    1  A    between atoms: C_1  and  C_2
REMARK    2  A    between atoms: C_7  and  C_8
REMARK    3  A    between atoms: C_8  and  C_9
REMARK    4  A    between atoms: C_9  and  N_10
REMARK    5  A    between atoms: N_10  and  C_11
REMARK    6  A    between atoms: C_11  and  C_12
REMARK                            x       y       z     vdW  Elec       q    Type
REMARK                         _______ _______ _______ _____ _____    ______ ____
ROOT
ATOM      1  N   UNL     1       2.721   5.833  17.901  0.00  0.00    +0.000 NA
ATOM      2  H   UNL     1       1.973   6.214  17.328  0.00  0.00    +0.000 HD
ENDROOT
BRANCH   1   3
ATOM      3  C   UNL     1       2.493   4.398  18.073  0.00  0.00    +0.000 C 
BRANCH   3   4
ATOM      4  C   UNL     1       3.707   3.502  18.007  0.00  0.00    +0.000 C 
ATOM      5  C   UNL     1       3.529   1.985  18.077  0.00  0.00    +0.000 C 
ATOM      6  C   UNL     1       3.922   2.737  19.306  0.00  0.00    +0.000 C 
BRANCH   4  13
ATOM      7  C   UNL     1       6.061   5.076  19.223  0.00  0.00    +0.000 C 
ATOM      8  C   UNL     1       6.005   4.725  17.761  0.00  0.00    +0.000 A 
ATOM      9  C   UNL     1       7.090   5.119  16.947  0.00  0.00    +0.000 A 
ATOM     10  C   UNL     1       7.101   4.848  15.582  0.00  0.00    +0.000 A 
ATOM     11  C   UNL     1       6.032   4.178  15.011  0.00  0.00    +0.000 A 
ATOM     12  C   UNL     1       4.960   3.770  15.810  0.00  0.00    +0.000 A 
ATOM     13  C   UNL     1       4.916   4.013  17.203  0.00  0.00    +0.000 A 
ENDBRANCH   4  13
ENDBRANCH   3   4
ENDBRANCH   1   3
BRANCH   1  14
ATOM     14  C   UNL     1       2.688   6.413  19.251  0.00  0.00    +0.000 C 
BRANCH  14  15
ATOM     15  C   UNL     1       2.081   7.760  19.371  0.00  0.00    +0.000 A 
ATOM     16  C   UNL     1       1.913   8.646  18.342  0.00  0.00    +0.000 A 
ATOM     17  N   UNL     1       1.254   9.806  18.461  0.00  0.00    +0.000 NA
ATOM     18  C   UNL     1       0.736  10.120  19.663  0.00  0.00    +0.000 A 
ATOM     19  N   UNL     1       0.150  11.349  19.819  0.00  0.00    +0.000 N 
ATOM     20  C   UNL     1      -0.430  11.979  18.630  0.00  0.00    +0.000 C 
ATOM     21  C   UNL     1      -0.480  13.489  18.874  0.00  0.00    +0.000 C 
ATOM     22  O   UNL     1      -1.218  13.807  20.068  0.00  0.00    +0.000 OA
ATOM     23  C   UNL     1      -0.618  13.177  21.216  0.00  0.00    +0.000 C 
ATOM     24  C   UNL     1      -0.554  11.652  21.064  0.00  0.00    +0.000 C 
ATOM     25  N   UNL     1       0.835   9.307  20.726  0.00  0.00    +0.000 NA
ATOM     26  C   UNL     1       1.495   8.153  20.558  0.00  0.00    +0.000 A 
ENDBRANCH  14  15
ENDBRANCH   1  14
TORSDOF 5
ENDMDL
MODEL 7
REMARK VINA RESULT:      -7.2      1.600      2.542
REMARK  Name = 
REMARK  6 active torsions:
REMARK  status: ('A' for Active; 'I' for Inactive)
REMARK    1  A    between atoms: C_1  and  C_2
REMARK    2  A    between atoms: C_7  and  C_8
REMARK    3  A    between atoms: C_8  and  C_9
REMARK    4  A    between atoms: C_9  and  N_10
REMARK    5  A    between atoms: N_10  and  C_11
REMARK    6  A    between atoms: C_11  and  C_12
REMARK                            x       y       z     vdW  Elec       q    Type
REMARK                         _______ _______ _______ _____ _____    ______ ____
ROOT
ATOM      1  N   UNL     1       2.346   6.531  17.781  0.00  0.00    +0.000 NA
ATOM      2  H   UNL     1       1.937   6.096  18.604  0.00  0.00    +0.000 HD
ENDROOT
BRANCH   1   3
ATOM      3  C   UNL     1       3.599   5.845  17.466  0.00  0.00    +0.000 C 
BRANCH   3   4
ATOM      4  C   UNL     1       4.144   4.906  18.517  0.00  0.00    +0.000 C 
ATOM      5  C   UNL     1       5.472   5.232  19.201  0.00  0.00    +0.000 C 
ATOM      6  C   UNL     1       5.446   4.251  18.075  0.00  0.00    +0.000 C 
BRANCH   4  13
ATOM      7  C   UNL     1       2.652   2.408  17.504  0.00  0.00    +0.000 C 
ATOM      8  C   UNL     1       2.445   2.954  18.890  0.00  0.00    +0.000 A 
ATOM      9  C   UNL     1       1.552   2.269  19.743  0.00  0.00    +0.000 A 
ATOM     10  C   UNL     1       1.294   2.725  21.032  0.00  0.00    +0.000 A 
ATOM     11  C   UNL     1       1.925   3.871  21.489  0.00  0.00    +0.000 A 
ATOM     12  C   UNL     1       2.822   4.549  20.658  0.00  0.00    +0.000 A 
ATOM     13  C   UNL     1       3.122   4.111  19.348  0.00  0.00    +0.000 A 
ENDBRANCH   4  13
ENDBRANCH   3   4
ENDBRANCH   1   3
BRANCH   1  14
ATOM     14  C   UNL     1       2.707   7.928  18.057  0.00  0.00    +0.000 C 
BRANCH  14  15
ATOM     15  C   UNL     1       1.730   8.714  18.848  0.00  0.00    +0.000 A 
ATOM     16  C   UNL     1       1.533   8.603  20.198  0.00  0.00    +0.000 A 
ATOM     17  N   UNL     1       0.727   9.411  20.900  0.00  0.00    +0.000 NA
ATOM     18  C   UNL     1       0.069  10.380  20.237  0.00  0.00    +0.000 A 
ATOM     19  N   UNL     1      -0.834  11.144  20.930  0.00  0.00    +0.000 N 
ATOM     20  C   UNL     1      -0.615  11.315  22.368  0.00  0.00    +0.000 C 
ATOM     21  C   UNL     1      -1.960  11.659  23.013  0.00  0.00    +0.000 C 
ATOM     22  O   UNL     1      -2.549  12.827  22.413  0.00  0.00    +0.000 OA
ATOM     23  C   UNL     1      -2.755  12.622  21.003  0.00  0.00    +0.000 C 
ATOM     24  C   UNL     1      -1.446  12.298  20.273  0.00  0.00    +0.000 C 
ATOM     25  N   UNL     1       0.210  10.577  18.918  0.00  0.00    +0.000 NA
ATOM     26  C   UNL     1       1.034   9.751  18.258  0.00  0.00    +0.000 A 
ENDBRANCH  14  15
ENDBRANCH   1  14
TORSDOF 5
ENDMDL
MODEL 8
REMARK VINA RESULT:      -7.1      5.806      8.661
REMARK  Name = 
REMARK  6 active torsions:
REMARK  status: ('A' for Active; 'I' for Inactive)
REMARK    1  A    between atoms: C_1  and  C_2
REMARK    2  A    between atoms: C_7  and  C_8
REMARK    3  A    between atoms: C_8  and  C_9
REMARK    4  A    between atoms: C_9  and  N_10
REMARK    5  A    between atoms: N_10  and  C_11
REMARK    6  A    between atoms: C_11  and  C_12
REMARK                            x       y       z     vdW  Elec       q    Type
REMARK                         _______ _______ _______ _____ _____    ______ ____
ROOT
ATOM      1  N   UNL     1       8.085   9.529  18.101  0.00  0.00    +0.000 NA
ATOM      2  H   UNL     1       8.117  10.073  17.243  0.00  0.00    +0.000 HD
ENDROOT
BRANCH   1   3
ATOM      3  C   UNL     1       9.126  10.021  19.003  0.00  0.00    +0.000 C 
BRANCH   3   4
ATOM      4  C   UNL     1       9.745  11.357  18.664  0.00  0.00    +0.000 C 
ATOM      5  C   UNL     1      10.850  11.427  17.609  0.00  0.00    +0.000 C 
ATOM      6  C   UNL     1      11.216  11.418  19.057  0.00  0.00    +0.000 C 
BRANCH   4  13
ATOM      7  C   UNL     1       9.360  12.922  21.289  0.00  0.00    +0.000 C 
ATOM      8  C   UNL     1       8.686  13.332  20.009  0.00  0.00    +0.000 A 
ATOM      9  C   UNL     1       7.876  14.489  20.032  0.00  0.00    +0.000 A 
ATOM     10  C   UNL     1       7.203  14.919  18.892  0.00  0.00    +0.000 A 
ATOM     11  C   UNL     1       7.333  14.204  17.713  0.00  0.00    +0.000 A 
ATOM     12  C   UNL     1       8.144  13.066  17.675  0.00  0.00    +0.000 A 
ATOM     13  C   UNL     1       8.855  12.603  18.807  0.00  0.00    +0.000 A 
ENDBRANCH   4  13
ENDBRANCH   3   4
ENDBRANCH   1   3
BRANCH   1  14
ATOM     14  C   UNL     1       8.410   8.121  17.835  0.00  0.00    +0.000 C 
BRANCH  14  15
ATOM     15  C   UNL     1       7.301   7.151  17.993  0.00  0.00    +0.000 A 
ATOM     16  C   UNL     1       6.188   7.087  17.198  0.00  0.00    +0.000 A 
ATOM     17  N   UNL     1       5.262   6.123  17.294  0.00  0.00    +0.000 NA
ATOM     18  C   UNL     1       5.434   5.170  18.229  0.00  0.00    +0.000 A 
ATOM     19  N   UNL     1       4.442   4.240  18.400  0.00  0.00    +0.000 N 
ATOM     20  C   UNL     1       3.595   3.931  17.245  0.00  0.00    +0.000 C 
ATOM     21  C   UNL     1       2.269   3.374  17.768  0.00  0.00    +0.000 C 
ATOM     22  O   UNL     1       2.474   2.225  18.610  0.00  0.00    +0.000 OA
ATOM     23  C   UNL     1       3.305   2.565  19.736  0.00  0.00    +0.000 C 
ATOM     24  C   UNL     1       4.670   3.109  19.298  0.00  0.00    +0.000 C 
ATOM     25  N   UNL     1       6.501   5.140  19.042  0.00  0.00    +0.000 NA
ATOM     26  C   UNL     1       7.405   6.119  18.905  0.00  0.00    +0.000 A 
ENDBRANCH  14  15
ENDBRANCH   1  14
TORSDOF 5
ENDMDL
MODEL 9
REMARK VINA RESULT:      -7.1      1.487      3.367
REMARK  Name = 
REMARK  6 active torsions:
REMARK  status: ('A' for Active; 'I' for Inactive)
REMARK    1  A    between atoms: C_1  and  C_2
REMARK    2  A    between atoms: C_7  and  C_8
REMARK    3  A    between atoms: C_8  and  C_9
REMARK    4  A    between atoms: C_9  and  N_10
REMARK    5  A    between atoms: N_10  and  C_11
REMARK    6  A    between atoms: C_11  and  C_12
REMARK                            x       y       z     vdW  Elec       q    Type
REMARK                         _______ _______ _______ _____ _____    ______ ____
ROOT
ATOM      1  N   UNL     1       2.630   6.004  17.960  0.00  0.00    +0.000 NA
ATOM      2  H   UNL     1       1.844   6.405  17.454  0.00  0.00    +0.000 HD
ENDROOT
BRANCH   1   3
ATOM      3  C   UNL     1       2.501   4.547  17.942  0.00  0.00    +0.000 C 
BRANCH   3   4
ATOM      4  C   UNL     1       3.753   3.749  18.225  0.00  0.00    +0.000 C 
ATOM      5  C   UNL     1       3.757   2.241  17.972  0.00  0.00    +0.000 C 
ATOM      6  C   UNL     1       3.548   2.753  19.359  0.00  0.00    +0.000 C 
BRANCH   4  13
ATOM      7  C   UNL     1       5.134   4.275  15.521  0.00  0.00    +0.000 C 
ATOM      8  C   UNL     1       5.731   4.730  16.825  0.00  0.00    +0.000 A 
ATOM      9  C   UNL     1       6.951   5.439  16.779  0.00  0.00    +0.000 A 
ATOM     10  C   UNL     1       7.575   5.874  17.944  0.00  0.00    +0.000 A 
ATOM     11  C   UNL     1       6.989   5.610  19.171  0.00  0.00    +0.000 A 
ATOM     12  C   UNL     1       5.774   4.921  19.227  0.00  0.00    +0.000 A 
ATOM     13  C   UNL     1       5.100   4.474  18.067  0.00  0.00    +0.000 A 
ENDBRANCH   4  13
ENDBRANCH   3   4
ENDBRANCH   1   3
BRANCH   1  14
ATOM     14  C   UNL     1       2.590   6.397  19.375  0.00  0.00    +0.000 C 
BRANCH  14  15
ATOM     15  C   UNL     1       1.992   7.720  19.672  0.00  0.00    +0.000 A 
ATOM     16  C   UNL     1       1.816   8.730  18.764  0.00  0.00    +0.000 A 
ATOM     17  N   UNL     1       1.164   9.868  19.037  0.00  0.00    +0.000 NA
ATOM     18  C   UNL     1       0.663  10.030  20.276  0.00  0.00    +0.000 A 
ATOM     19  N   UNL     1       0.085  11.232  20.593  0.00  0.00    +0.000 N 
ATOM     20  C   UNL     1      -0.506  12.008  19.500  0.00  0.00    +0.000 C 
ATOM     21  C   UNL     1      -0.546  13.476  19.932  0.00  0.00    +0.000 C 
ATOM     22  O   UNL     1      -1.266  13.644  21.167  0.00  0.00    +0.000 OA
ATOM     23  C   UNL     1      -0.656  12.872  22.218  0.00  0.00    +0.000 C 
ATOM     24  C   UNL     1      -0.601  11.378  21.875  0.00  0.00    +0.000 C 
ATOM     25  N   UNL     1       0.771   9.090  21.227  0.00  0.00    +0.000 NA
ATOM     26  C   UNL     1       1.423   7.964  20.907  0.00  0.00    +0.000 A 
ENDBRANCH  14  15
ENDBRANCH   1  14
TORSDOF 5
ENDMDL
