MODEL 1
REMARK VINA RESULT:      -8.7      0.000      0.000
REMARK  Name = 
REMARK  9 active torsions:
REMARK  status: ('A' for Active; 'I' for Inactive)
REMARK    1  A    between atoms: C_1  and  C_2
REMARK    2  A    between atoms: C_5  and  C_6
REMARK    3  A    between atoms: C_8  and  C_10
REMARK    4  A    between atoms: C_13  and  C_14
REMARK    5  A    between atoms: C_14  and  C_15
REMARK    6  A    between atoms: C_14  and  N_16
REMARK    7  A    between atoms: C_17  and  C_19
REMARK    8  A    between atoms: C_19  and  N_20
REMARK    9  A    between atoms: C_21  and  C_23
REMARK                            x       y       z     vdW  Elec       q    Type
REMARK                         _______ _______ _______ _____ _____    ______ ____
ROOT
ATOM      1  C   UNL     1       2.943   5.298  18.816  0.00  0.00    +0.000 C 
ATOM      2  C   UNL     1       2.060   4.535  17.831  0.00  0.00    +0.000 C 
ENDROOT
BRANCH   1   6
ATOM      3  C   UNL     1       1.312   9.079  20.217  0.00  0.00    +0.000 A 
ATOM      4  C   UNL     1       1.986   8.983  19.000  0.00  0.00    +0.000 A 
ATOM      5  C   UNL     1       2.428   7.741  18.534  0.00  0.00    +0.000 A 
ATOM      6  C   UNL     1       2.322   6.587  19.329  0.00  0.00    +0.000 A 
ATOM      7  C   UNL     1       1.687   6.698  20.574  0.00  0.00    +0.000 A 
ATOM      8  C   UNL     1       1.189   7.931  21.013  0.00  0.00    +0.000 A 
BRANCH   3  16
ATOM      9  C   UNL     1      -1.049   9.818  18.137  0.00  0.00    +0.000 C 
ATOM     10  C   UNL     1      -0.375  11.133  18.528  0.00  0.00    +0.000 C 
ATOM     11  C   UNL     1      -1.435  12.238  18.411  0.00  0.00    +0.000 C 
ATOM     12  C   UNL     1      -0.909  13.343  19.296  0.00  0.00    +0.000 C 
ATOM     13  C   UNL     1      -0.242  12.598  20.456  0.00  0.00    +0.000 C 
ATOM     14  C   UNL     1       0.932  13.429  20.973  0.00  0.00    +0.000 C 
ATOM     15  N   UNL     1       0.130  11.282  19.906  0.00  0.00    +0.000 N 
ATOM     16  C   UNL     1       0.768  10.361  20.737  0.00  0.00    +0.000 C 
ATOM     17  O   UNL     1       0.896  10.562  21.945  0.00  0.00    +0.000 OA
ENDBRANCH   3  16
ENDBRANCH   1   6
BRANCH   1  18
ATOM     18  N   UNL     1       4.251   5.548  18.244  0.00  0.00    +0.000 N 
ATOM     19  C   UNL     1       5.362   4.803  18.575  0.00  0.00    +0.000 C 
ATOM     20  O   UNL     1       5.372   3.852  19.341  0.00  0.00    +0.000 OA
ATOM     21  H   UNL     1       4.345   6.255  17.522  0.00  0.00    +0.000 HD
BRANCH  19  22
ATOM     22  C   UNL     1       6.633   5.234  17.878  0.00  0.00    +0.000 C 
ATOM     23  C   UNL     1       7.289   6.535  18.306  0.00  0.00    +0.000 C 
ATOM     24  C   UNL     1       7.903   5.239  18.722  0.00  0.00    +0.000 C 
BRANCH  22  25
ATOM     25  N   UNL     1       6.781   4.755  16.522  0.00  0.00    +0.000 N 
ATOM     26  C   UNL     1       6.189   5.366  15.434  0.00  0.00    +0.000 C 
ATOM     27  O   UNL     1       5.538   6.402  15.502  0.00  0.00    +0.000 OA
ATOM     28  H   UNL     1       7.331   3.912  16.414  0.00  0.00    +0.000 HD
BRANCH  26  29
ATOM     29  C   UNL     1       6.431   4.722  14.130  0.00  0.00    +0.000 A 
ATOM     30  C   UNL     1       7.470   5.064  13.290  0.00  0.00    +0.000 A 
ATOM     31  N   UNL     1       7.661   4.518  12.069  0.00  0.00    +0.000 NA
ATOM     32  C   UNL     1       6.773   3.574  11.708  0.00  0.00    +0.000 A 
ATOM     33  N   UNL     1       5.746   3.138  12.453  0.00  0.00    +0.000 NA
ATOM     34  C   UNL     1       5.602   3.723  13.666  0.00  0.00    +0.000 A 
ENDBRANCH  26  29
ENDBRANCH  22  25
ENDBRANCH  19  22
ENDBRANCH   1  18
TORSDOF 6
ENDMDL
MODEL 2
REMARK VINA RESULT:      -8.6      1.297      1.822
REMARK  Name = 
REMARK  9 active torsions:
REMARK  status: ('A' for Active; 'I' for Inactive)
REMARK    1  A    between atoms: C_1  and  C_2
REMARK    2  A    between atoms: C_5  and  C_6
REMARK    3  A    between atoms: C_8  and  C_10
REMARK    4  A    between atoms: C_13  and  C_14
REMARK    5  A    between atoms: C_14  and  C_15
REMARK    6  A    between atoms: C_14  and  N_16
REMARK    7  A    between atoms: C_17  and  C_19
REMARK    8  A    between atoms: C_19  and  N_20
REMARK    9  A    between atoms: C_21  and  C_23
REMARK                            x       y       z     vdW  Elec       q    Type
REMARK                         _______ _______ _______ _____ _____    ______ ____
ROOT
ATOM      1  C   UNL     1       3.190   6.032  19.107  0.00  0.00    +0.000 C 
ATOM      2  C   UNL     1       2.455   4.817  18.543  0.00  0.00    +0.000 C 
ENDROOT
BRANCH   1   6
ATOM      3  C   UNL     1       0.790   9.658  19.008  0.00  0.00    +0.000 A 
ATOM      4  C   UNL     1       1.017   8.967  20.198  0.00  0.00    +0.000 A 
ATOM      5  C   UNL     1       1.860   7.852  20.216  0.00  0.00    +0.000 A 
ATOM      6  C   UNL     1       2.392   7.324  19.029  0.00  0.00    +0.000 A 
ATOM      7  C   UNL     1       2.120   7.993  17.826  0.00  0.00    +0.000 A 
ATOM      8  C   UNL     1       1.326   9.147  17.817  0.00  0.00    +0.000 A 
BRANCH   3  16
ATOM      9  C   UNL     1       2.840  11.940  17.990  0.00  0.00    +0.000 C 
ATOM     10  C   UNL     1       1.906  12.603  19.002  0.00  0.00    +0.000 C 
ATOM     11  C   UNL     1       1.803  14.086  18.620  0.00  0.00    +0.000 C 
ATOM     12  C   UNL     1       0.512  14.539  19.260  0.00  0.00    +0.000 C 
ATOM     13  C   UNL     1      -0.406  13.320  19.134  0.00  0.00    +0.000 C 
ATOM     14  C   UNL     1      -1.370  13.298  20.321  0.00  0.00    +0.000 C 
ATOM     15  N   UNL     1       0.501  12.160  19.057  0.00  0.00    +0.000 N 
ATOM     16  C   UNL     1      -0.049  10.884  18.936  0.00  0.00    +0.000 C 
ATOM     17  O   UNL     1      -1.254  10.714  18.748  0.00  0.00    +0.000 OA
ENDBRANCH   3  16
ENDBRANCH   1   6
BRANCH   1  18
ATOM     18  N   UNL     1       4.484   6.186  18.476  0.00  0.00    +0.000 N 
ATOM     19  C   UNL     1       5.520   5.298  18.676  0.00  0.00    +0.000 C 
ATOM     20  O   UNL     1       5.463   4.290  19.364  0.00  0.00    +0.000 OA
ATOM     21  H   UNL     1       4.620   6.938  17.808  0.00  0.00    +0.000 HD
BRANCH  19  22
ATOM     22  C   UNL     1       6.793   5.647  17.938  0.00  0.00    +0.000 C 
ATOM     23  C   UNL     1       7.500   6.946  18.285  0.00  0.00    +0.000 C 
ATOM     24  C   UNL     1       8.077   5.653  18.762  0.00  0.00    +0.000 C 
BRANCH  22  25
ATOM     25  N   UNL     1       6.902   5.090  16.608  0.00  0.00    +0.000 N 
ATOM     26  C   UNL     1       6.164   5.546  15.534  0.00  0.00    +0.000 C 
ATOM     27  O   UNL     1       5.397   6.501  15.586  0.00  0.00    +0.000 OA
ATOM     28  H   UNL     1       7.541   4.312  16.512  0.00  0.00    +0.000 HD
BRANCH  26  29
ATOM     29  C   UNL     1       6.389   4.841  14.259  0.00  0.00    +0.000 A 
ATOM     30  C   UNL     1       7.474   5.072  13.439  0.00  0.00    +0.000 A 
ATOM     31  N   UNL     1       7.654   4.471  12.243  0.00  0.00    +0.000 NA
ATOM     32  C   UNL     1       6.704   3.587  11.887  0.00  0.00    +0.000 A 
ATOM     33  N   UNL     1       5.627   3.258  12.614  0.00  0.00    +0.000 NA
ATOM     34  C   UNL     1       5.497   3.894  13.803  0.00  0.00    +0.000 A 
ENDBRANCH  26  29
ENDBRANCH  22  25
ENDBRANCH  19  22
ENDBRANCH   1  18
TORSDOF 6
ENDMDL
MODEL 3
REMARK VINA RESULT:      -8.2      1.298      1.810
REMARK  Name = 
REMARK  9 active torsions:
REMARK  status: ('A' for Active; 'I' for Inactive)
REMARK    1  A    between atoms: C_1  and  C_2
REMARK    2  A    between atoms: C_5  and  C_6
REMARK    3  A    between atoms: C_8  and  C_10
REMARK    4  A    between atoms: C_13  and  C_14
REMARK    5  A    between atoms: C_14  and  C_15
REMARK    6  A    between atoms: C_14  and  N_16
REMARK    7  A    between atoms: C_17  and  C_19
REMARK    8  A    between atoms: C_19  and  N_20
REMARK    9  A    between atoms: C_21  and  C_23
REMARK                            x       y       z     vdW  Elec       q    Type
REMARK                         _______ _______ _______ _____ _____    ______ ____
ROOT
ATOM      1  C   UNL     1       3.207   5.856  19.245  0.00  0.00    +0.000 C 
ATOM      2  C   UNL     1       2.521   4.593  18.728  0.00  0.00    +0.000 C 
ENDROOT
BRANCH   1   6
ATOM      3  C   UNL     1       0.815   9.478  18.967  0.00  0.00    +0.000 A 
ATOM      4  C   UNL     1       1.390   8.896  17.838  0.00  0.00    +0.000 A 
ATOM      5  C   UNL     1       2.084   7.687  17.943  0.00  0.00    +0.000 A 
ATOM      6  C   UNL     1       2.331   7.098  19.193  0.00  0.00    +0.000 A 
ATOM      7  C   UNL     1       1.793   7.713  20.333  0.00  0.00    +0.000 A 
ATOM      8  C   UNL     1       1.045   8.891  20.220  0.00  0.00    +0.000 A 
BRANCH   3  16
ATOM      9  C   UNL     1       2.901  11.673  17.838  0.00  0.00    +0.000 C 
ATOM     10  C   UNL     1       2.030  12.381  18.876  0.00  0.00    +0.000 C 
ATOM     11  C   UNL     1       1.963  13.863  18.477  0.00  0.00    +0.000 C 
ATOM     12  C   UNL     1       0.715  14.368  19.161  0.00  0.00    +0.000 C 
ATOM     13  C   UNL     1      -0.249  13.181  19.088  0.00  0.00    +0.000 C 
ATOM     14  C   UNL     1      -1.165  13.208  20.312  0.00  0.00    +0.000 C 
ATOM     15  N   UNL     1       0.614  11.989  18.992  0.00  0.00    +0.000 N 
ATOM     16  C   UNL     1       0.016  10.731  18.910  0.00  0.00    +0.000 C 
ATOM     17  O   UNL     1      -1.201  10.601  18.772  0.00  0.00    +0.000 OA
ENDBRANCH   3  16
ENDBRANCH   1   6
BRANCH   1  18
ATOM     18  N   UNL     1       4.459   6.079  18.552  0.00  0.00    +0.000 N 
ATOM     19  C   UNL     1       5.551   5.252  18.704  0.00  0.00    +0.000 C 
ATOM     20  O   UNL     1       5.584   4.246  19.396  0.00  0.00    +0.000 OA
ATOM     21  H   UNL     1       4.520   6.834  17.876  0.00  0.00    +0.000 HD
BRANCH  19  22
ATOM     22  C   UNL     1       6.766   5.668  17.903  0.00  0.00    +0.000 C 
ATOM     23  C   UNL     1       7.413   7.007  18.211  0.00  0.00    +0.000 C 
ATOM     24  C   UNL     1       8.085   5.752  18.664  0.00  0.00    +0.000 C 
BRANCH  22  25
ATOM     25  N   UNL     1       6.842   5.109  16.572  0.00  0.00    +0.000 N 
ATOM     26  C   UNL     1       6.106   5.589  15.507  0.00  0.00    +0.000 C 
ATOM     27  O   UNL     1       5.370   6.567  15.569  0.00  0.00    +0.000 OA
ATOM     28  H   UNL     1       7.456   4.312  16.468  0.00  0.00    +0.000 HD
BRANCH  26  29
ATOM     29  C   UNL     1       6.295   4.879  14.229  0.00  0.00    +0.000 A 
ATOM     30  C   UNL     1       5.444   3.897  13.766  0.00  0.00    +0.000 A 
ATOM     31  N   UNL     1       5.645   3.204  12.625  0.00  0.00    +0.000 NA
ATOM     32  C   UNL     1       6.741   3.543  11.923  0.00  0.00    +0.000 A 
ATOM     33  N   UNL     1       7.620   4.500  12.256  0.00  0.00    +0.000 NA
ATOM     34  C   UNL     1       7.369   5.160  13.412  0.00  0.00    +0.000 A 
ENDBRANCH  26  29
ENDBRANCH  22  25
ENDBRANCH  19  22
ENDBRANCH   1  18
TORSDOF 6
ENDMDL
MODEL 4
REMARK VINA RESULT:      -8.2      0.302      1.227
REMARK  Name = 
REMARK  9 active torsions:
REMARK  status: ('A' for Active; 'I' for Inactive)
REMARK    1  A    between atoms: C_1  and  C_2
REMARK    2  A    between atoms: C_5  and  C_6
REMARK    3  A    between atoms: C_8  and  C_10
REMARK    4  A    between atoms: C_13  and  C_14
REMARK    5  A    between atoms: C_14  and  C_15
REMARK    6  A    between atoms: C_14  and  N_16
REMARK    7  A    between atoms: C_17  and  C_19
REMARK    8  A    between atoms: C_19  and  N_20
REMARK    9  A    between atoms: C_21  and  C_23
REMARK                            x       y       z     vdW  Elec       q    Type
REMARK                         _______ _______ _______ _____ _____    ______ ____
ROOT
ATOM      1  C   UNL     1       2.942   5.492  19.007  0.00  0.00    +0.000 C 
ATOM      2  C   UNL     1       2.036   4.746  18.029  0.00  0.00    +0.000 C 
ENDROOT
BRANCH   1   6
ATOM      3  C   UNL     1       1.090   9.107  20.561  0.00  0.00    +0.000 A 
ATOM      4  C   UNL     1       0.991   7.890  21.235  0.00  0.00    +0.000 A 
ATOM      5  C   UNL     1       1.665   6.762  20.758  0.00  0.00    +0.000 A 
ATOM      6  C   UNL     1       2.347   6.789  19.530  0.00  0.00    +0.000 A 
ATOM      7  C   UNL     1       2.402   8.003  18.830  0.00  0.00    +0.000 A 
ATOM      8  C   UNL     1       1.778   9.148  19.340  0.00  0.00    +0.000 A 
BRANCH   3  16
ATOM      9  C   UNL     1      -1.044   9.833  18.245  0.00  0.00    +0.000 C 
ATOM     10  C   UNL     1      -0.467  11.156  18.747  0.00  0.00    +0.000 C 
ATOM     11  C   UNL     1      -1.545  12.229  18.539  0.00  0.00    +0.000 C 
ATOM     12  C   UNL     1      -1.164  13.323  19.508  0.00  0.00    +0.000 C 
ATOM     13  C   UNL     1      -0.607  12.564  20.715  0.00  0.00    +0.000 C 
ATOM     14  C   UNL     1       0.470  13.417  21.386  0.00  0.00    +0.000 C 
ATOM     15  N   UNL     1      -0.127  11.279  20.176  0.00  0.00    +0.000 N 
ATOM     16  C   UNL     1       0.444  10.354  21.050  0.00  0.00    +0.000 C 
ATOM     17  O   UNL     1       0.427  10.521  22.270  0.00  0.00    +0.000 OA
ENDBRANCH   3  16
ENDBRANCH   1   6
BRANCH   1  18
ATOM     18  N   UNL     1       4.247   5.722  18.422  0.00  0.00    +0.000 N 
ATOM     19  C   UNL     1       5.330   4.909  18.676  0.00  0.00    +0.000 C 
ATOM     20  O   UNL     1       5.314   3.909  19.378  0.00  0.00    +0.000 OA
ATOM     21  H   UNL     1       4.358   6.471  17.746  0.00  0.00    +0.000 HD
BRANCH  19  22
ATOM     22  C   UNL     1       6.605   5.330  17.980  0.00  0.00    +0.000 C 
ATOM     23  C   UNL     1       7.287   6.612  18.428  0.00  0.00    +0.000 C 
ATOM     24  C   UNL     1       7.880   5.297  18.816  0.00  0.00    +0.000 C 
BRANCH  22  25
ATOM     25  N   UNL     1       6.737   4.873  16.614  0.00  0.00    +0.000 N 
ATOM     26  C   UNL     1       6.032   5.422  15.561  0.00  0.00    +0.000 C 
ATOM     27  O   UNL     1       5.279   6.383  15.668  0.00  0.00    +0.000 OA
ATOM     28  H   UNL     1       7.366   4.094  16.473  0.00  0.00    +0.000 HD
BRANCH  26  29
ATOM     29  C   UNL     1       6.277   4.811  14.242  0.00  0.00    +0.000 A 
ATOM     30  C   UNL     1       5.447   3.870  13.669  0.00  0.00    +0.000 A 
ATOM     31  N   UNL     1       5.698   3.266  12.488  0.00  0.00    +0.000 NA
ATOM     32  C   UNL     1       6.823   3.655  11.862  0.00  0.00    +0.000 A 
ATOM     33  N   UNL     1       7.686   4.582  12.305  0.00  0.00    +0.000 NA
ATOM     34  C   UNL     1       7.384   5.152  13.496  0.00  0.00    +0.000 A 
ENDBRANCH  26  29
ENDBRANCH  22  25
ENDBRANCH  19  22
ENDBRANCH   1  18
TORSDOF 6
ENDMDL
MODEL 5
REMARK VINA RESULT:      -8.1      1.194      1.997
REMARK  Name = 
REMARK  9 active torsions:
REMARK  status: ('A' for Active; 'I' for Inactive)
REMARK    1  A    between atoms: C_1  and  C_2
REMARK    2  A    between atoms: C_5  and  C_6
REMARK    3  A    between atoms: C_8  and  C_10
REMARK    4  A    between atoms: C_13  and  C_14
REMARK    5  A    between atoms: C_14  and  C_15
REMARK    6  A    between atoms: C_14  and  N_16
REMARK    7  A    between atoms: C_17  and  C_19
REMARK    8  A    between atoms: C_19  and  N_20
REMARK    9  A    between atoms: C_21  and  C_23
REMARK                            x       y       z     vdW  Elec       q    Type
REMARK                         _______ _______ _______ _____ _____    ______ ____
ROOT
ATOM      1  C   UNL     1       3.207   5.581  18.989  0.00  0.00    +0.000 C 
ATOM      2  C   UNL     1       2.391   4.576  18.179  0.00  0.00    +0.000 C 
ENDROOT
BRANCH   1   6
ATOM      3  C   UNL     1       1.092   9.331  19.605  0.00  0.00    +0.000 A 
ATOM      4  C   UNL     1       1.046   8.306  20.548  0.00  0.00    +0.000 A 
ATOM      5  C   UNL     1       1.801   7.144  20.365  0.00  0.00    +0.000 A 
ATOM      6  C   UNL     1       2.518   6.923  19.178  0.00  0.00    +0.000 A 
ATOM      7  C   UNL     1       2.522   7.937  18.209  0.00  0.00    +0.000 A 
ATOM      8  C   UNL     1       1.815   9.127  18.421  0.00  0.00    +0.000 A 
BRANCH   3  16
ATOM      9  C   UNL     1       0.656   9.563  22.799  0.00  0.00    +0.000 C 
ATOM     10  C   UNL     1      -0.608  10.112  22.138  0.00  0.00    +0.000 C 
ATOM     11  C   UNL     1      -1.206  11.153  23.096  0.00  0.00    +0.000 C 
ATOM     12  C   UNL     1      -2.069  12.015  22.206  0.00  0.00    +0.000 C 
ATOM     13  C   UNL     1      -1.292  12.074  20.888  0.00  0.00    +0.000 C 
ATOM     14  C   UNL     1      -2.284  12.199  19.731  0.00  0.00    +0.000 C 
ATOM     15  N   UNL     1      -0.474  10.848  20.867  0.00  0.00    +0.000 N 
ATOM     16  C   UNL     1       0.358  10.613  19.772  0.00  0.00    +0.000 C 
ATOM     17  O   UNL     1       0.533  11.465  18.899  0.00  0.00    +0.000 OA
ENDBRANCH   3  16
ENDBRANCH   1   6
BRANCH   1  18
ATOM     18  N   UNL     1       4.525   5.754  18.413  0.00  0.00    +0.000 N 
ATOM     19  C   UNL     1       5.581   4.920  18.707  0.00  0.00    +0.000 C 
ATOM     20  O   UNL     1       5.528   3.946  19.443  0.00  0.00    +0.000 OA
ATOM     21  H   UNL     1       4.665   6.476  17.713  0.00  0.00    +0.000 HD
BRANCH  19  22
ATOM     22  C   UNL     1       6.875   5.281  18.012  0.00  0.00    +0.000 C 
ATOM     23  C   UNL     1       7.619   6.526  18.464  0.00  0.00    +0.000 C 
ATOM     24  C   UNL     1       8.147   5.183  18.848  0.00  0.00    +0.000 C 
BRANCH  22  25
ATOM     25  N   UNL     1       6.985   4.822  16.645  0.00  0.00    +0.000 N 
ATOM     26  C   UNL     1       6.330   5.425  15.590  0.00  0.00    +0.000 C 
ATOM     27  O   UNL     1       5.648   6.438  15.696  0.00  0.00    +0.000 OA
ATOM     28  H   UNL     1       7.556   3.999  16.505  0.00  0.00    +0.000 HD
BRANCH  26  29
ATOM     29  C   UNL     1       6.540   4.804  14.269  0.00  0.00    +0.000 A 
ATOM     30  C   UNL     1       7.549   5.172  13.404  0.00  0.00    +0.000 A 
ATOM     31  N   UNL     1       7.710   4.647  12.170  0.00  0.00    +0.000 NA
ATOM     32  C   UNL     1       6.823   3.698  11.821  0.00  0.00    +0.000 A 
ATOM     33  N   UNL     1       5.825   3.237  12.589  0.00  0.00    +0.000 NA
ATOM     34  C   UNL     1       5.710   3.802  13.815  0.00  0.00    +0.000 A 
ENDBRANCH  26  29
ENDBRANCH  22  25
ENDBRANCH  19  22
ENDBRANCH   1  18
TORSDOF 6
ENDMDL
MODEL 6
REMARK VINA RESULT:      -8.0      1.539      2.101
REMARK  Name = 
REMARK  9 active torsions:
REMARK  status: ('A' for Active; 'I' for Inactive)
REMARK    1  A    between atoms: C_1  and  C_2
REMARK    2  A    between atoms: C_5  and  C_6
REMARK    3  A    between atoms: C_8  and  C_10
REMARK    4  A    between atoms: C_13  and  C_14
REMARK    5  A    between atoms: C_14  and  C_15
REMARK    6  A    between atoms: C_14  and  N_16
REMARK    7  A    between atoms: C_17  and  C_19
REMARK    8  A    between atoms: C_19  and  N_20
REMARK    9  A    between atoms: C_21  and  C_23
REMARK                            x       y       z     vdW  Elec       q    Type
REMARK                         _______ _______ _______ _____ _____    ______ ____
ROOT
ATOM      1  C   UNL     1       3.105   6.485  18.956  0.00  0.00    +0.000 C 
ATOM      2  C   UNL     1       2.450   5.191  18.477  0.00  0.00    +0.000 C 
ENDROOT
BRANCH   1   6
ATOM      3  C   UNL     1       0.473   9.945  19.059  0.00  0.00    +0.000 A 
ATOM      4  C   UNL     1       1.007   9.472  17.861  0.00  0.00    +0.000 A 
ATOM      5  C   UNL     1       1.783   8.309  17.845  0.00  0.00    +0.000 A 
ATOM      6  C   UNL     1       2.150   7.665  19.038  0.00  0.00    +0.000 A 
ATOM      7  C   UNL     1       1.651   8.173  20.246  0.00  0.00    +0.000 A 
ATOM      8  C   UNL     1       0.823   9.302  20.255  0.00  0.00    +0.000 A 
BRANCH   3  16
ATOM      9  C   UNL     1       2.446  12.400  18.334  0.00  0.00    +0.000 C 
ATOM     10  C   UNL     1       1.490  12.904  19.415  0.00  0.00    +0.000 C 
ATOM     11  C   UNL     1       1.337  14.419  19.214  0.00  0.00    +0.000 C 
ATOM     12  C   UNL     1       0.032  14.748  19.898  0.00  0.00    +0.000 C 
ATOM     13  C   UNL     1      -0.845  13.523  19.622  0.00  0.00    +0.000 C 
ATOM     14  C   UNL     1      -1.808  13.326  20.793  0.00  0.00    +0.000 C 
ATOM     15  N   UNL     1       0.100  12.412  19.409  0.00  0.00    +0.000 N 
ATOM     16  C   UNL     1      -0.407  11.142  19.131  0.00  0.00    +0.000 C 
ATOM     17  O   UNL     1      -1.606  10.957  18.918  0.00  0.00    +0.000 OA
ENDBRANCH   3  16
ENDBRANCH   1   6
BRANCH   1  18
ATOM     18  N   UNL     1       4.257   6.809  18.139  0.00  0.00    +0.000 N 
ATOM     19  C   UNL     1       5.512   6.296  18.385  0.00  0.00    +0.000 C 
ATOM     20  O   UNL     1       5.790   5.507  19.275  0.00  0.00    +0.000 OA
ATOM     21  H   UNL     1       4.127   7.384  17.312  0.00  0.00    +0.000 HD
BRANCH  19  22
ATOM     22  C   UNL     1       6.580   6.770  17.425  0.00  0.00    +0.000 C 
ATOM     23  C   UNL     1       7.193   8.143  17.642  0.00  0.00    +0.000 C 
ATOM     24  C   UNL     1       7.986   6.928  17.995  0.00  0.00    +0.000 C 
BRANCH  22  25
ATOM     25  N   UNL     1       6.500   6.210  16.095  0.00  0.00    +0.000 N 
ATOM     26  C   UNL     1       7.098   5.017  15.739  0.00  0.00    +0.000 C 
ATOM     27  O   UNL     1       7.696   4.290  16.524  0.00  0.00    +0.000 OA
ATOM     28  H   UNL     1       5.997   6.765  15.416  0.00  0.00    +0.000 HD
BRANCH  26  29
ATOM     29  C   UNL     1       6.932   4.614  14.331  0.00  0.00    +0.000 A 
ATOM     30  C   UNL     1       6.004   3.686  13.906  0.00  0.00    +0.000 A 
ATOM     31  N   UNL     1       5.887   3.271  12.626  0.00  0.00    +0.000 NA
ATOM     32  C   UNL     1       6.733   3.842  11.749  0.00  0.00    +0.000 A 
ATOM     33  N   UNL     1       7.651   4.775  12.040  0.00  0.00    +0.000 NA
ATOM     34  C   UNL     1       7.725   5.151  13.340  0.00  0.00    +0.000 A 
ENDBRANCH  26  29
ENDBRANCH  22  25
ENDBRANCH  19  22
ENDBRANCH   1  18
TORSDOF 6
ENDMDL
MODEL 7
REMARK VINA RESULT:      -8.0      2.214      9.446
REMARK  Name = 
REMARK  9 active torsions:
REMARK  status: ('A' for Active; 'I' for Inactive)
REMARK    1  A    between atoms: C_1  and  C_2
REMARK    2  A    between atoms: C_5  and  C_6
REMARK    3  A    between atoms: C_8  and  C_10
REMARK    4  A    between atoms: C_13  and  C_14
REMARK    5  A    between atoms: C_14  and  C_15
REMARK    6  A    between atoms: C_14  and  N_16
REMARK    7  A    between atoms: C_17  and  C_19
REMARK    8  A    between atoms: C_19  and  N_20
REMARK    9  A    between atoms: C_21  and  C_23
REMARK                            x       y       z     vdW  Elec       q    Type
REMARK                         _______ _______ _______ _____ _____    ______ ____
ROOT
ATOM      1  C   UNL     1       1.091   8.511  20.988  0.00  0.00    +0.000 C 
ATOM      2  C   UNL     1       1.783   8.769  22.325  0.00  0.00    +0.000 C 
ENDROOT
BRANCH   1   6
ATOM      3  C   UNL     1       3.130   5.793  18.273  0.00  0.00    +0.000 A 
ATOM      4  C   UNL     1       2.934   7.135  17.949  0.00  0.00    +0.000 A 
ATOM      5  C   UNL     1       2.350   8.006  18.873  0.00  0.00    +0.000 A 
ATOM      6  C   UNL     1       1.832   7.533  20.090  0.00  0.00    +0.000 A 
ATOM      7  C   UNL     1       1.987   6.172  20.391  0.00  0.00    +0.000 A 
ATOM      8  C   UNL     1       2.627   5.312  19.490  0.00  0.00    +0.000 A 
BRANCH   3  16
ATOM      9  C   UNL     1       6.154   5.619  19.399  0.00  0.00    +0.000 C 
ATOM     10  C   UNL     1       6.244   5.554  17.875  0.00  0.00    +0.000 C 
ATOM     11  C   UNL     1       7.504   4.747  17.529  0.00  0.00    +0.000 C 
ATOM     12  C   UNL     1       7.251   4.258  16.123  0.00  0.00    +0.000 C 
ATOM     13  C   UNL     1       5.745   3.983  16.097  0.00  0.00    +0.000 C 
ATOM     14  C   UNL     1       5.217   4.239  14.685  0.00  0.00    +0.000 C 
ATOM     15  N   UNL     1       5.174   4.858  17.136  0.00  0.00    +0.000 N 
ATOM     16  C   UNL     1       3.797   4.832  17.355  0.00  0.00    +0.000 C 
ATOM     17  O   UNL     1       3.071   4.001  16.808  0.00  0.00    +0.000 OA
ENDBRANCH   3  16
ENDBRANCH   1   6
BRANCH   1  18
ATOM     18  N   UNL     1       0.837   9.757  20.294  0.00  0.00    +0.000 N 
ATOM     19  C   UNL     1       0.511  10.923  20.954  0.00  0.00    +0.000 C 
ATOM     20  O   UNL     1       0.431  11.049  22.166  0.00  0.00    +0.000 OA
ATOM     21  H   UNL     1       0.966   9.796  19.288  0.00  0.00    +0.000 HD
BRANCH  19  22
ATOM     22  C   UNL     1       0.270  12.108  20.046  0.00  0.00    +0.000 C 
ATOM     23  C   UNL     1       0.401  13.505  20.627  0.00  0.00    +0.000 C 
ATOM     24  C   UNL     1       1.480  12.983  19.735  0.00  0.00    +0.000 C 
BRANCH  22  25
ATOM     25  N   UNL     1      -0.626  11.860  18.939  0.00  0.00    +0.000 N 
ATOM     26  C   UNL     1      -2.000  11.825  19.071  0.00  0.00    +0.000 C 
ATOM     27  O   UNL     1      -2.594  12.061  20.118  0.00  0.00    +0.000 OA
ATOM     28  H   UNL     1      -0.182  11.680  18.048  0.00  0.00    +0.000 HD
BRANCH  26  29
ATOM     29  C   UNL     1      -2.754  11.533  17.838  0.00  0.00    +0.000 A 
ATOM     30  C   UNL     1      -4.127  11.620  17.742  0.00  0.00    +0.000 A 
ATOM     31  N   UNL     1      -4.825  11.298  16.632  0.00  0.00    +0.000 NA
ATOM     32  C   UNL     1      -4.091  10.896  15.579  0.00  0.00    +0.000 A 
ATOM     33  N   UNL     1      -2.754  10.804  15.545  0.00  0.00    +0.000 NA
ATOM     34  C   UNL     1      -2.107  11.138  16.687  0.00  0.00    +0.000 A 
ENDBRANCH  26  29
ENDBRANCH  22  25
ENDBRANCH  19  22
ENDBRANCH   1  18
TORSDOF 6
ENDMDL
MODEL 8
REMARK VINA RESULT:      -8.0      1.533      2.107
REMARK  Name = 
REMARK  9 active torsions:
REMARK  status: ('A' for Active; 'I' for Inactive)
REMARK    1  A    between atoms: C_1  and  C_2
REMARK    2  A    between atoms: C_5  and  C_6
REMARK    3  A    between atoms: C_8  and  C_10
REMARK    4  A    between atoms: C_13  and  C_14
REMARK    5  A    between atoms: C_14  and  C_15
REMARK    6  A    between atoms: C_14  and  N_16
REMARK    7  A    between atoms: C_17  and  C_19
REMARK    8  A    between atoms: C_19  and  N_20
REMARK    9  A    between atoms: C_21  and  C_23
REMARK                            x       y       z     vdW  Elec       q    Type
REMARK                         _______ _______ _______ _____ _____    ______ ____
ROOT
ATOM      1  C   UNL     1       2.998   6.596  18.776  0.00  0.00    +0.000 C 
ATOM      2  C   UNL     1       2.277   5.373  18.213  0.00  0.00    +0.000 C 
ENDROOT
BRANCH   1   6
ATOM      3  C   UNL     1       0.378  10.037  19.237  0.00  0.00    +0.000 A 
ATOM      4  C   UNL     1       0.757   9.258  20.330  0.00  0.00    +0.000 A 
ATOM      5  C   UNL     1       1.666   8.209  20.168  0.00  0.00    +0.000 A 
ATOM      6  C   UNL     1       2.118   7.830  18.893  0.00  0.00    +0.000 A 
ATOM      7  C   UNL     1       1.694   8.585  17.789  0.00  0.00    +0.000 A 
ATOM      8  C   UNL     1       0.832   9.675  17.961  0.00  0.00    +0.000 A 
BRANCH   3  16
ATOM      9  C   UNL     1       2.261  12.576  18.566  0.00  0.00    +0.000 C 
ATOM     10  C   UNL     1       1.302  13.016  19.672  0.00  0.00    +0.000 C 
ATOM     11  C   UNL     1       1.097  14.530  19.520  0.00  0.00    +0.000 C 
ATOM     12  C   UNL     1      -0.210  14.795  20.229  0.00  0.00    +0.000 C 
ATOM     13  C   UNL     1      -1.049  13.551  19.925  0.00  0.00    +0.000 C 
ATOM     14  C   UNL     1      -1.991  13.286  21.101  0.00  0.00    +0.000 C 
ATOM     15  N   UNL     1      -0.071  12.478  19.667  0.00  0.00    +0.000 N 
ATOM     16  C   UNL     1      -0.539  11.201  19.357  0.00  0.00    +0.000 C 
ATOM     17  O   UNL     1      -1.734  10.983  19.152  0.00  0.00    +0.000 OA
ENDBRANCH   3  16
ENDBRANCH   1   6
BRANCH   1  18
ATOM     18  N   UNL     1       4.192   6.885  18.009  0.00  0.00    +0.000 N 
ATOM     19  C   UNL     1       5.413   6.312  18.289  0.00  0.00    +0.000 C 
ATOM     20  O   UNL     1       5.624   5.494  19.171  0.00  0.00    +0.000 OA
ATOM     21  H   UNL     1       4.118   7.481  17.190  0.00  0.00    +0.000 HD
BRANCH  19  22
ATOM     22  C   UNL     1       6.536   6.757  17.379  0.00  0.00    +0.000 C 
ATOM     23  C   UNL     1       7.172   8.115  17.622  0.00  0.00    +0.000 C 
ATOM     24  C   UNL     1       7.918   6.881  18.013  0.00  0.00    +0.000 C 
BRANCH  22  25
ATOM     25  N   UNL     1       6.504   6.195  16.047  0.00  0.00    +0.000 N 
ATOM     26  C   UNL     1       7.119   5.005  15.714  0.00  0.00    +0.000 C 
ATOM     27  O   UNL     1       7.692   4.281  16.519  0.00  0.00    +0.000 OA
ATOM     28  H   UNL     1       6.022   6.748  15.351  0.00  0.00    +0.000 HD
BRANCH  26  29
ATOM     29  C   UNL     1       7.002   4.600  14.301  0.00  0.00    +0.000 A 
ATOM     30  C   UNL     1       7.789   5.112  13.291  0.00  0.00    +0.000 A 
ATOM     31  N   UNL     1       7.647   4.787  11.988  0.00  0.00    +0.000 NA
ATOM     32  C   UNL     1       6.682   3.890  11.714  0.00  0.00    +0.000 A 
ATOM     33  N   UNL     1       5.881   3.301  12.613  0.00  0.00    +0.000 NA
ATOM     34  C   UNL     1       6.067   3.667  13.904  0.00  0.00    +0.000 A 
ENDBRANCH  26  29
ENDBRANCH  22  25
ENDBRANCH  19  22
ENDBRANCH   1  18
TORSDOF 6
ENDMDL
MODEL 9
REMARK VINA RESULT:      -7.9      2.866      4.487
REMARK  Name = 
REMARK  9 active torsions:
REMARK  status: ('A' for Active; 'I' for Inactive)
REMARK    1  A    between atoms: C_1  and  C_2
REMARK    2  A    between atoms: C_5  and  C_6
REMARK    3  A    between atoms: C_8  and  C_10
REMARK    4  A    between atoms: C_13  and  C_14
REMARK    5  A    between atoms: C_14  and  C_15
REMARK    6  A    between atoms: C_14  and  N_16
REMARK    7  A    between atoms: C_17  and  C_19
REMARK    8  A    between atoms: C_19  and  N_20
REMARK    9  A    between atoms: C_21  and  C_23
REMARK                            x       y       z     vdW  Elec       q    Type
REMARK                         _______ _______ _______ _____ _____    ______ ____
ROOT
ATOM      1  C   UNL     1       3.094   6.405  18.924  0.00  0.00    +0.000 C 
ATOM      2  C   UNL     1       2.363   5.113  18.564  0.00  0.00    +0.000 C 
ENDROOT
BRANCH   1   6
ATOM      3  C   UNL     1       0.585   9.951  19.138  0.00  0.00    +0.000 A 
ATOM      4  C   UNL     1       1.085   9.485  17.923  0.00  0.00    +0.000 A 
ATOM      5  C   UNL     1       1.819   8.297  17.871  0.00  0.00    +0.000 A 
ATOM      6  C   UNL     1       2.181   7.615  19.045  0.00  0.00    +0.000 A 
ATOM      7  C   UNL     1       1.718   8.115  20.271  0.00  0.00    +0.000 A 
ATOM      8  C   UNL     1       0.930   9.272  20.316  0.00  0.00    +0.000 A 
BRANCH   3  16
ATOM      9  C   UNL     1       2.554  12.322  18.166  0.00  0.00    +0.000 C 
ATOM     10  C   UNL     1       1.711  12.886  19.310  0.00  0.00    +0.000 C 
ATOM     11  C   UNL     1       1.584  14.399  19.075  0.00  0.00    +0.000 C 
ATOM     12  C   UNL     1       0.353  14.787  19.859  0.00  0.00    +0.000 C 
ATOM     13  C   UNL     1      -0.578  13.583  19.700  0.00  0.00    +0.000 C 
ATOM     14  C   UNL     1      -1.439  13.450  20.957  0.00  0.00    +0.000 C 
ATOM     15  N   UNL     1       0.313  12.437  19.441  0.00  0.00    +0.000 N 
ATOM     16  C   UNL     1      -0.251  11.176  19.249  0.00  0.00    +0.000 C 
ATOM     17  O   UNL     1      -1.469  11.021  19.148  0.00  0.00    +0.000 OA
ENDBRANCH   3  16
ENDBRANCH   1   6
BRANCH   1  18
ATOM     18  N   UNL     1       4.170   6.662  17.989  0.00  0.00    +0.000 N 
ATOM     19  C   UNL     1       5.327   5.914  17.964  0.00  0.00    +0.000 C 
ATOM     20  O   UNL     1       5.565   4.955  18.683  0.00  0.00    +0.000 OA
ATOM     21  H   UNL     1       4.045   7.376  17.279  0.00  0.00    +0.000 HD
BRANCH  19  22
ATOM     22  C   UNL     1       6.332   6.353  16.922  0.00  0.00    +0.000 C 
ATOM     23  C   UNL     1       7.101   5.287  16.161  0.00  0.00    +0.000 C 
ATOM     24  C   UNL     1       5.997   6.020  15.471  0.00  0.00    +0.000 C 
BRANCH  22  25
ATOM     25  N   UNL     1       6.920   7.655  17.148  0.00  0.00    +0.000 N 
ATOM     26  C   UNL     1       7.873   7.896  18.117  0.00  0.00    +0.000 C 
ATOM     27  O   UNL     1       8.358   7.026  18.832  0.00  0.00    +0.000 OA
ATOM     28  H   UNL     1       6.566   8.402  16.565  0.00  0.00    +0.000 HD
BRANCH  26  29
ATOM     29  C   UNL     1       8.341   9.290  18.220  0.00  0.00    +0.000 A 
ATOM     30  C   UNL     1       7.840  10.323  17.456  0.00  0.00    +0.000 A 
ATOM     31  N   UNL     1       8.305  11.590  17.506  0.00  0.00    +0.000 NA
ATOM     32  C   UNL     1       9.300  11.811  18.383  0.00  0.00    +0.000 A 
ATOM     33  N   UNL     1       9.843  10.895  19.199  0.00  0.00    +0.000 NA
ATOM     34  C   UNL     1       9.339   9.642  19.104  0.00  0.00    +0.000 A 
ENDBRANCH  26  29
ENDBRANCH  22  25
ENDBRANCH  19  22
ENDBRANCH   1  18
TORSDOF 6
ENDMDL
