MODEL 1
REMARK VINA RESULT:      -8.2      0.000      0.000
REMARK  Name = 
REMARK  4 active torsions:
REMARK  status: ('A' for Active; 'I' for Inactive)
REMARK    1  A    between atoms: C_1  and  C_2
REMARK    2  A    between atoms: C_5  and  C_6
REMARK    3  A    between atoms: C_7  and  C_8
REMARK    4  A    between atoms: N_10  and  C_11
REMARK                            x       y       z     vdW  Elec       q    Type
REMARK                         _______ _______ _______ _____ _____    ______ ____
ROOT
ATOM      1  C   UNL     1       7.723   7.629  17.876  0.00  0.00    +0.000 C 
ATOM      2  O   UNL     1       8.144   6.856  18.728  0.00  0.00    +0.000 OA
ATOM      3  N   UNL     1       6.820   7.339  16.870  0.00  0.00    +0.000 N 
ATOM      4  H   UNL     1       6.683   8.040  16.156  0.00  0.00    +0.000 HD
ENDROOT
BRANCH   3   5
ATOM      5  C   UNL     1       6.180   6.080  16.668  0.00  0.00    +0.000 A 
ATOM      6  C   UNL     1       6.820   5.068  15.940  0.00  0.00    +0.000 A 
ATOM      7  C   UNL     1       6.187   3.859  15.685  0.00  0.00    +0.000 A 
ATOM      8  C   UNL     1       4.902   3.642  16.165  0.00  0.00    +0.000 A 
ATOM      9  C   UNL     1       4.237   4.596  16.915  0.00  0.00    +0.000 A 
ATOM     10  N   UNL     1       2.998   4.282  17.326  0.00  0.00    +0.000 NA
ATOM     11  C   UNL     1       2.314   5.188  18.050  0.00  0.00    +0.000 A 
ATOM     12  C   UNL     1       2.827   6.416  18.406  0.00  0.00    +0.000 A 
ATOM     13  C   UNL     1       4.113   6.739  17.979  0.00  0.00    +0.000 A 
ATOM     14  C   UNL     1       4.873   5.832  17.199  0.00  0.00    +0.000 A 
ENDBRANCH   3   5
BRANCH   1  16
ATOM     15  C   UNL     1       8.945   9.469  18.875  0.00  0.00    +0.000 C 
ATOM     16  C   UNL     1       8.233   9.029  17.829  0.00  0.00    +0.000 C 
BRANCH  15  21
ATOM     17  C   UNL     1      10.854  13.613  17.200  0.00  0.00    +0.000 C 
ATOM     18  C   UNL     1      10.328  12.716  18.247  0.00  0.00    +0.000 A 
ATOM     19  C   UNL     1      10.153  12.842  19.604  0.00  0.00    +0.000 A 
ATOM     20  C   UNL     1       9.600  11.616  20.037  0.00  0.00    +0.000 A 
ATOM     21  C   UNL     1       9.459  10.791  18.928  0.00  0.00    +0.000 A 
ATOM     22  O   UNL     1       9.917  11.490  17.831  0.00  0.00    +0.000 OA
ENDBRANCH  15  21
ENDBRANCH   1  16
TORSDOF 3
ENDMDL
MODEL 2
REMARK VINA RESULT:      -8.1      0.689      1.171
REMARK  Name = 
REMARK  4 active torsions:
REMARK  status: ('A' for Active; 'I' for Inactive)
REMARK    1  A    between atoms: C_1  and  C_2
REMARK    2  A    between atoms: C_5  and  C_6
REMARK    3  A    between atoms: C_7  and  C_8
REMARK    4  A    between atoms: N_10  and  C_11
REMARK                            x       y       z     vdW  Elec       q    Type
REMARK                         _______ _______ _______ _____ _____    ______ ____
ROOT
ATOM      1  C   UNL     1       7.735   7.736  17.880  0.00  0.00    +0.000 C 
ATOM      2  O   UNL     1       8.179   6.957  18.715  0.00  0.00    +0.000 OA
ATOM      3  N   UNL     1       6.847   7.440  16.862  0.00  0.00    +0.000 N 
ATOM      4  H   UNL     1       6.687   8.153  16.166  0.00  0.00    +0.000 HD
ENDROOT
BRANCH   3   5
ATOM      5  C   UNL     1       6.253   6.163  16.626  0.00  0.00    +0.000 A 
ATOM      6  C   UNL     1       6.924   5.200  15.860  0.00  0.00    +0.000 A 
ATOM      7  C   UNL     1       6.335   3.977  15.571  0.00  0.00    +0.000 A 
ATOM      8  C   UNL     1       5.064   3.696  16.055  0.00  0.00    +0.000 A 
ATOM      9  C   UNL     1       4.371   4.599  16.841  0.00  0.00    +0.000 A 
ATOM     10  N   UNL     1       3.148   4.225  17.252  0.00  0.00    +0.000 NA
ATOM     11  C   UNL     1       2.438   5.081  18.011  0.00  0.00    +0.000 A 
ATOM     12  C   UNL     1       2.907   6.315  18.401  0.00  0.00    +0.000 A 
ATOM     13  C   UNL     1       4.176   6.701  17.974  0.00  0.00    +0.000 A 
ATOM     14  C   UNL     1       4.961   5.850  17.159  0.00  0.00    +0.000 A 
ENDBRANCH   3   5
BRANCH   1  16
ATOM     15  C   UNL     1       9.001   9.555  18.862  0.00  0.00    +0.000 C 
ATOM     16  C   UNL     1       8.194   9.154  17.871  0.00  0.00    +0.000 C 
BRANCH  15  21
ATOM     17  C   UNL     1      10.266  13.744  20.976  0.00  0.00    +0.000 C 
ATOM     18  C   UNL     1      10.079  12.834  19.831  0.00  0.00    +0.000 A 
ATOM     19  C   UNL     1      10.296  12.953  18.479  0.00  0.00    +0.000 A 
ATOM     20  C   UNL     1       9.913  11.714  17.917  0.00  0.00    +0.000 A 
ATOM     21  C   UNL     1       9.477  10.889  18.947  0.00  0.00    +0.000 A 
ATOM     22  O   UNL     1       9.586  11.601  20.122  0.00  0.00    +0.000 OA
ENDBRANCH  15  21
ENDBRANCH   1  16
TORSDOF 3
ENDMDL
MODEL 3
REMARK VINA RESULT:      -7.8      3.161      9.003
REMARK  Name = 
REMARK  4 active torsions:
REMARK  status: ('A' for Active; 'I' for Inactive)
REMARK    1  A    between atoms: C_1  and  C_2
REMARK    2  A    between atoms: C_5  and  C_6
REMARK    3  A    between atoms: C_7  and  C_8
REMARK    4  A    between atoms: N_10  and  C_11
REMARK                            x       y       z     vdW  Elec       q    Type
REMARK                         _______ _______ _______ _____ _____    ______ ____
ROOT
ATOM      1  C   UNL     1       8.795  10.111  18.580  0.00  0.00    +0.000 C 
ATOM      2  O   UNL     1       8.186  10.887  17.852  0.00  0.00    +0.000 OA
ATOM      3  N   UNL     1       9.684  10.445  19.585  0.00  0.00    +0.000 N 
ATOM      4  H   UNL     1      10.217   9.694  19.998  0.00  0.00    +0.000 HD
ENDROOT
BRANCH   3   5
ATOM      5  C   UNL     1      10.024  11.772  19.983  0.00  0.00    +0.000 A 
ATOM      6  C   UNL     1       9.551  12.292  21.195  0.00  0.00    +0.000 A 
ATOM      7  C   UNL     1       9.824  13.601  21.569  0.00  0.00    +0.000 A 
ATOM      8  C   UNL     1      10.585  14.409  20.734  0.00  0.00    +0.000 A 
ATOM      9  C   UNL     1      11.102  13.936  19.541  0.00  0.00    +0.000 A 
ATOM     10  N   UNL     1      11.822  14.804  18.810  0.00  0.00    +0.000 NA
ATOM     11  C   UNL     1      12.333  14.384  17.638  0.00  0.00    +0.000 A 
ATOM     12  C   UNL     1      12.171  13.104  17.155  0.00  0.00    +0.000 A 
ATOM     13  C   UNL     1      11.425  12.206  17.915  0.00  0.00    +0.000 A 
ATOM     14  C   UNL     1      10.847  12.596  19.148  0.00  0.00    +0.000 A 
ENDBRANCH   3   5
BRANCH   1  16
ATOM     15  C   UNL     1       7.658   8.214  17.588  0.00  0.00    +0.000 C 
ATOM     16  C   UNL     1       8.647   8.641  18.383  0.00  0.00    +0.000 C 
BRANCH  15  21
ATOM     17  C   UNL     1       6.506   4.220  15.069  0.00  0.00    +0.000 C 
ATOM     18  C   UNL     1       6.919   4.960  16.276  0.00  0.00    +0.000 A 
ATOM     19  C   UNL     1       7.223   4.584  17.562  0.00  0.00    +0.000 A 
ATOM     20  C   UNL     1       7.548   5.777  18.247  0.00  0.00    +0.000 A 
ATOM     21  C   UNL     1       7.429   6.833  17.352  0.00  0.00    +0.000 A 
ATOM     22  O   UNL     1       7.038   6.307  16.140  0.00  0.00    +0.000 OA
ENDBRANCH  15  21
ENDBRANCH   1  16
TORSDOF 3
ENDMDL
MODEL 4
REMARK VINA RESULT:      -7.8      1.432      1.445
REMARK  Name = 
REMARK  4 active torsions:
REMARK  status: ('A' for Active; 'I' for Inactive)
REMARK    1  A    between atoms: C_1  and  C_2
REMARK    2  A    between atoms: C_5  and  C_6
REMARK    3  A    between atoms: C_7  and  C_8
REMARK    4  A    between atoms: N_10  and  C_11
REMARK                            x       y       z     vdW  Elec       q    Type
REMARK                         _______ _______ _______ _____ _____    ______ ____
ROOT
ATOM      1  C   UNL     1       7.552   7.835  17.637  0.00  0.00    +0.000 C 
ATOM      2  O   UNL     1       6.634   8.424  17.078  0.00  0.00    +0.000 OA
ATOM      3  N   UNL     1       7.778   6.471  17.641  0.00  0.00    +0.000 N 
ATOM      4  H   UNL     1       8.491   6.123  18.266  0.00  0.00    +0.000 HD
ENDROOT
BRANCH   3   5
ATOM      5  C   UNL     1       6.993   5.499  16.952  0.00  0.00    +0.000 A 
ATOM      6  C   UNL     1       7.346   5.088  15.660  0.00  0.00    +0.000 A 
ATOM      7  C   UNL     1       6.559   4.188  14.954  0.00  0.00    +0.000 A 
ATOM      8  C   UNL     1       5.408   3.677  15.539  0.00  0.00    +0.000 A 
ATOM      9  C   UNL     1       5.030   4.026  16.823  0.00  0.00    +0.000 A 
ATOM     10  N   UNL     1       3.897   3.475  17.289  0.00  0.00    +0.000 NA
ATOM     11  C   UNL     1       3.491   3.798  18.531  0.00  0.00    +0.000 A 
ATOM     12  C   UNL     1       4.186   4.652  19.357  0.00  0.00    +0.000 A 
ATOM     13  C   UNL     1       5.362   5.222  18.873  0.00  0.00    +0.000 A 
ATOM     14  C   UNL     1       5.828   4.934  17.567  0.00  0.00    +0.000 A 
ENDBRANCH   3   5
BRANCH   1  16
ATOM     15  C   UNL     1       8.643   9.917  18.229  0.00  0.00    +0.000 C 
ATOM     16  C   UNL     1       8.534   8.601  18.455  0.00  0.00    +0.000 C 
BRANCH  15  21
ATOM     17  C   UNL     1      12.333  13.008  18.899  0.00  0.00    +0.000 C 
ATOM     18  C   UNL     1      11.231  12.135  19.343  0.00  0.00    +0.000 A 
ATOM     19  C   UNL     1      10.716  11.807  20.574  0.00  0.00    +0.000 A 
ATOM     20  C   UNL     1       9.653  10.911  20.322  0.00  0.00    +0.000 A 
ATOM     21  C   UNL     1       9.561  10.727  18.948  0.00  0.00    +0.000 A 
ATOM     22  O   UNL     1      10.546  11.491  18.361  0.00  0.00    +0.000 OA
ENDBRANCH  15  21
ENDBRANCH   1  16
TORSDOF 3
ENDMDL
MODEL 5
REMARK VINA RESULT:      -7.7      5.221      7.099
REMARK  Name = 
REMARK  4 active torsions:
REMARK  status: ('A' for Active; 'I' for Inactive)
REMARK    1  A    between atoms: C_1  and  C_2
REMARK    2  A    between atoms: C_5  and  C_6
REMARK    3  A    between atoms: C_7  and  C_8
REMARK    4  A    between atoms: N_10  and  C_11
REMARK                            x       y       z     vdW  Elec       q    Type
REMARK                         _______ _______ _______ _____ _____    ______ ____
ROOT
ATOM      1  C   UNL     1       2.035   8.555  18.339  0.00  0.00    +0.000 C 
ATOM      2  O   UNL     1       2.265   8.941  17.199  0.00  0.00    +0.000 OA
ATOM      3  N   UNL     1       2.366   7.326  18.879  0.00  0.00    +0.000 N 
ATOM      4  H   UNL     1       1.981   7.100  19.785  0.00  0.00    +0.000 HD
ENDROOT
BRANCH   3   5
ATOM      5  C   UNL     1       3.081   6.290  18.206  0.00  0.00    +0.000 A 
ATOM      6  C   UNL     1       4.202   6.595  17.423  0.00  0.00    +0.000 A 
ATOM      7  C   UNL     1       4.871   5.607  16.713  0.00  0.00    +0.000 A 
ATOM      8  C   UNL     1       4.431   4.292  16.786  0.00  0.00    +0.000 A 
ATOM      9  C   UNL     1       3.348   3.932  17.569  0.00  0.00    +0.000 A 
ATOM     10  N   UNL     1       3.007   2.633  17.563  0.00  0.00    +0.000 NA
ATOM     11  C   UNL     1       1.952   2.245  18.305  0.00  0.00    +0.000 A 
ATOM     12  C   UNL     1       1.213   3.109  19.082  0.00  0.00    +0.000 A 
ATOM     13  C   UNL     1       1.570   4.456  19.087  0.00  0.00    +0.000 A 
ATOM     14  C   UNL     1       2.659   4.925  18.313  0.00  0.00    +0.000 A 
ENDBRANCH   3   5
BRANCH   1  16
ATOM     15  C   UNL     1       0.996   8.944  20.494  0.00  0.00    +0.000 C 
ATOM     16  C   UNL     1       1.279   9.430  19.278  0.00  0.00    +0.000 C 
BRANCH  15  21
ATOM     17  C   UNL     1      -0.965  12.883  22.556  0.00  0.00    +0.000 C 
ATOM     18  C   UNL     1      -0.662  11.443  22.458  0.00  0.00    +0.000 A 
ATOM     19  C   UNL     1      -0.970  10.354  23.236  0.00  0.00    +0.000 A 
ATOM     20  C   UNL     1      -0.378   9.242  22.594  0.00  0.00    +0.000 A 
ATOM     21  C   UNL     1       0.268   9.697  21.452  0.00  0.00    +0.000 A 
ATOM     22  O   UNL     1       0.082  11.061  21.387  0.00  0.00    +0.000 OA
ENDBRANCH  15  21
ENDBRANCH   1  16
TORSDOF 3
ENDMDL
MODEL 6
REMARK VINA RESULT:      -7.5      3.022      8.587
REMARK  Name = 
REMARK  4 active torsions:
REMARK  status: ('A' for Active; 'I' for Inactive)
REMARK    1  A    between atoms: C_1  and  C_2
REMARK    2  A    between atoms: C_5  and  C_6
REMARK    3  A    between atoms: C_7  and  C_8
REMARK    4  A    between atoms: N_10  and  C_11
REMARK                            x       y       z     vdW  Elec       q    Type
REMARK                         _______ _______ _______ _____ _____    ______ ____
ROOT
ATOM      1  C   UNL     1       8.928   9.948  18.529  0.00  0.00    +0.000 C 
ATOM      2  O   UNL     1       8.909   9.976  19.754  0.00  0.00    +0.000 OA
ATOM      3  N   UNL     1       9.524  10.871  17.690  0.00  0.00    +0.000 N 
ATOM      4  H   UNL     1       9.330  10.791  16.702  0.00  0.00    +0.000 HD
ENDROOT
BRANCH   3   5
ATOM      5  C   UNL     1      10.267  12.016  18.110  0.00  0.00    +0.000 A 
ATOM      6  C   UNL     1      11.614  11.892  18.473  0.00  0.00    +0.000 A 
ATOM      7  C   UNL     1      12.333  12.984  18.941  0.00  0.00    +0.000 A 
ATOM      8  C   UNL     1      11.712  14.222  19.044  0.00  0.00    +0.000 A 
ATOM      9  C   UNL     1      10.393  14.405  18.670  0.00  0.00    +0.000 A 
ATOM     10  N   UNL     1       9.892  15.643  18.814  0.00  0.00    +0.000 NA
ATOM     11  C   UNL     1       8.608  15.859  18.470  0.00  0.00    +0.000 A 
ATOM     12  C   UNL     1       7.785  14.878  17.963  0.00  0.00    +0.000 A 
ATOM     13  C   UNL     1       8.307  13.595  17.814  0.00  0.00    +0.000 A 
ATOM     14  C   UNL     1       9.645  13.305  18.176  0.00  0.00    +0.000 A 
ENDBRANCH   3   5
BRANCH   1  16
ATOM     15  C   UNL     1       8.188   7.646  18.363  0.00  0.00    +0.000 C 
ATOM     16  C   UNL     1       8.212   8.862  17.802  0.00  0.00    +0.000 C 
BRANCH  15  21
ATOM     17  C   UNL     1       6.688   4.800  14.720  0.00  0.00    +0.000 C 
ATOM     18  C   UNL     1       6.822   5.191  16.136  0.00  0.00    +0.000 A 
ATOM     19  C   UNL     1       6.384   4.642  17.317  0.00  0.00    +0.000 A 
ATOM     20  C   UNL     1       6.844   5.505  18.338  0.00  0.00    +0.000 A 
ATOM     21  C   UNL     1       7.544   6.546  17.739  0.00  0.00    +0.000 A 
ATOM     22  O   UNL     1       7.517   6.334  16.377  0.00  0.00    +0.000 OA
ENDBRANCH  15  21
ENDBRANCH   1  16
TORSDOF 3
ENDMDL
MODEL 7
REMARK VINA RESULT:      -7.5      5.547      7.346
REMARK  Name = 
REMARK  4 active torsions:
REMARK  status: ('A' for Active; 'I' for Inactive)
REMARK    1  A    between atoms: C_1  and  C_2
REMARK    2  A    between atoms: C_5  and  C_6
REMARK    3  A    between atoms: C_7  and  C_8
REMARK    4  A    between atoms: N_10  and  C_11
REMARK                            x       y       z     vdW  Elec       q    Type
REMARK                         _______ _______ _______ _____ _____    ______ ____
ROOT
ATOM      1  C   UNL     1       2.178   7.802  19.076  0.00  0.00    +0.000 C 
ATOM      2  O   UNL     1       2.418   7.856  17.876  0.00  0.00    +0.000 OA
ATOM      3  N   UNL     1       2.538   6.789  19.946  0.00  0.00    +0.000 N 
ATOM      4  H   UNL     1       2.143   6.815  20.875  0.00  0.00    +0.000 HD
ENDROOT
BRANCH   3   5
ATOM      5  C   UNL     1       3.297   5.630  19.601  0.00  0.00    +0.000 A 
ATOM      6  C   UNL     1       4.677   5.727  19.381  0.00  0.00    +0.000 A 
ATOM      7  C   UNL     1       5.419   4.622  18.986  0.00  0.00    +0.000 A 
ATOM      8  C   UNL     1       4.788   3.397  18.815  0.00  0.00    +0.000 A 
ATOM      9  C   UNL     1       3.433   3.240  19.049  0.00  0.00    +0.000 A 
ATOM     10  N   UNL     1       2.926   2.012  18.850  0.00  0.00    +0.000 NA
ATOM     11  C   UNL     1       1.609   1.822  19.057  0.00  0.00    +0.000 A 
ATOM     12  C   UNL     1       0.757   2.818  19.480  0.00  0.00    +0.000 A 
ATOM     13  C   UNL     1       1.286   4.090  19.687  0.00  0.00    +0.000 A 
ATOM     14  C   UNL     1       2.660   4.354  19.467  0.00  0.00    +0.000 A 
ENDBRANCH   3   5
BRANCH   1  16
ATOM     15  C   UNL     1       0.894   8.648  20.950  0.00  0.00    +0.000 C 
ATOM     16  C   UNL     1       1.377   8.880  19.722  0.00  0.00    +0.000 C 
BRANCH  15  21
ATOM     17  C   UNL     1      -1.606  12.764  21.607  0.00  0.00    +0.000 C 
ATOM     18  C   UNL     1      -1.053  11.461  22.023  0.00  0.00    +0.000 A 
ATOM     19  C   UNL     1      -1.104  10.737  23.189  0.00  0.00    +0.000 A 
ATOM     20  C   UNL     1      -0.365   9.558  22.944  0.00  0.00    +0.000 A 
ATOM     21  C   UNL     1       0.108   9.609  21.638  0.00  0.00    +0.000 A 
ATOM     22  O   UNL     1      -0.327  10.794  21.087  0.00  0.00    +0.000 OA
ENDBRANCH  15  21
ENDBRANCH   1  16
TORSDOF 3
ENDMDL
MODEL 8
REMARK VINA RESULT:      -7.4      1.681      1.943
REMARK  Name = 
REMARK  4 active torsions:
REMARK  status: ('A' for Active; 'I' for Inactive)
REMARK    1  A    between atoms: C_1  and  C_2
REMARK    2  A    between atoms: C_5  and  C_6
REMARK    3  A    between atoms: C_7  and  C_8
REMARK    4  A    between atoms: N_10  and  C_11
REMARK                            x       y       z     vdW  Elec       q    Type
REMARK                         _______ _______ _______ _____ _____    ______ ____
ROOT
ATOM      1  C   UNL     1       7.556   7.782  17.594  0.00  0.00    +0.000 C 
ATOM      2  O   UNL     1       6.745   8.362  16.882  0.00  0.00    +0.000 OA
ATOM      3  N   UNL     1       7.715   6.414  17.721  0.00  0.00    +0.000 N 
ATOM      4  H   UNL     1       8.324   6.086  18.455  0.00  0.00    +0.000 HD
ENDROOT
BRANCH   3   5
ATOM      5  C   UNL     1       6.977   5.424  17.004  0.00  0.00    +0.000 A 
ATOM      6  C   UNL     1       7.339   5.080  15.695  0.00  0.00    +0.000 A 
ATOM      7  C   UNL     1       6.597   4.163  14.964  0.00  0.00    +0.000 A 
ATOM      8  C   UNL     1       5.481   3.568  15.539  0.00  0.00    +0.000 A 
ATOM      9  C   UNL     1       5.098   3.849  16.839  0.00  0.00    +0.000 A 
ATOM     10  N   UNL     1       4.003   3.219  17.293  0.00  0.00    +0.000 NA
ATOM     11  C   UNL     1       3.592   3.475  18.550  0.00  0.00    +0.000 A 
ATOM     12  C   UNL     1       4.247   4.337  19.401  0.00  0.00    +0.000 A 
ATOM     13  C   UNL     1       5.385   4.988  18.927  0.00  0.00    +0.000 A 
ATOM     14  C   UNL     1       5.853   4.773  17.608  0.00  0.00    +0.000 A 
ENDBRANCH   3   5
BRANCH   1  16
ATOM     15  C   UNL     1       8.569   9.883  18.250  0.00  0.00    +0.000 C 
ATOM     16  C   UNL     1       8.461   8.568  18.479  0.00  0.00    +0.000 C 
BRANCH  15  21
ATOM     17  C   UNL     1       9.839  12.858  21.878  0.00  0.00    +0.000 C 
ATOM     18  C   UNL     1      10.082  12.072  20.654  0.00  0.00    +0.000 A 
ATOM     19  C   UNL     1      11.185  11.867  19.861  0.00  0.00    +0.000 A 
ATOM     20  C   UNL     1      10.762  11.001  18.827  0.00  0.00    +0.000 A 
ATOM     21  C   UNL     1       9.418  10.712  19.030  0.00  0.00    +0.000 A 
ATOM     22  O   UNL     1       9.016  11.385  20.164  0.00  0.00    +0.000 OA
ENDBRANCH  15  21
ENDBRANCH   1  16
TORSDOF 3
ENDMDL
MODEL 9
REMARK VINA RESULT:      -7.4      4.868      7.232
REMARK  Name = 
REMARK  4 active torsions:
REMARK  status: ('A' for Active; 'I' for Inactive)
REMARK    1  A    between atoms: C_1  and  C_2
REMARK    2  A    between atoms: C_5  and  C_6
REMARK    3  A    between atoms: C_7  and  C_8
REMARK    4  A    between atoms: N_10  and  C_11
REMARK                            x       y       z     vdW  Elec       q    Type
REMARK                         _______ _______ _______ _____ _____    ______ ____
ROOT
ATOM      1  C   UNL     1       5.417   5.569  17.256  0.00  0.00    +0.000 C 
ATOM      2  O   UNL     1       6.117   5.702  18.253  0.00  0.00    +0.000 OA
ATOM      3  N   UNL     1       4.035   5.571  17.209  0.00  0.00    +0.000 N 
ATOM      4  H   UNL     1       3.602   5.304  16.337  0.00  0.00    +0.000 HD
ENDROOT
BRANCH   3   5
ATOM      5  C   UNL     1       3.169   5.770  18.326  0.00  0.00    +0.000 A 
ATOM      6  C   UNL     1       2.876   7.064  18.775  0.00  0.00    +0.000 A 
ATOM      7  C   UNL     1       2.083   7.272  19.895  0.00  0.00    +0.000 A 
ATOM      8  C   UNL     1       1.562   6.181  20.579  0.00  0.00    +0.000 A 
ATOM      9  C   UNL     1       1.795   4.884  20.161  0.00  0.00    +0.000 A 
ATOM     10  N   UNL     1       1.245   3.905  20.898  0.00  0.00    +0.000 NA
ATOM     11  C   UNL     1       1.458   2.628  20.529  0.00  0.00    +0.000 A 
ATOM     12  C   UNL     1       2.197   2.272  19.422  0.00  0.00    +0.000 A 
ATOM     13  C   UNL     1       2.766   3.290  18.658  0.00  0.00    +0.000 A 
ATOM     14  C   UNL     1       2.592   4.650  19.009  0.00  0.00    +0.000 A 
ENDBRANCH   3   5
BRANCH   1  16
ATOM     15  C   UNL     1       5.528   4.374  15.150  0.00  0.00    +0.000 C 
ATOM     16  C   UNL     1       6.054   5.327  15.931  0.00  0.00    +0.000 C 
BRANCH  15  21
ATOM     17  C   UNL     1       6.260   1.813  11.085  0.00  0.00    +0.000 C 
ATOM     18  C   UNL     1       6.466   2.957  11.993  0.00  0.00    +0.000 A 
ATOM     19  C   UNL     1       7.235   4.093  11.929  0.00  0.00    +0.000 A 
ATOM     20  C   UNL     1       6.986   4.796  13.129  0.00  0.00    +0.000 A 
ATOM     21  C   UNL     1       6.075   4.062  13.878  0.00  0.00    +0.000 A 
ATOM     22  O   UNL     1       5.767   2.927  13.158  0.00  0.00    +0.000 OA
ENDBRANCH  15  21
ENDBRANCH   1  16
TORSDOF 3
ENDMDL
