MODEL 1
REMARK VINA RESULT:      -6.4      0.000      0.000
REMARK  Name = 
REMARK  4 active torsions:
REMARK  status: ('A' for Active; 'I' for Inactive)
REMARK    1  A    between atoms: C_1  and  C_2
REMARK    2  A    between atoms: C_4  and  C_5
REMARK    3  A    between atoms: C_5  and  N_6
REMARK    4  A    between atoms: N_18  and  C_19
REMARK                            x       y       z     vdW  Elec       q    Type
REMARK                         _______ _______ _______ _____ _____    ______ ____
ROOT
ATOM      1  N   UNL     1       3.376   4.266  19.100  0.00  0.00    +0.000 N 
ATOM      2  C   UNL     1       2.405   3.547  18.436  0.00  0.00    +0.000 C 
ATOM      3  O   UNL     1       2.332   2.321  18.482  0.00  0.00    +0.000 OA
ATOM      4  C   UNL     1       1.571   4.337  17.451  0.00  0.00    +0.000 C 
ATOM      5  C   UNL     1       1.276   5.778  17.816  0.00  0.00    +0.000 C 
ATOM      6  C   UNL     1       2.462   6.513  18.449  0.00  0.00    +0.000 C 
ATOM      7  C   UNL     1       3.175   5.654  19.495  0.00  0.00    +0.000 C 
ATOM      8  C   UNL     1       2.279   5.826  20.731  0.00  0.00    +0.000 C 
ATOM      9  C   UNL     1       1.840   7.288  20.639  0.00  0.00    +0.000 C 
ATOM     10  N   UNL     1       1.964   7.646  19.234  0.00  0.00    +0.000 N 
ATOM     11  C   UNL     1       1.606   8.820  18.612  0.00  0.00    +0.000 C 
ATOM     12  O   UNL     1       1.756   8.991  17.404  0.00  0.00    +0.000 OA
ATOM     13  N   UNL     1       1.049   9.771  19.432  0.00  0.00    +0.000 N 
ATOM     14  H   UNL     1       1.101   9.637  20.429  0.00  0.00    +0.000 HD
ENDROOT
BRANCH  13  15
ATOM     15  C   UNL     1       0.625  11.040  18.937  0.00  0.00    +0.000 C 
ATOM     16  C   UNL     1      -0.799  11.254  18.508  0.00  0.00    +0.000 C 
ATOM     17  C   UNL     1      -0.283  11.922  19.748  0.00  0.00    +0.000 C 
ENDBRANCH  13  15
BRANCH   1  18
ATOM     18  C   UNL     1       4.625   3.599  19.469  0.00  0.00    +0.000 C 
BRANCH  18  22
ATOM     19  C   UNL     1       8.283   6.872  18.809  0.00  0.00    +0.000 C 
ATOM     20  C   UNL     1       7.360   5.753  18.476  0.00  0.00    +0.000 A 
ATOM     21  N   UNL     1       6.516   5.213  19.329  0.00  0.00    +0.000 NA
ATOM     22  C   UNL     1       5.742   4.247  18.697  0.00  0.00    +0.000 A 
ATOM     23  C   UNL     1       6.057   4.044  17.366  0.00  0.00    +0.000 A 
ATOM     24  S   UNL     1       7.324   5.098  16.890  0.00  0.00    +0.000 S 
ENDBRANCH  18  22
ENDBRANCH   1  18
TORSDOF 3
ENDMDL
MODEL 2
REMARK VINA RESULT:      -6.3      4.080      7.579
REMARK  Name = 
REMARK  4 active torsions:
REMARK  status: ('A' for Active; 'I' for Inactive)
REMARK    1  A    between atoms: C_1  and  C_2
REMARK    2  A    between atoms: C_4  and  C_5
REMARK    3  A    between atoms: C_5  and  N_6
REMARK    4  A    between atoms: N_18  and  C_19
REMARK                            x       y       z     vdW  Elec       q    Type
REMARK                         _______ _______ _______ _____ _____    ______ ____
ROOT
ATOM      1  N   UNL     1       5.280   5.543  18.279  0.00  0.00    +0.000 N 
ATOM      2  C   UNL     1       6.499   5.341  18.889  0.00  0.00    +0.000 C 
ATOM      3  O   UNL     1       6.656   5.403  20.107  0.00  0.00    +0.000 OA
ATOM      4  C   UNL     1       7.689   5.272  17.957  0.00  0.00    +0.000 C 
ATOM      5  C   UNL     1       7.449   4.641  16.600  0.00  0.00    +0.000 C 
ATOM      6  C   UNL     1       6.108   5.021  15.966  0.00  0.00    +0.000 C 
ATOM      7  C   UNL     1       4.961   4.969  16.978  0.00  0.00    +0.000 C 
ATOM      8  C   UNL     1       4.629   3.470  17.024  0.00  0.00    +0.000 C 
ATOM      9  C   UNL     1       4.821   3.029  15.573  0.00  0.00    +0.000 C 
ATOM     10  N   UNL     1       5.730   4.001  14.985  0.00  0.00    +0.000 N 
ATOM     11  C   UNL     1       6.291   4.001  13.728  0.00  0.00    +0.000 C 
ATOM     12  O   UNL     1       7.061   4.886  13.358  0.00  0.00    +0.000 OA
ATOM     13  N   UNL     1       5.948   2.935  12.933  0.00  0.00    +0.000 N 
ATOM     14  H   UNL     1       5.195   2.336  13.230  0.00  0.00    +0.000 HD
ENDROOT
BRANCH  13  15
ATOM     15  C   UNL     1       6.449   2.793  11.605  0.00  0.00    +0.000 C 
ATOM     16  C   UNL     1       7.681   1.976  11.338  0.00  0.00    +0.000 C 
ATOM     17  C   UNL     1       6.342   1.483  10.874  0.00  0.00    +0.000 C 
ENDBRANCH  13  15
BRANCH   1  18
ATOM     18  C   UNL     1       4.252   6.311  18.983  0.00  0.00    +0.000 C 
BRANCH  18  22
ATOM     19  C   UNL     1       2.336   2.629  21.685  0.00  0.00    +0.000 C 
ATOM     20  C   UNL     1       2.385   3.694  20.647  0.00  0.00    +0.000 A 
ATOM     21  N   UNL     1       3.382   4.540  20.501  0.00  0.00    +0.000 NA
ATOM     22  C   UNL     1       3.165   5.358  19.399  0.00  0.00    +0.000 A 
ATOM     23  C   UNL     1       1.962   5.139  18.753  0.00  0.00    +0.000 A 
ATOM     24  S   UNL     1       1.101   3.868  19.519  0.00  0.00    +0.000 S 
ENDBRANCH  18  22
ENDBRANCH   1  18
TORSDOF 3
ENDMDL
MODEL 3
REMARK VINA RESULT:      -6.0      3.849      8.761
REMARK  Name = 
REMARK  4 active torsions:
REMARK  status: ('A' for Active; 'I' for Inactive)
REMARK    1  A    between atoms: C_1  and  C_2
REMARK    2  A    between atoms: C_4  and  C_5
REMARK    3  A    between atoms: C_5  and  N_6
REMARK    4  A    between atoms: N_18  and  C_19
REMARK                            x       y       z     vdW  Elec       q    Type
REMARK                         _______ _______ _______ _____ _____    ______ ____
ROOT
ATOM      1  N   UNL     1      -1.057  12.161  19.911  0.00  0.00    +0.000 N 
ATOM      2  C   UNL     1      -0.218  13.240  19.740  0.00  0.00    +0.000 C 
ATOM      3  O   UNL     1      -0.476  14.364  20.166  0.00  0.00    +0.000 OA
ATOM      4  C   UNL     1       0.938  13.022  18.787  0.00  0.00    +0.000 C 
ATOM      5  C   UNL     1       1.539  11.631  18.762  0.00  0.00    +0.000 C 
ATOM      6  C   UNL     1       0.505  10.504  18.849  0.00  0.00    +0.000 C 
ATOM      7  C   UNL     1      -0.563  10.790  19.908  0.00  0.00    +0.000 C 
ATOM      8  C   UNL     1       0.142  10.379  21.209  0.00  0.00    +0.000 C 
ATOM      9  C   UNL     1       0.959   9.157  20.789  0.00  0.00    +0.000 C 
ATOM     10  N   UNL     1       1.153   9.291  19.352  0.00  0.00    +0.000 N 
ATOM     11  C   UNL     1       1.900   8.500  18.510  0.00  0.00    +0.000 C 
ATOM     12  O   UNL     1       1.989   8.732  17.306  0.00  0.00    +0.000 OA
ATOM     13  N   UNL     1       2.551   7.452  19.114  0.00  0.00    +0.000 N 
ATOM     14  H   UNL     1       2.311   7.219  20.063  0.00  0.00    +0.000 HD
ENDROOT
BRANCH  13  15
ATOM     15  C   UNL     1       3.365   6.543  18.374  0.00  0.00    +0.000 C 
ATOM     16  C   UNL     1       4.141   5.468  19.079  0.00  0.00    +0.000 C 
ATOM     17  C   UNL     1       2.969   5.101  18.218  0.00  0.00    +0.000 C 
ENDBRANCH  13  15
BRANCH   1  18
ATOM     18  C   UNL     1      -2.479  12.400  20.160  0.00  0.00    +0.000 C 
BRANCH  18  22
ATOM     19  C   UNL     1      -2.919  10.883  15.466  0.00  0.00    +0.000 C 
ATOM     20  C   UNL     1      -3.357  11.273  16.834  0.00  0.00    +0.000 A 
ATOM     21  N   UNL     1      -2.535  11.528  17.829  0.00  0.00    +0.000 NA
ATOM     22  C   UNL     1      -3.245  11.937  18.951  0.00  0.00    +0.000 A 
ATOM     23  C   UNL     1      -4.618  11.938  18.788  0.00  0.00    +0.000 A 
ATOM     24  S   UNL     1      -5.027  11.445  17.197  0.00  0.00    +0.000 S 
ENDBRANCH  18  22
ENDBRANCH   1  18
TORSDOF 3
ENDMDL
MODEL 4
REMARK VINA RESULT:      -6.0      0.854      1.168
REMARK  Name = 
REMARK  4 active torsions:
REMARK  status: ('A' for Active; 'I' for Inactive)
REMARK    1  A    between atoms: C_1  and  C_2
REMARK    2  A    between atoms: C_4  and  C_5
REMARK    3  A    between atoms: C_5  and  N_6
REMARK    4  A    between atoms: N_18  and  C_19
REMARK                            x       y       z     vdW  Elec       q    Type
REMARK                         _______ _______ _______ _____ _____    ______ ____
ROOT
ATOM      1  N   UNL     1       3.333   4.346  19.102  0.00  0.00    +0.000 N 
ATOM      2  C   UNL     1       2.357   3.623  18.452  0.00  0.00    +0.000 C 
ATOM      3  O   UNL     1       2.278   2.397  18.514  0.00  0.00    +0.000 OA
ATOM      4  C   UNL     1       1.521   4.402  17.459  0.00  0.00    +0.000 C 
ATOM      5  C   UNL     1       1.234   5.849  17.807  0.00  0.00    +0.000 C 
ATOM      6  C   UNL     1       2.425   6.588  18.425  0.00  0.00    +0.000 C 
ATOM      7  C   UNL     1       3.140   5.740  19.479  0.00  0.00    +0.000 C 
ATOM      8  C   UNL     1       2.249   5.932  20.716  0.00  0.00    +0.000 C 
ATOM      9  C   UNL     1       1.815   7.394  20.607  0.00  0.00    +0.000 C 
ATOM     10  N   UNL     1       1.936   7.733  19.197  0.00  0.00    +0.000 N 
ATOM     11  C   UNL     1       1.579   8.900  18.561  0.00  0.00    +0.000 C 
ATOM     12  O   UNL     1       1.726   9.055  17.350  0.00  0.00    +0.000 OA
ATOM     13  N   UNL     1       1.030   9.865  19.371  0.00  0.00    +0.000 N 
ATOM     14  H   UNL     1       1.086   9.743  20.369  0.00  0.00    +0.000 HD
ENDROOT
BRANCH  13  15
ATOM     15  C   UNL     1       0.609  11.128  18.860  0.00  0.00    +0.000 C 
ATOM     16  C   UNL     1      -0.835  11.373  18.527  0.00  0.00    +0.000 C 
ATOM     17  C   UNL     1      -0.210  12.068  19.701  0.00  0.00    +0.000 C 
ENDBRANCH  13  15
BRANCH   1  18
ATOM     18  C   UNL     1       4.581   3.679  19.475  0.00  0.00    +0.000 C 
BRANCH  18  22
ATOM     19  C   UNL     1       7.428   4.893  15.608  0.00  0.00    +0.000 C 
ATOM     20  C   UNL     1       6.947   4.888  17.017  0.00  0.00    +0.000 A 
ATOM     21  N   UNL     1       5.845   4.294  17.420  0.00  0.00    +0.000 NA
ATOM     22  C   UNL     1       5.713   4.403  18.799  0.00  0.00    +0.000 A 
ATOM     23  C   UNL     1       6.716   5.132  19.412  0.00  0.00    +0.000 A 
ATOM     24  S   UNL     1       7.857   5.665  18.248  0.00  0.00    +0.000 S 
ENDBRANCH  18  22
ENDBRANCH   1  18
TORSDOF 3
ENDMDL
MODEL 5
REMARK VINA RESULT:      -5.9      1.562      1.771
REMARK  Name = 
REMARK  4 active torsions:
REMARK  status: ('A' for Active; 'I' for Inactive)
REMARK    1  A    between atoms: C_1  and  C_2
REMARK    2  A    between atoms: C_4  and  C_5
REMARK    3  A    between atoms: C_5  and  N_6
REMARK    4  A    between atoms: N_18  and  C_19
REMARK                            x       y       z     vdW  Elec       q    Type
REMARK                         _______ _______ _______ _____ _____    ______ ____
ROOT
ATOM      1  N   UNL     1       3.452   3.601  18.449  0.00  0.00    +0.000 N 
ATOM      2  C   UNL     1       2.384   3.235  17.659  0.00  0.00    +0.000 C 
ATOM      3  O   UNL     1       2.289   2.128  17.133  0.00  0.00    +0.000 OA
ATOM      4  C   UNL     1       1.443   4.357  17.278  0.00  0.00    +0.000 C 
ATOM      5  C   UNL     1       1.234   5.445  18.312  0.00  0.00    +0.000 C 
ATOM      6  C   UNL     1       2.511   5.850  19.055  0.00  0.00    +0.000 C 
ATOM      7  C   UNL     1       3.340   4.633  19.472  0.00  0.00    +0.000 C 
ATOM      8  C   UNL     1       2.623   4.168  20.749  0.00  0.00    +0.000 C 
ATOM      9  C   UNL     1       2.210   5.482  21.412  0.00  0.00    +0.000 C 
ATOM     10  N   UNL     1       2.152   6.461  20.337  0.00  0.00    +0.000 N 
ATOM     11  C   UNL     1       1.740   7.773  20.392  0.00  0.00    +0.000 C 
ATOM     12  O   UNL     1       1.729   8.496  19.397  0.00  0.00    +0.000 OA
ATOM     13  N   UNL     1       1.322   8.205  21.627  0.00  0.00    +0.000 N 
ATOM     14  H   UNL     1       1.506   7.622  22.428  0.00  0.00    +0.000 HD
ENDROOT
BRANCH  13  15
ATOM     15  C   UNL     1       0.864   9.538  21.845  0.00  0.00    +0.000 C 
ATOM     16  C   UNL     1      -0.529   9.940  21.454  0.00  0.00    +0.000 C 
ATOM     17  C   UNL     1      -0.159   9.841  22.904  0.00  0.00    +0.000 C 
ENDBRANCH  13  15
BRANCH   1  18
ATOM     18  C   UNL     1       4.724   2.893  18.296  0.00  0.00    +0.000 C 
BRANCH  18  22
ATOM     19  C   UNL     1       8.076   6.514  18.711  0.00  0.00    +0.000 C 
ATOM     20  C   UNL     1       7.220   5.502  18.037  0.00  0.00    +0.000 A 
ATOM     21  N   UNL     1       6.475   4.622  18.671  0.00  0.00    +0.000 NA
ATOM     22  C   UNL     1       5.736   3.871  17.765  0.00  0.00    +0.000 A 
ATOM     23  C   UNL     1       5.980   4.175  16.438  0.00  0.00    +0.000 A 
ATOM     24  S   UNL     1       7.131   5.442  16.323  0.00  0.00    +0.000 S 
ENDBRANCH  18  22
ENDBRANCH   1  18
TORSDOF 3
ENDMDL
MODEL 6
REMARK VINA RESULT:      -5.8      3.949      9.097
REMARK  Name = 
REMARK  4 active torsions:
REMARK  status: ('A' for Active; 'I' for Inactive)
REMARK    1  A    between atoms: C_1  and  C_2
REMARK    2  A    between atoms: C_4  and  C_5
REMARK    3  A    between atoms: C_5  and  N_6
REMARK    4  A    between atoms: N_18  and  C_19
REMARK                            x       y       z     vdW  Elec       q    Type
REMARK                         _______ _______ _______ _____ _____    ______ ____
ROOT
ATOM      1  N   UNL     1      -1.095  12.157  20.096  0.00  0.00    +0.000 N 
ATOM      2  C   UNL     1      -0.282  13.254  19.910  0.00  0.00    +0.000 C 
ATOM      3  O   UNL     1      -0.537  14.363  20.375  0.00  0.00    +0.000 OA
ATOM      4  C   UNL     1       0.829  13.076  18.898  0.00  0.00    +0.000 C 
ATOM      5  C   UNL     1       1.450  11.696  18.811  0.00  0.00    +0.000 C 
ATOM      6  C   UNL     1       0.438  10.551  18.921  0.00  0.00    +0.000 C 
ATOM      7  C   UNL     1      -0.582  10.795  20.036  0.00  0.00    +0.000 C 
ATOM      8  C   UNL     1       0.192  10.366  21.292  0.00  0.00    +0.000 C 
ATOM      9  C   UNL     1       1.006   9.167  20.804  0.00  0.00    +0.000 C 
ATOM     10  N   UNL     1       1.128   9.337  19.364  0.00  0.00    +0.000 N 
ATOM     11  C   UNL     1       1.845   8.578  18.468  0.00  0.00    +0.000 C 
ATOM     12  O   UNL     1       1.873   8.839  17.267  0.00  0.00    +0.000 OA
ATOM     13  N   UNL     1       2.541   7.527  19.014  0.00  0.00    +0.000 N 
ATOM     14  H   UNL     1       2.350   7.269  19.969  0.00  0.00    +0.000 HD
ENDROOT
BRANCH  13  15
ATOM     15  C   UNL     1       3.332   6.649  18.216  0.00  0.00    +0.000 C 
ATOM     16  C   UNL     1       4.086   5.515  18.847  0.00  0.00    +0.000 C 
ATOM     17  C   UNL     1       2.903   5.229  17.971  0.00  0.00    +0.000 C 
ENDBRANCH  13  15
BRANCH   1  18
ATOM     18  C   UNL     1      -2.507  12.367  20.419  0.00  0.00    +0.000 C 
BRANCH  18  22
ATOM     19  C   UNL     1      -6.707  11.829  17.850  0.00  0.00    +0.000 C 
ATOM     20  C   UNL     1      -5.241  11.853  18.102  0.00  0.00    +0.000 A 
ATOM     21  N   UNL     1      -4.690  12.256  19.227  0.00  0.00    +0.000 NA
ATOM     22  C   UNL     1      -3.312  12.086  19.179  0.00  0.00    +0.000 A 
ATOM     23  C   UNL     1      -2.839  11.592  17.977  0.00  0.00    +0.000 A 
ATOM     24  S   UNL     1      -4.143  11.309  16.899  0.00  0.00    +0.000 S 
ENDBRANCH  18  22
ENDBRANCH   1  18
TORSDOF 3
ENDMDL
MODEL 7
REMARK VINA RESULT:      -5.8      4.320      6.319
REMARK  Name = 
REMARK  4 active torsions:
REMARK  status: ('A' for Active; 'I' for Inactive)
REMARK    1  A    between atoms: C_1  and  C_2
REMARK    2  A    between atoms: C_4  and  C_5
REMARK    3  A    between atoms: C_5  and  N_6
REMARK    4  A    between atoms: N_18  and  C_19
REMARK                            x       y       z     vdW  Elec       q    Type
REMARK                         _______ _______ _______ _____ _____    ______ ____
ROOT
ATOM      1  N   UNL     1       6.066   4.750  16.681  0.00  0.00    +0.000 N 
ATOM      2  C   UNL     1       4.741   5.037  16.928  0.00  0.00    +0.000 C 
ATOM      3  O   UNL     1       3.859   4.182  16.921  0.00  0.00    +0.000 OA
ATOM      4  C   UNL     1       4.392   6.509  16.975  0.00  0.00    +0.000 C 
ATOM      5  C   UNL     1       5.447   7.436  17.542  0.00  0.00    +0.000 C 
ATOM      6  C   UNL     1       6.876   7.088  17.115  0.00  0.00    +0.000 C 
ATOM      7  C   UNL     1       7.146   5.584  17.193  0.00  0.00    +0.000 C 
ATOM      8  C   UNL     1       7.436   5.378  18.687  0.00  0.00    +0.000 C 
ATOM      9  C   UNL     1       8.206   6.643  19.069  0.00  0.00    +0.000 C 
ATOM     10  N   UNL     1       7.821   7.645  18.086  0.00  0.00    +0.000 N 
ATOM     11  C   UNL     1       8.164   8.977  18.040  0.00  0.00    +0.000 C 
ATOM     12  O   UNL     1       7.758   9.725  17.151  0.00  0.00    +0.000 OA
ATOM     13  N   UNL     1       8.968   9.412  19.065  0.00  0.00    +0.000 N 
ATOM     14  H   UNL     1       9.396   8.725  19.665  0.00  0.00    +0.000 HD
ENDROOT
BRANCH  13  15
ATOM     15  C   UNL     1       9.407  10.766  19.157  0.00  0.00    +0.000 C 
ATOM     16  C   UNL     1       9.938  11.309  20.453  0.00  0.00    +0.000 C 
ATOM     17  C   UNL     1      10.867  11.097  19.294  0.00  0.00    +0.000 C 
ENDBRANCH  13  15
BRANCH   1  18
ATOM     18  C   UNL     1       6.403   3.541  15.928  0.00  0.00    +0.000 C 
BRANCH  18  22
ATOM     19  C   UNL     1       4.544   3.237  11.348  0.00  0.00    +0.000 C 
ATOM     20  C   UNL     1       5.458   3.677  12.437  0.00  0.00    +0.000 A 
ATOM     21  N   UNL     1       5.285   3.390  13.709  0.00  0.00    +0.000 NA
ATOM     22  C   UNL     1       6.346   3.877  14.463  0.00  0.00    +0.000 A 
ATOM     23  C   UNL     1       7.291   4.576  13.734  0.00  0.00    +0.000 A 
ATOM     24  S   UNL     1       6.861   4.600  12.074  0.00  0.00    +0.000 S 
ENDBRANCH  18  22
ENDBRANCH   1  18
TORSDOF 3
ENDMDL
MODEL 8
REMARK VINA RESULT:      -5.8      3.886      8.435
REMARK  Name = 
REMARK  4 active torsions:
REMARK  status: ('A' for Active; 'I' for Inactive)
REMARK    1  A    between atoms: C_1  and  C_2
REMARK    2  A    between atoms: C_4  and  C_5
REMARK    3  A    between atoms: C_5  and  N_6
REMARK    4  A    between atoms: N_18  and  C_19
REMARK                            x       y       z     vdW  Elec       q    Type
REMARK                         _______ _______ _______ _____ _____    ______ ____
ROOT
ATOM      1  N   UNL     1      -0.027  12.301  19.075  0.00  0.00    +0.000 N 
ATOM      2  C   UNL     1       1.071  13.030  18.673  0.00  0.00    +0.000 C 
ATOM      3  O   UNL     1       1.108  14.258  18.707  0.00  0.00    +0.000 OA
ATOM      4  C   UNL     1       2.148  12.242  17.959  0.00  0.00    +0.000 C 
ATOM      5  C   UNL     1       2.361  10.815  18.422  0.00  0.00    +0.000 C 
ATOM      6  C   UNL     1       1.064  10.064  18.738  0.00  0.00    +0.000 C 
ATOM      7  C   UNL     1       0.086  10.925  19.541  0.00  0.00    +0.000 C 
ATOM      8  C   UNL     1       0.629  10.796  20.972  0.00  0.00    +0.000 C 
ATOM      9  C   UNL     1       1.103   9.343  21.033  0.00  0.00    +0.000 C 
ATOM     10  N   UNL     1       1.357   8.957  19.652  0.00  0.00    +0.000 N 
ATOM     11  C   UNL     1       1.887   7.781  19.174  0.00  0.00    +0.000 C 
ATOM     12  O   UNL     1       2.062   7.585  17.973  0.00  0.00    +0.000 OA
ATOM     13  N   UNL     1       2.225   6.857  20.133  0.00  0.00    +0.000 N 
ATOM     14  H   UNL     1       1.911   7.008  21.078  0.00  0.00    +0.000 HD
ENDROOT
BRANCH  13  15
ATOM     15  C   UNL     1       2.787   5.590  19.795  0.00  0.00    +0.000 C 
ATOM     16  C   UNL     1       2.643   4.420  20.725  0.00  0.00    +0.000 C 
ATOM     17  C   UNL     1       1.907   4.430  19.418  0.00  0.00    +0.000 C 
ENDBRANCH  13  15
BRANCH   1  18
ATOM     18  C   UNL     1      -1.341  12.946  19.088  0.00  0.00    +0.000 C 
BRANCH  18  22
ATOM     19  C   UNL     1      -2.878  10.329  15.175  0.00  0.00    +0.000 C 
ATOM     20  C   UNL     1      -2.921  10.916  16.541  0.00  0.00    +0.000 A 
ATOM     21  N   UNL     1      -1.924  11.570  17.097  0.00  0.00    +0.000 NA
ATOM     22  C   UNL     1      -2.300  12.059  18.342  0.00  0.00    +0.000 A 
ATOM     23  C   UNL     1      -3.584  11.716  18.726  0.00  0.00    +0.000 A 
ATOM     24  S   UNL     1      -4.343  10.791  17.497  0.00  0.00    +0.000 S 
ENDBRANCH  18  22
ENDBRANCH   1  18
TORSDOF 3
ENDMDL
MODEL 9
REMARK VINA RESULT:      -5.7      5.914     10.788
REMARK  Name = 
REMARK  4 active torsions:
REMARK  status: ('A' for Active; 'I' for Inactive)
REMARK    1  A    between atoms: C_1  and  C_2
REMARK    2  A    between atoms: C_4  and  C_5
REMARK    3  A    between atoms: C_5  and  N_6
REMARK    4  A    between atoms: N_18  and  C_19
REMARK                            x       y       z     vdW  Elec       q    Type
REMARK                         _______ _______ _______ _____ _____    ______ ____
ROOT
ATOM      1  N   UNL     1      -2.541  12.988  23.448  0.00  0.00    +0.000 N 
ATOM      2  C   UNL     1      -1.719  14.072  23.668  0.00  0.00    +0.000 C 
ATOM      3  O   UNL     1      -1.787  14.769  24.678  0.00  0.00    +0.000 OA
ATOM      4  C   UNL     1      -0.879  14.503  22.486  0.00  0.00    +0.000 C 
ATOM      5  C   UNL     1      -0.388  13.402  21.568  0.00  0.00    +0.000 C 
ATOM      6  C   UNL     1      -1.424  12.304  21.305  0.00  0.00    +0.000 C 
ATOM      7  C   UNL     1      -2.147  11.881  22.585  0.00  0.00    +0.000 C 
ATOM      8  C   UNL     1      -1.141  10.918  23.231  0.00  0.00    +0.000 C 
ATOM      9  C   UNL     1      -0.541  10.187  22.029  0.00  0.00    +0.000 C 
ATOM     10  N   UNL     1      -0.735  11.078  20.894  0.00  0.00    +0.000 N 
ATOM     11  C   UNL     1      -0.291  10.928  19.600  0.00  0.00    +0.000 C 
ATOM     12  O   UNL     1      -0.517  11.769  18.732  0.00  0.00    +0.000 OA
ATOM     13  N   UNL     1       0.438   9.789  19.358  0.00  0.00    +0.000 N 
ATOM     14  H   UNL     1       0.450   9.068  20.061  0.00  0.00    +0.000 HD
ENDROOT
BRANCH  13  15
ATOM     15  C   UNL     1       0.968   9.492  18.068  0.00  0.00    +0.000 C 
ATOM     16  C   UNL     1       2.398   9.810  17.739  0.00  0.00    +0.000 C 
ATOM     17  C   UNL     1       1.963   8.381  17.877  0.00  0.00    +0.000 C 
ENDBRANCH  13  15
BRANCH   1  18
ATOM     18  C   UNL     1      -3.827  12.919  24.144  0.00  0.00    +0.000 C 
BRANCH  18  22
ATOM     19  C   UNL     1      -7.198  12.118  20.605  0.00  0.00    +0.000 C 
ATOM     20  C   UNL     1      -6.385  12.891  21.583  0.00  0.00    +0.000 A 
ATOM     21  N   UNL     1      -5.571  12.348  22.462  0.00  0.00    +0.000 NA
ATOM     22  C   UNL     1      -4.900  13.334  23.175  0.00  0.00    +0.000 A 
ATOM     23  C   UNL     1      -5.266  14.626  22.844  0.00  0.00    +0.000 A 
ATOM     24  S   UNL     1      -6.446  14.608  21.600  0.00  0.00    +0.000 S 
ENDBRANCH  18  22
ENDBRANCH   1  18
TORSDOF 3
ENDMDL
