MODEL 1
REMARK VINA RESULT:      -7.6      0.000      0.000
REMARK  Name = 
REMARK  6 active torsions:
REMARK  status: ('A' for Active; 'I' for Inactive)
REMARK    1  A    between atoms: C_1  and  C_2
REMARK    2  A    between atoms: N_4  and  C_5
REMARK    3  A    between atoms: C_9  and  C_10
REMARK    4  A    between atoms: C_13  and  N_14
REMARK    5  A    between atoms: N_14  and  C_15
REMARK    6  A    between atoms: C_19  and  O_20
REMARK                            x       y       z     vdW  Elec       q    Type
REMARK                         _______ _______ _______ _____ _____    ______ ____
ROOT
ATOM      1  C   UNL     1       3.062   8.088  17.326  0.00  0.00    +0.000 C 
ATOM      2  C   UNL     1       2.511   7.513  18.579  0.00  0.00    +0.000 A 
ATOM      3  N   UNL     1       1.916   8.341  19.451  0.00  0.00    +0.000 NA
ATOM      4  N   UNL     1       1.587   7.539  20.480  0.00  0.00    +0.000 N 
ATOM      5  C   UNL     1       0.927   8.075  21.644  0.00  0.00    +0.000 C 
ATOM      6  C   UNL     1       1.947   6.233  20.297  0.00  0.00    +0.000 A 
ATOM      7  N   UNL     1       1.747   5.238  21.177  0.00  0.00    +0.000 NA
ATOM      8  C   UNL     1       2.226   4.056  20.734  0.00  0.00    +0.000 A 
ATOM      9  C   UNL     1       2.840   3.819  19.500  0.00  0.00    +0.000 A 
ATOM     10  C   UNL     1       3.006   4.885  18.580  0.00  0.00    +0.000 A 
ATOM     11  C   UNL     1       2.541   6.155  19.043  0.00  0.00    +0.000 A 
ENDROOT
BRANCH   9  12
ATOM     12  C   UNL     1       3.208   2.398  19.292  0.00  0.00    +0.000 C 
ATOM     13  N   UNL     1       2.331   1.587  18.642  0.00  0.00    +0.000 N 
ATOM     14  O   UNL     1       4.256   1.951  19.748  0.00  0.00    +0.000 OA
ATOM     15  H   UNL     1       1.564   1.976  18.106  0.00  0.00    +0.000 HD
ATOM     16  H   UNL     1       2.668   0.668  18.392  0.00  0.00    +0.000 HD
ENDBRANCH   9  12
BRANCH  10  17
ATOM     17  N   UNL     1       3.502   4.747  17.265  0.00  0.00    +0.000 N 
ATOM     18  H   UNL     1       2.961   5.311  16.614  0.00  0.00    +0.000 HD
BRANCH  17  19
ATOM     19  C   UNL     1       4.822   4.698  16.755  0.00  0.00    +0.000 A 
ATOM     20  C   UNL     1       4.997   5.031  15.400  0.00  0.00    +0.000 A 
ATOM     21  C   UNL     1       6.264   5.057  14.817  0.00  0.00    +0.000 A 
ATOM     22  C   UNL     1       7.382   4.753  15.585  0.00  0.00    +0.000 A 
ATOM     23  C   UNL     1       7.214   4.407  16.924  0.00  0.00    +0.000 A 
ATOM     24  C   UNL     1       5.948   4.366  17.511  0.00  0.00    +0.000 A 
BRANCH  23  25
ATOM     25  O   UNL     1       8.291   4.112  17.709  0.00  0.00    +0.000 OA
ATOM     26  H   UNL     1       8.676   4.941  18.040  0.00  0.00    +0.000 HD
ENDBRANCH  23  25
ENDBRANCH  17  19
ENDBRANCH  10  17
TORSDOF 4
ENDMDL
MODEL 2
REMARK VINA RESULT:      -7.3      1.126      1.132
REMARK  Name = 
REMARK  6 active torsions:
REMARK  status: ('A' for Active; 'I' for Inactive)
REMARK    1  A    between atoms: C_1  and  C_2
REMARK    2  A    between atoms: N_4  and  C_5
REMARK    3  A    between atoms: C_9  and  C_10
REMARK    4  A    between atoms: C_13  and  N_14
REMARK    5  A    between atoms: N_14  and  C_15
REMARK    6  A    between atoms: C_19  and  O_20
REMARK                            x       y       z     vdW  Elec       q    Type
REMARK                         _______ _______ _______ _____ _____    ______ ____
ROOT
ATOM      1  C   UNL     1       2.857   8.058  17.279  0.00  0.00    +0.000 C 
ATOM      2  C   UNL     1       2.418   7.478  18.573  0.00  0.00    +0.000 A 
ATOM      3  N   UNL     1       1.812   8.285  19.458  0.00  0.00    +0.000 NA
ATOM      4  N   UNL     1       1.598   7.490  20.522  0.00  0.00    +0.000 N 
ATOM      5  C   UNL     1       0.965   8.009  21.708  0.00  0.00    +0.000 C 
ATOM      6  C   UNL     1       2.041   6.209  20.349  0.00  0.00    +0.000 A 
ATOM      7  N   UNL     1       1.961   5.226  21.262  0.00  0.00    +0.000 NA
ATOM      8  C   UNL     1       2.501   4.069  20.820  0.00  0.00    +0.000 A 
ATOM      9  C   UNL     1       3.063   3.844  19.560  0.00  0.00    +0.000 A 
ATOM     10  C   UNL     1       3.102   4.893  18.607  0.00  0.00    +0.000 A 
ATOM     11  C   UNL     1       2.571   6.139  19.066  0.00  0.00    +0.000 A 
ENDROOT
BRANCH   9  12
ATOM     12  C   UNL     1       3.522   2.447  19.364  0.00  0.00    +0.000 C 
ATOM     13  N   UNL     1       4.710   2.071  19.908  0.00  0.00    +0.000 N 
ATOM     14  O   UNL     1       2.870   1.666  18.679  0.00  0.00    +0.000 OA
ATOM     15  H   UNL     1       5.158   2.637  20.619  0.00  0.00    +0.000 HD
ATOM     16  H   UNL     1       4.926   1.084  19.879  0.00  0.00    +0.000 HD
ENDBRANCH   9  12
BRANCH  10  17
ATOM     17  N   UNL     1       3.535   4.755  17.270  0.00  0.00    +0.000 N 
ATOM     18  H   UNL     1       2.874   5.191  16.630  0.00  0.00    +0.000 HD
BRANCH  17  19
ATOM     19  C   UNL     1       4.814   4.880  16.676  0.00  0.00    +0.000 A 
ATOM     20  C   UNL     1       5.142   3.957  15.666  0.00  0.00    +0.000 A 
ATOM     21  C   UNL     1       6.360   4.025  14.989  0.00  0.00    +0.000 A 
ATOM     22  C   UNL     1       7.271   5.025  15.309  0.00  0.00    +0.000 A 
ATOM     23  C   UNL     1       6.959   5.932  16.319  0.00  0.00    +0.000 A 
ATOM     24  C   UNL     1       5.747   5.863  17.010  0.00  0.00    +0.000 A 
BRANCH  23  25
ATOM     25  O   UNL     1       7.826   6.932  16.652  0.00  0.00    +0.000 OA
ATOM     26  H   UNL     1       8.722   6.562  16.718  0.00  0.00    +0.000 HD
ENDBRANCH  23  25
ENDBRANCH  17  19
ENDBRANCH  10  17
TORSDOF 4
ENDMDL
MODEL 3
REMARK VINA RESULT:      -7.2      2.812      5.880
REMARK  Name = 
REMARK  6 active torsions:
REMARK  status: ('A' for Active; 'I' for Inactive)
REMARK    1  A    between atoms: C_1  and  C_2
REMARK    2  A    between atoms: N_4  and  C_5
REMARK    3  A    between atoms: C_9  and  C_10
REMARK    4  A    between atoms: C_13  and  N_14
REMARK    5  A    between atoms: N_14  and  C_15
REMARK    6  A    between atoms: C_19  and  O_20
REMARK                            x       y       z     vdW  Elec       q    Type
REMARK                         _______ _______ _______ _____ _____    ______ ____
ROOT
ATOM      1  C   UNL     1       1.144   4.338  20.353  0.00  0.00    +0.000 C 
ATOM      2  C   UNL     1       2.515   3.839  20.081  0.00  0.00    +0.000 A 
ATOM      3  N   UNL     1       2.915   2.714  20.694  0.00  0.00    +0.000 NA
ATOM      4  N   UNL     1       4.191   2.568  20.293  0.00  0.00    +0.000 N 
ATOM      5  C   UNL     1       4.982   1.457  20.759  0.00  0.00    +0.000 C 
ATOM      6  C   UNL     1       4.618   3.554  19.448  0.00  0.00    +0.000 A 
ATOM      7  N   UNL     1       5.849   3.647  18.919  0.00  0.00    +0.000 NA
ATOM      8  C   UNL     1       5.991   4.739  18.136  0.00  0.00    +0.000 A 
ATOM      9  C   UNL     1       5.002   5.683  17.842  0.00  0.00    +0.000 A 
ATOM     10  C   UNL     1       3.703   5.537  18.391  0.00  0.00    +0.000 A 
ATOM     11  C   UNL     1       3.540   4.409  19.254  0.00  0.00    +0.000 A 
ENDROOT
BRANCH   9  12
ATOM     12  C   UNL     1       5.460   6.739  16.906  0.00  0.00    +0.000 C 
ATOM     13  N   UNL     1       6.655   7.344  17.142  0.00  0.00    +0.000 N 
ATOM     14  O   UNL     1       4.749   7.097  15.973  0.00  0.00    +0.000 OA
ATOM     15  H   UNL     1       7.324   6.937  17.784  0.00  0.00    +0.000 HD
ATOM     16  H   UNL     1       7.002   7.952  16.414  0.00  0.00    +0.000 HD
ENDBRANCH   9  12
BRANCH  10  17
ATOM     17  N   UNL     1       2.596   6.356  18.076  0.00  0.00    +0.000 N 
ATOM     18  H   UNL     1       1.780   5.789  17.855  0.00  0.00    +0.000 HD
BRANCH  17  19
ATOM     19  C   UNL     1       2.112   7.552  18.658  0.00  0.00    +0.000 A 
ATOM     20  C   UNL     1       1.849   8.626  17.788  0.00  0.00    +0.000 A 
ATOM     21  C   UNL     1       1.327   9.830  18.260  0.00  0.00    +0.000 A 
ATOM     22  C   UNL     1       1.054   9.979  19.615  0.00  0.00    +0.000 A 
ATOM     23  C   UNL     1       1.328   8.926  20.484  0.00  0.00    +0.000 A 
ATOM     24  C   UNL     1       1.862   7.721  20.021  0.00  0.00    +0.000 A 
BRANCH  23  25
ATOM     25  O   UNL     1       1.064   9.034  21.818  0.00  0.00    +0.000 OA
ATOM     26  H   UNL     1       1.643   9.716  22.199  0.00  0.00    +0.000 HD
ENDBRANCH  23  25
ENDBRANCH  17  19
ENDBRANCH  10  17
TORSDOF 4
ENDMDL
MODEL 4
REMARK VINA RESULT:      -7.2      1.033      1.438
REMARK  Name = 
REMARK  6 active torsions:
REMARK  status: ('A' for Active; 'I' for Inactive)
REMARK    1  A    between atoms: C_1  and  C_2
REMARK    2  A    between atoms: N_4  and  C_5
REMARK    3  A    between atoms: C_9  and  C_10
REMARK    4  A    between atoms: C_13  and  N_14
REMARK    5  A    between atoms: N_14  and  C_15
REMARK    6  A    between atoms: C_19  and  O_20
REMARK                            x       y       z     vdW  Elec       q    Type
REMARK                         _______ _______ _______ _____ _____    ______ ____
ROOT
ATOM      1  C   UNL     1       3.541   7.817  17.314  0.00  0.00    +0.000 C 
ATOM      2  C   UNL     1       2.784   7.295  18.479  0.00  0.00    +0.000 A 
ATOM      3  N   UNL     1       2.233   8.177  19.327  0.00  0.00    +0.000 NA
ATOM      4  N   UNL     1       1.682   7.404  20.280  0.00  0.00    +0.000 N 
ATOM      5  C   UNL     1       0.993   8.000  21.398  0.00  0.00    +0.000 C 
ATOM      6  C   UNL     1       1.859   6.065  20.073  0.00  0.00    +0.000 A 
ATOM      7  N   UNL     1       1.422   5.086  20.882  0.00  0.00    +0.000 NA
ATOM      8  C   UNL     1       1.761   3.858  20.434  0.00  0.00    +0.000 A 
ATOM      9  C   UNL     1       2.457   3.568  19.256  0.00  0.00    +0.000 A 
ATOM     10  C   UNL     1       2.876   4.623  18.406  0.00  0.00    +0.000 A 
ATOM     11  C   UNL     1       2.561   5.935  18.880  0.00  0.00    +0.000 A 
ENDROOT
BRANCH   9  12
ATOM     12  C   UNL     1       2.627   2.114  19.020  0.00  0.00    +0.000 C 
ATOM     13  N   UNL     1       1.524   1.319  19.035  0.00  0.00    +0.000 N 
ATOM     14  O   UNL     1       3.746   1.632  18.871  0.00  0.00    +0.000 OA
ATOM     15  H   UNL     1       0.596   1.719  18.969  0.00  0.00    +0.000 HD
ATOM     16  H   UNL     1       1.654   0.364  18.732  0.00  0.00    +0.000 HD
ENDBRANCH   9  12
BRANCH  10  17
ATOM     17  N   UNL     1       3.479   4.451  17.141  0.00  0.00    +0.000 N 
ATOM     18  H   UNL     1       2.908   4.870  16.410  0.00  0.00    +0.000 HD
BRANCH  17  19
ATOM     19  C   UNL     1       4.825   4.559  16.715  0.00  0.00    +0.000 A 
ATOM     20  C   UNL     1       5.813   4.574  17.717  0.00  0.00    +0.000 A 
ATOM     21  C   UNL     1       7.169   4.632  17.397  0.00  0.00    +0.000 A 
ATOM     22  C   UNL     1       7.561   4.672  16.063  0.00  0.00    +0.000 A 
ATOM     23  C   UNL     1       6.587   4.673  15.068  0.00  0.00    +0.000 A 
ATOM     24  C   UNL     1       5.227   4.628  15.381  0.00  0.00    +0.000 A 
BRANCH  23  25
ATOM     25  O   UNL     1       6.937   4.702  13.749  0.00  0.00    +0.000 OA
ATOM     26  H   UNL     1       7.729   4.153  13.621  0.00  0.00    +0.000 HD
ENDBRANCH  23  25
ENDBRANCH  17  19
ENDBRANCH  10  17
TORSDOF 4
ENDMDL
MODEL 5
REMARK VINA RESULT:      -7.1      1.688      3.747
REMARK  Name = 
REMARK  6 active torsions:
REMARK  status: ('A' for Active; 'I' for Inactive)
REMARK    1  A    between atoms: C_1  and  C_2
REMARK    2  A    between atoms: N_4  and  C_5
REMARK    3  A    between atoms: C_9  and  C_10
REMARK    4  A    between atoms: C_13  and  N_14
REMARK    5  A    between atoms: N_14  and  C_15
REMARK    6  A    between atoms: C_19  and  O_20
REMARK                            x       y       z     vdW  Elec       q    Type
REMARK                         _______ _______ _______ _____ _____    ______ ____
ROOT
ATOM      1  C   UNL     1       3.378   2.062  17.625  0.00  0.00    +0.000 C 
ATOM      2  C   UNL     1       2.835   2.754  18.821  0.00  0.00    +0.000 A 
ATOM      3  N   UNL     1       2.447   2.006  19.866  0.00  0.00    +0.000 NA
ATOM      4  N   UNL     1       1.962   2.906  20.740  0.00  0.00    +0.000 N 
ATOM      5  C   UNL     1       1.427   2.479  22.009  0.00  0.00    +0.000 C 
ATOM      6  C   UNL     1       2.026   4.197  20.295  0.00  0.00    +0.000 A 
ATOM      7  N   UNL     1       1.595   5.276  20.968  0.00  0.00    +0.000 NA
ATOM      8  C   UNL     1       1.769   6.420  20.270  0.00  0.00    +0.000 A 
ATOM      9  C   UNL     1       2.352   6.540  19.005  0.00  0.00    +0.000 A 
ATOM     10  C   UNL     1       2.827   5.383  18.335  0.00  0.00    +0.000 A 
ATOM     11  C   UNL     1       2.619   4.156  19.039  0.00  0.00    +0.000 A 
ENDROOT
BRANCH   9  12
ATOM     12  C   UNL     1       2.443   7.942  18.532  0.00  0.00    +0.000 C 
ATOM     13  N   UNL     1       1.632   8.874  19.101  0.00  0.00    +0.000 N 
ATOM     14  O   UNL     1       3.193   8.243  17.610  0.00  0.00    +0.000 OA
ATOM     15  H   UNL     1       1.154   8.683  19.973  0.00  0.00    +0.000 HD
ATOM     16  H   UNL     1       1.816   9.838  18.860  0.00  0.00    +0.000 HD
ENDBRANCH   9  12
BRANCH  10  17
ATOM     17  N   UNL     1       3.535   5.391  17.113  0.00  0.00    +0.000 N 
ATOM     18  H   UNL     1       3.282   6.203  16.556  0.00  0.00    +0.000 HD
BRANCH  17  19
ATOM     19  C   UNL     1       4.884   5.092  16.804  0.00  0.00    +0.000 A 
ATOM     20  C   UNL     1       5.230   5.039  15.441  0.00  0.00    +0.000 A 
ATOM     21  C   UNL     1       6.542   4.797  15.035  0.00  0.00    +0.000 A 
ATOM     22  C   UNL     1       7.535   4.607  15.990  0.00  0.00    +0.000 A 
ATOM     23  C   UNL     1       7.196   4.642  17.340  0.00  0.00    +0.000 A 
ATOM     24  C   UNL     1       5.882   4.871  17.754  0.00  0.00    +0.000 A 
BRANCH  23  25
ATOM     25  O   UNL     1       8.146   4.469  18.304  0.00  0.00    +0.000 OA
ATOM     26  H   UNL     1       9.021   4.431  17.881  0.00  0.00    +0.000 HD
ENDBRANCH  23  25
ENDBRANCH  17  19
ENDBRANCH  10  17
TORSDOF 4
ENDMDL
MODEL 6
REMARK VINA RESULT:      -7.1      3.022      5.984
REMARK  Name = 
REMARK  6 active torsions:
REMARK  status: ('A' for Active; 'I' for Inactive)
REMARK    1  A    between atoms: C_1  and  C_2
REMARK    2  A    between atoms: N_4  and  C_5
REMARK    3  A    between atoms: C_9  and  C_10
REMARK    4  A    between atoms: C_13  and  N_14
REMARK    5  A    between atoms: N_14  and  C_15
REMARK    6  A    between atoms: C_19  and  O_20
REMARK                            x       y       z     vdW  Elec       q    Type
REMARK                         _______ _______ _______ _____ _____    ______ ____
ROOT
ATOM      1  C   UNL     1       1.169   4.330  20.184  0.00  0.00    +0.000 C 
ATOM      2  C   UNL     1       2.551   3.844  19.946  0.00  0.00    +0.000 A 
ATOM      3  N   UNL     1       2.944   2.717  20.559  0.00  0.00    +0.000 NA
ATOM      4  N   UNL     1       4.231   2.585  20.193  0.00  0.00    +0.000 N 
ATOM      5  C   UNL     1       5.018   1.476  20.671  0.00  0.00    +0.000 C 
ATOM      6  C   UNL     1       4.674   3.581  19.368  0.00  0.00    +0.000 A 
ATOM      7  N   UNL     1       5.918   3.689  18.874  0.00  0.00    +0.000 NA
ATOM      8  C   UNL     1       6.072   4.789  18.105  0.00  0.00    +0.000 A 
ATOM      9  C   UNL     1       5.085   5.728  17.793  0.00  0.00    +0.000 A 
ATOM     10  C   UNL     1       3.772   5.566  18.303  0.00  0.00    +0.000 A 
ATOM     11  C   UNL     1       3.595   4.430  19.152  0.00  0.00    +0.000 A 
ENDROOT
BRANCH   9  12
ATOM     12  C   UNL     1       5.559   6.795  16.879  0.00  0.00    +0.000 C 
ATOM     13  N   UNL     1       6.694   7.471  17.203  0.00  0.00    +0.000 N 
ATOM     14  O   UNL     1       4.910   7.099  15.884  0.00  0.00    +0.000 OA
ATOM     15  H   UNL     1       7.329   7.113  17.906  0.00  0.00    +0.000 HD
ATOM     16  H   UNL     1       7.067   8.089  16.495  0.00  0.00    +0.000 HD
ENDBRANCH   9  12
BRANCH  10  17
ATOM     17  N   UNL     1       2.667   6.379  17.965  0.00  0.00    +0.000 N 
ATOM     18  H   UNL     1       1.872   5.809  17.687  0.00  0.00    +0.000 HD
BRANCH  17  19
ATOM     19  C   UNL     1       2.137   7.547  18.565  0.00  0.00    +0.000 A 
ATOM     20  C   UNL     1       1.896   7.501  19.950  0.00  0.00    +0.000 A 
ATOM     21  C   UNL     1       1.418   8.614  20.641  0.00  0.00    +0.000 A 
ATOM     22  C   UNL     1       1.177   9.799  19.954  0.00  0.00    +0.000 A 
ATOM     23  C   UNL     1       1.398   9.846  18.580  0.00  0.00    +0.000 A 
ATOM     24  C   UNL     1       1.864   8.732  17.880  0.00  0.00    +0.000 A 
BRANCH  23  25
ATOM     25  O   UNL     1       1.180  10.995  17.877  0.00  0.00    +0.000 OA
ATOM     26  H   UNL     1       2.036  11.358  17.593  0.00  0.00    +0.000 HD
ENDBRANCH  23  25
ENDBRANCH  17  19
ENDBRANCH  10  17
TORSDOF 4
ENDMDL
MODEL 7
REMARK VINA RESULT:      -7.0      2.646      5.609
REMARK  Name = 
REMARK  6 active torsions:
REMARK  status: ('A' for Active; 'I' for Inactive)
REMARK    1  A    between atoms: C_1  and  C_2
REMARK    2  A    between atoms: N_4  and  C_5
REMARK    3  A    between atoms: C_9  and  C_10
REMARK    4  A    between atoms: C_13  and  N_14
REMARK    5  A    between atoms: N_14  and  C_15
REMARK    6  A    between atoms: C_19  and  O_20
REMARK                            x       y       z     vdW  Elec       q    Type
REMARK                         _______ _______ _______ _____ _____    ______ ____
ROOT
ATOM      1  C   UNL     1       5.332   7.550  17.593  0.00  0.00    +0.000 C 
ATOM      2  C   UNL     1       5.127   6.117  17.266  0.00  0.00    +0.000 A 
ATOM      3  N   UNL     1       5.855   5.579  16.275  0.00  0.00    +0.000 NA
ATOM      4  N   UNL     1       5.401   4.316  16.193  0.00  0.00    +0.000 N 
ATOM      5  C   UNL     1       5.941   3.406  15.214  0.00  0.00    +0.000 C 
ATOM      6  C   UNL     1       4.414   4.027  17.093  0.00  0.00    +0.000 A 
ATOM      7  N   UNL     1       3.784   2.845  17.207  0.00  0.00    +0.000 NA
ATOM      8  C   UNL     1       2.838   2.858  18.171  0.00  0.00    +0.000 A 
ATOM      9  C   UNL     1       2.522   3.931  19.010  0.00  0.00    +0.000 A 
ATOM     10  C   UNL     1       3.229   5.154  18.886  0.00  0.00    +0.000 A 
ATOM     11  C   UNL     1       4.210   5.177  17.846  0.00  0.00    +0.000 A 
ENDROOT
BRANCH   9  12
ATOM     12  C   UNL     1       1.468   3.609  20.002  0.00  0.00    +0.000 C 
ATOM     13  N   UNL     1       0.392   2.883  19.595  0.00  0.00    +0.000 N 
ATOM     14  O   UNL     1       1.539   4.036  21.150  0.00  0.00    +0.000 OA
ATOM     15  H   UNL     1       0.411   2.374  18.720  0.00  0.00    +0.000 HD
ATOM     16  H   UNL     1      -0.233   2.561  20.321  0.00  0.00    +0.000 HD
ENDBRANCH   9  12
BRANCH  10  17
ATOM     17  N   UNL     1       3.082   6.263  19.748  0.00  0.00    +0.000 N 
ATOM     18  H   UNL     1       3.987   6.565  20.104  0.00  0.00    +0.000 HD
BRANCH  17  19
ATOM     19  C   UNL     1       2.274   7.422  19.664  0.00  0.00    +0.000 A 
ATOM     20  C   UNL     1       1.568   7.794  20.823  0.00  0.00    +0.000 A 
ATOM     21  C   UNL     1       0.781   8.946  20.853  0.00  0.00    +0.000 A 
ATOM     22  C   UNL     1       0.691   9.749  19.722  0.00  0.00    +0.000 A 
ATOM     23  C   UNL     1       1.374   9.377  18.568  0.00  0.00    +0.000 A 
ATOM     24  C   UNL     1       2.154   8.220  18.525  0.00  0.00    +0.000 A 
BRANCH  23  25
ATOM     25  O   UNL     1       1.315  10.148  17.443  0.00  0.00    +0.000 OA
ATOM     26  H   UNL     1       0.449  10.587  17.407  0.00  0.00    +0.000 HD
ENDBRANCH  23  25
ENDBRANCH  17  19
ENDBRANCH  10  17
TORSDOF 4
ENDMDL
MODEL 8
REMARK VINA RESULT:      -7.0      1.859      3.963
REMARK  Name = 
REMARK  6 active torsions:
REMARK  status: ('A' for Active; 'I' for Inactive)
REMARK    1  A    between atoms: C_1  and  C_2
REMARK    2  A    between atoms: N_4  and  C_5
REMARK    3  A    between atoms: C_9  and  C_10
REMARK    4  A    between atoms: C_13  and  N_14
REMARK    5  A    between atoms: N_14  and  C_15
REMARK    6  A    between atoms: C_19  and  O_20
REMARK                            x       y       z     vdW  Elec       q    Type
REMARK                         _______ _______ _______ _____ _____    ______ ____
ROOT
ATOM      1  C   UNL     1       3.320   1.934  17.770  0.00  0.00    +0.000 C 
ATOM      2  C   UNL     1       2.764   2.678  18.928  0.00  0.00    +0.000 A 
ATOM      3  N   UNL     1       2.330   1.976  19.986  0.00  0.00    +0.000 NA
ATOM      4  N   UNL     1       1.845   2.916  20.817  0.00  0.00    +0.000 N 
ATOM      5  C   UNL     1       1.266   2.544  22.084  0.00  0.00    +0.000 C 
ATOM      6  C   UNL     1       1.954   4.189  20.331  0.00  0.00    +0.000 A 
ATOM      7  N   UNL     1       1.533   5.300  20.957  0.00  0.00    +0.000 NA
ATOM      8  C   UNL     1       1.753   6.415  20.227  0.00  0.00    +0.000 A 
ATOM      9  C   UNL     1       2.372   6.479  18.974  0.00  0.00    +0.000 A 
ATOM     10  C   UNL     1       2.835   5.289  18.356  0.00  0.00    +0.000 A 
ATOM     11  C   UNL     1       2.578   4.092  19.093  0.00  0.00    +0.000 A 
ENDROOT
BRANCH   9  12
ATOM     12  C   UNL     1       2.511   7.862  18.459  0.00  0.00    +0.000 C 
ATOM     13  N   UNL     1       1.701   8.830  18.966  0.00  0.00    +0.000 N 
ATOM     14  O   UNL     1       3.301   8.115  17.555  0.00  0.00    +0.000 OA
ATOM     15  H   UNL     1       1.188   8.679  19.826  0.00  0.00    +0.000 HD
ATOM     16  H   UNL     1       1.916   9.781  18.700  0.00  0.00    +0.000 HD
ENDBRANCH   9  12
BRANCH  10  17
ATOM     17  N   UNL     1       3.575   5.239  17.154  0.00  0.00    +0.000 N 
ATOM     18  H   UNL     1       3.211   5.907  16.479  0.00  0.00    +0.000 HD
BRANCH  17  19
ATOM     19  C   UNL     1       4.965   5.130  16.907  0.00  0.00    +0.000 A 
ATOM     20  C   UNL     1       5.783   4.783  17.997  0.00  0.00    +0.000 A 
ATOM     21  C   UNL     1       7.158   4.606  17.844  0.00  0.00    +0.000 A 
ATOM     22  C   UNL     1       7.739   4.771  16.592  0.00  0.00    +0.000 A 
ATOM     23  C   UNL     1       6.937   5.130  15.512  0.00  0.00    +0.000 A 
ATOM     24  C   UNL     1       5.562   5.321  15.659  0.00  0.00    +0.000 A 
BRANCH  23  25
ATOM     25  O   UNL     1       7.473   5.290  14.267  0.00  0.00    +0.000 OA
ATOM     26  H   UNL     1       7.679   4.415  13.898  0.00  0.00    +0.000 HD
ENDBRANCH  23  25
ENDBRANCH  17  19
ENDBRANCH  10  17
TORSDOF 4
ENDMDL
MODEL 9
REMARK VINA RESULT:      -6.9      1.263      1.405
REMARK  Name = 
REMARK  6 active torsions:
REMARK  status: ('A' for Active; 'I' for Inactive)
REMARK    1  A    between atoms: C_1  and  C_2
REMARK    2  A    between atoms: N_4  and  C_5
REMARK    3  A    between atoms: C_9  and  C_10
REMARK    4  A    between atoms: C_13  and  N_14
REMARK    5  A    between atoms: N_14  and  C_15
REMARK    6  A    between atoms: C_19  and  O_20
REMARK                            x       y       z     vdW  Elec       q    Type
REMARK                         _______ _______ _______ _____ _____    ______ ____
ROOT
ATOM      1  C   UNL     1       3.860   7.460  16.692  0.00  0.00    +0.000 C 
ATOM      2  C   UNL     1       2.995   7.532  17.896  0.00  0.00    +0.000 A 
ATOM      3  N   UNL     1       2.480   8.722  18.239  0.00  0.00    +0.000 NA
ATOM      4  N   UNL     1       1.810   8.465  19.377  0.00  0.00    +0.000 N 
ATOM      5  C   UNL     1       1.117   9.521  20.073  0.00  0.00    +0.000 C 
ATOM      6  C   UNL     1       1.876   7.158  19.771  0.00  0.00    +0.000 A 
ATOM      7  N   UNL     1       1.308   6.647  20.876  0.00  0.00    +0.000 NA
ATOM      8  C   UNL     1       1.559   5.328  21.020  0.00  0.00    +0.000 A 
ATOM      9  C   UNL     1       2.290   4.522  20.142  0.00  0.00    +0.000 A 
ATOM     10  C   UNL     1       2.849   5.085  18.967  0.00  0.00    +0.000 A 
ATOM     11  C   UNL     1       2.628   6.490  18.813  0.00  0.00    +0.000 A 
ENDROOT
BRANCH   9  12
ATOM     12  C   UNL     1       2.341   3.099  20.557  0.00  0.00    +0.000 C 
ATOM     13  N   UNL     1       2.248   2.805  21.882  0.00  0.00    +0.000 N 
ATOM     14  O   UNL     1       2.520   2.213  19.729  0.00  0.00    +0.000 OA
ATOM     15  H   UNL     1       1.918   3.495  22.545  0.00  0.00    +0.000 HD
ATOM     16  H   UNL     1       2.144   1.828  22.119  0.00  0.00    +0.000 HD
ENDBRANCH   9  12
BRANCH  10  17
ATOM     17  N   UNL     1       3.503   4.353  17.951  0.00  0.00    +0.000 N 
ATOM     18  H   UNL     1       2.922   4.295  17.118  0.00  0.00    +0.000 HD
BRANCH  17  19
ATOM     19  C   UNL     1       4.847   4.351  17.508  0.00  0.00    +0.000 A 
ATOM     20  C   UNL     1       5.065   4.168  16.130  0.00  0.00    +0.000 A 
ATOM     21  C   UNL     1       6.351   4.197  15.589  0.00  0.00    +0.000 A 
ATOM     22  C   UNL     1       7.444   4.414  16.421  0.00  0.00    +0.000 A 
ATOM     23  C   UNL     1       7.236   4.579  17.788  0.00  0.00    +0.000 A 
ATOM     24  C   UNL     1       5.953   4.539  18.339  0.00  0.00    +0.000 A 
BRANCH  23  25
ATOM     25  O   UNL     1       8.284   4.803  18.632  0.00  0.00    +0.000 OA
ATOM     26  H   UNL     1       8.915   4.067  18.553  0.00  0.00    +0.000 HD
ENDBRANCH  23  25
ENDBRANCH  17  19
ENDBRANCH  10  17
TORSDOF 4
ENDMDL
