MODEL 1
REMARK VINA RESULT:      -7.6      0.000      0.000
REMARK  Name = 
REMARK  1 active torsions:
REMARK  status: ('A' for Active; 'I' for Inactive)
REMARK    1  A    between atoms: C_1  and  C_2
REMARK                            x       y       z     vdW  Elec       q    Type
REMARK                         _______ _______ _______ _____ _____    ______ ____
ROOT
ATOM      1  C   UNL     1       0.701   4.056  20.453  0.00  0.00    +0.000 C 
ATOM      2  C   UNL     1       2.040   4.535  19.966  0.00  0.00    +0.000 A 
ATOM      3  C   UNL     1       2.018   5.430  18.893  0.00  0.00    +0.000 A 
ATOM      4  C   UNL     1       2.857   5.196  17.818  0.00  0.00    +0.000 A 
ATOM      5  C   UNL     1       3.656   4.072  17.979  0.00  0.00    +0.000 A 
ATOM      6  N   UNL     1       4.480   3.335  17.157  0.00  0.00    +0.000 N 
ATOM      7  C   UNL     1       5.728   3.705  17.590  0.00  0.00    +0.000 A 
ATOM      8  C   UNL     1       6.598   4.323  16.657  0.00  0.00    +0.000 A 
ATOM      9  C   UNL     1       6.597   4.151  15.354  0.00  0.00    +0.000 A 
ATOM     10  C   UNL     1       5.972   3.253  14.433  0.00  0.00    +0.000 A 
ATOM     11  C   UNL     1       6.087   3.502  13.123  0.00  0.00    +0.000 A 
ATOM     12  C   UNL     1       6.844   4.647  12.647  0.00  0.00    +0.000 A 
ATOM     13  C   UNL     1       7.456   5.526  13.468  0.00  0.00    +0.000 A 
ATOM     14  C   UNL     1       7.349   5.353  14.941  0.00  0.00    +0.000 A 
ATOM     15  N   UNL     1       7.762   6.138  15.904  0.00  0.00    +0.000 NA
ATOM     16  C   UNL     1       7.267   5.540  17.049  0.00  0.00    +0.000 A 
ATOM     17  C   UNL     1       7.137   5.927  18.341  0.00  0.00    +0.000 A 
ATOM     18  N   UNL     1       6.380   5.189  19.323  0.00  0.00    +0.000 N 
ATOM     19  C   UNL     1       5.564   4.144  18.905  0.00  0.00    +0.000 A 
ATOM     20  C   UNL     1       4.196   3.801  19.243  0.00  0.00    +0.000 A 
ATOM     21  C   UNL     1       3.249   3.877  20.283  0.00  0.00    +0.000 A 
ATOM     22  H   UNL     1       4.308   2.352  17.023  0.00  0.00    +0.000 HD
ATOM     23  H   UNL     1       6.060   5.782  20.086  0.00  0.00    +0.000 HD
ENDROOT
TORSDOF 0
ENDMDL
MODEL 2
REMARK VINA RESULT:      -7.3      2.226      5.870
REMARK  Name = 
REMARK  1 active torsions:
REMARK  status: ('A' for Active; 'I' for Inactive)
REMARK    1  A    between atoms: C_1  and  C_2
REMARK                            x       y       z     vdW  Elec       q    Type
REMARK                         _______ _______ _______ _____ _____    ______ ____
ROOT
ATOM      1  C   UNL     1       8.173   9.007  17.870  0.00  0.00    +0.000 C 
ATOM      2  C   UNL     1       7.397   7.779  17.485  0.00  0.00    +0.000 A 
ATOM      3  C   UNL     1       6.042   7.975  17.201  0.00  0.00    +0.000 A 
ATOM      4  C   UNL     1       5.115   7.128  17.783  0.00  0.00    +0.000 A 
ATOM      5  C   UNL     1       5.690   6.146  18.578  0.00  0.00    +0.000 A 
ATOM      6  N   UNL     1       5.217   5.223  19.485  0.00  0.00    +0.000 N 
ATOM      7  C   UNL     1       5.312   4.050  18.782  0.00  0.00    +0.000 A 
ATOM      8  C   UNL     1       4.123   3.316  18.549  0.00  0.00    +0.000 A 
ATOM      9  C   UNL     1       3.045   3.313  19.303  0.00  0.00    +0.000 A 
ATOM     10  C   UNL     1       2.697   3.792  20.605  0.00  0.00    +0.000 A 
ATOM     11  C   UNL     1       1.412   3.747  20.976  0.00  0.00    +0.000 A 
ATOM     12  C   UNL     1       0.398   3.206  20.087  0.00  0.00    +0.000 A 
ATOM     13  C   UNL     1       0.669   2.738  18.850  0.00  0.00    +0.000 A 
ATOM     14  C   UNL     1       2.062   2.785  18.335  0.00  0.00    +0.000 A 
ATOM     15  N   UNL     1       2.521   2.495  17.144  0.00  0.00    +0.000 NA
ATOM     16  C   UNL     1       3.854   2.859  17.208  0.00  0.00    +0.000 A 
ATOM     17  C   UNL     1       4.836   3.028  16.290  0.00  0.00    +0.000 A 
ATOM     18  N   UNL     1       6.114   3.628  16.589  0.00  0.00    +0.000 N 
ATOM     19  C   UNL     1       6.295   4.261  17.813  0.00  0.00    +0.000 A 
ATOM     20  C   UNL     1       6.881   5.544  18.153  0.00  0.00    +0.000 A 
ATOM     21  C   UNL     1       7.860   6.470  17.740  0.00  0.00    +0.000 A 
ATOM     22  H   UNL     1       5.560   5.227  20.432  0.00  0.00    +0.000 HD
ATOM     23  H   UNL     1       6.552   4.031  15.762  0.00  0.00    +0.000 HD
ENDROOT
TORSDOF 0
ENDMDL
MODEL 3
REMARK VINA RESULT:      -7.0      1.748      5.930
REMARK  Name = 
REMARK  1 active torsions:
REMARK  status: ('A' for Active; 'I' for Inactive)
REMARK    1  A    between atoms: C_1  and  C_2
REMARK                            x       y       z     vdW  Elec       q    Type
REMARK                         _______ _______ _______ _____ _____    ______ ____
ROOT
ATOM      1  C   UNL     1       6.995   4.011  11.550  0.00  0.00    +0.000 C 
ATOM      2  C   UNL     1       6.792   3.997  13.038  0.00  0.00    +0.000 A 
ATOM      3  C   UNL     1       5.530   3.590  13.481  0.00  0.00    +0.000 A 
ATOM      4  C   UNL     1       4.882   4.361  14.430  0.00  0.00    +0.000 A 
ATOM      5  C   UNL     1       5.622   5.459  14.846  0.00  0.00    +0.000 A 
ATOM      6  N   UNL     1       5.360   6.587  15.593  0.00  0.00    +0.000 N 
ATOM      7  C   UNL     1       5.992   6.304  16.777  0.00  0.00    +0.000 A 
ATOM      8  C   UNL     1       5.206   6.252  17.954  0.00  0.00    +0.000 A 
ATOM      9  C   UNL     1       4.087   6.906  18.178  0.00  0.00    +0.000 A 
ATOM     10  C   UNL     1       3.367   7.963  17.539  0.00  0.00    +0.000 A 
ATOM     11  C   UNL     1       2.140   8.258  17.985  0.00  0.00    +0.000 A 
ATOM     12  C   UNL     1       1.561   7.534  19.104  0.00  0.00    +0.000 A 
ATOM     13  C   UNL     1       2.195   6.529  19.747  0.00  0.00    +0.000 A 
ATOM     14  C   UNL     1       3.546   6.105  19.294  0.00  0.00    +0.000 A 
ATOM     15  N   UNL     1       4.280   5.097  19.693  0.00  0.00    +0.000 NA
ATOM     16  C   UNL     1       5.360   5.116  18.830  0.00  0.00    +0.000 A 
ATOM     17  C   UNL     1       6.361   4.248  18.544  0.00  0.00    +0.000 A 
ATOM     18  N   UNL     1       7.264   4.410  17.430  0.00  0.00    +0.000 N 
ATOM     19  C   UNL     1       6.988   5.374  16.468  0.00  0.00    +0.000 A 
ATOM     20  C   UNL     1       7.005   5.317  15.019  0.00  0.00    +0.000 A 
ATOM     21  C   UNL     1       7.642   4.684  13.933  0.00  0.00    +0.000 A 
ATOM     22  H   UNL     1       5.507   7.499  15.195  0.00  0.00    +0.000 HD
ATOM     23  H   UNL     1       7.666   3.523  17.130  0.00  0.00    +0.000 HD
ENDROOT
TORSDOF 0
ENDMDL
MODEL 4
REMARK VINA RESULT:      -6.7      7.295      9.626
REMARK  Name = 
REMARK  1 active torsions:
REMARK  status: ('A' for Active; 'I' for Inactive)
REMARK    1  A    between atoms: C_1  and  C_2
REMARK                            x       y       z     vdW  Elec       q    Type
REMARK                         _______ _______ _______ _____ _____    ______ ____
ROOT
ATOM      1  C   UNL     1       2.334  16.952  18.402  0.00  0.00    +0.000 C 
ATOM      2  C   UNL     1       1.824  15.734  19.119  0.00  0.00    +0.000 A 
ATOM      3  C   UNL     1       2.794  14.924  19.715  0.00  0.00    +0.000 A 
ATOM      4  C   UNL     1       2.741  13.558  19.498  0.00  0.00    +0.000 A 
ATOM      5  C   UNL     1       1.668  13.169  18.707  0.00  0.00    +0.000 A 
ATOM      6  N   UNL     1       1.296  12.005  18.070  0.00  0.00    +0.000 N 
ATOM      7  C   UNL     1       0.270  11.556  18.862  0.00  0.00    +0.000 A 
ATOM      8  C   UNL     1       0.413  10.289  19.480  0.00  0.00    +0.000 A 
ATOM      9  C   UNL     1       1.124   9.277  19.035  0.00  0.00    +0.000 A 
ATOM     10  C   UNL     1       1.802   8.950  17.818  0.00  0.00    +0.000 A 
ATOM     11  C   UNL     1       2.583   7.864  17.797  0.00  0.00    +0.000 A 
ATOM     12  C   UNL     1       2.725   7.026  18.976  0.00  0.00    +0.000 A 
ATOM     13  C   UNL     1       2.109   7.284  20.149  0.00  0.00    +0.000 A 
ATOM     14  C   UNL     1       1.253   8.492  20.279  0.00  0.00    +0.000 A 
ATOM     15  N   UNL     1       0.663   8.986  21.338  0.00  0.00    +0.000 NA
ATOM     16  C   UNL     1       0.131  10.181  20.890  0.00  0.00    +0.000 A 
ATOM     17  C   UNL     1      -0.403  11.269  21.498  0.00  0.00    +0.000 A 
ATOM     18  N   UNL     1      -0.700  12.502  20.810  0.00  0.00    +0.000 N 
ATOM     19  C   UNL     1      -0.234  12.683  19.513  0.00  0.00    +0.000 A 
ATOM     20  C   UNL     1       0.433  13.806  18.881  0.00  0.00    +0.000 A 
ATOM     21  C   UNL     1       0.528  15.212  18.913  0.00  0.00    +0.000 A 
ATOM     22  H   UNL     1       1.150  12.001  17.074  0.00  0.00    +0.000 HD
ATOM     23  H   UNL     1      -0.709  13.301  21.441  0.00  0.00    +0.000 HD
ENDROOT
TORSDOF 0
ENDMDL
MODEL 5
REMARK VINA RESULT:      -6.6     11.875     15.417
REMARK  Name = 
REMARK  1 active torsions:
REMARK  status: ('A' for Active; 'I' for Inactive)
REMARK    1  A    between atoms: C_1  and  C_2
REMARK                            x       y       z     vdW  Elec       q    Type
REMARK                         _______ _______ _______ _____ _____    ______ ____
ROOT
ATOM      1  C   UNL     1      -2.229   9.852  16.609  0.00  0.00    +0.000 C 
ATOM      2  C   UNL     1      -3.120  10.998  16.995  0.00  0.00    +0.000 A 
ATOM      3  C   UNL     1      -2.736  11.717  18.131  0.00  0.00    +0.000 A 
ATOM      4  C   UNL     1      -3.690  11.989  19.095  0.00  0.00    +0.000 A 
ATOM      5  C   UNL     1      -4.953  11.512  18.769  0.00  0.00    +0.000 A 
ATOM      6  N   UNL     1      -6.144  11.362  19.446  0.00  0.00    +0.000 N 
ATOM      7  C   UNL     1      -6.905  12.375  18.922  0.00  0.00    +0.000 A 
ATOM      8  C   UNL     1      -7.391  13.368  19.808  0.00  0.00    +0.000 A 
ATOM      9  C   UNL     1      -7.650  13.216  21.088  0.00  0.00    +0.000 A 
ATOM     10  C   UNL     1      -7.755  12.114  21.994  0.00  0.00    +0.000 A 
ATOM     11  C   UNL     1      -7.875  12.375  23.301  0.00  0.00    +0.000 A 
ATOM     12  C   UNL     1      -7.916  13.743  23.787  0.00  0.00    +0.000 A 
ATOM     13  C   UNL     1      -7.823  14.821  22.979  0.00  0.00    +0.000 A 
ATOM     14  C   UNL     1      -7.647  14.629  21.515  0.00  0.00    +0.000 A 
ATOM     15  N   UNL     1      -7.426  15.517  20.580  0.00  0.00    +0.000 NA
ATOM     16  C   UNL     1      -7.210  14.753  19.447  0.00  0.00    +0.000 A 
ATOM     17  C   UNL     1      -6.725  15.010  18.207  0.00  0.00    +0.000 A 
ATOM     18  N   UNL     1      -6.393  13.981  17.252  0.00  0.00    +0.000 N 
ATOM     19  C   UNL     1      -6.361  12.655  17.667  0.00  0.00    +0.000 A 
ATOM     20  C   UNL     1      -5.388  11.603  17.441  0.00  0.00    +0.000 A 
ATOM     21  C   UNL     1      -4.439  11.139  16.509  0.00  0.00    +0.000 A 
ATOM     22  H   UNL     1      -6.569  10.452  19.520  0.00  0.00    +0.000 HD
ATOM     23  H   UNL     1      -5.703  14.297  16.572  0.00  0.00    +0.000 HD
ENDROOT
TORSDOF 0
ENDMDL
MODEL 6
REMARK VINA RESULT:      -6.6      1.429      1.631
REMARK  Name = 
REMARK  1 active torsions:
REMARK  status: ('A' for Active; 'I' for Inactive)
REMARK    1  A    between atoms: C_1  and  C_2
REMARK                            x       y       z     vdW  Elec       q    Type
REMARK                         _______ _______ _______ _____ _____    ______ ____
ROOT
ATOM      1  C   UNL     1       0.858   7.671  20.295  0.00  0.00    +0.000 C 
ATOM      2  C   UNL     1       2.231   7.236  19.867  0.00  0.00    +0.000 A 
ATOM      3  C   UNL     1       2.786   7.931  18.788  0.00  0.00    +0.000 A 
ATOM      4  C   UNL     1       3.352   7.206  17.755  0.00  0.00    +0.000 A 
ATOM      5  C   UNL     1       3.311   5.833  17.959  0.00  0.00    +0.000 A 
ATOM      6  N   UNL     1       3.555   4.723  17.181  0.00  0.00    +0.000 N 
ATOM      7  C   UNL     1       4.761   4.287  17.667  0.00  0.00    +0.000 A 
ATOM      8  C   UNL     1       5.857   4.229  16.772  0.00  0.00    +0.000 A 
ATOM      9  C   UNL     1       5.797   4.049  15.471  0.00  0.00    +0.000 A 
ATOM     10  C   UNL     1       4.788   3.675  14.528  0.00  0.00    +0.000 A 
ATOM     11  C   UNL     1       5.072   3.762  13.224  0.00  0.00    +0.000 A 
ATOM     12  C   UNL     1       6.380   4.209  12.775  0.00  0.00    +0.000 A 
ATOM     13  C   UNL     1       7.370   4.573  13.618  0.00  0.00    +0.000 A 
ATOM     14  C   UNL     1       7.132   4.547  15.085  0.00  0.00    +0.000 A 
ATOM     15  N   UNL     1       7.901   4.960  16.061  0.00  0.00    +0.000 NA
ATOM     16  C   UNL     1       7.109   4.815  17.186  0.00  0.00    +0.000 A 
ATOM     17  C   UNL     1       7.195   5.244  18.468  0.00  0.00    +0.000 A 
ATOM     18  N   UNL     1       6.115   5.140  19.419  0.00  0.00    +0.000 N 
ATOM     19  C   UNL     1       4.850   4.778  18.971  0.00  0.00    +0.000 A 
ATOM     20  C   UNL     1       3.539   5.334  19.248  0.00  0.00    +0.000 A 
ATOM     21  C   UNL     1       2.793   5.996  20.244  0.00  0.00    +0.000 A 
ATOM     22  H   UNL     1       2.833   4.035  17.045  0.00  0.00    +0.000 HD
ATOM     23  H   UNL     1       6.190   5.831  20.163  0.00  0.00    +0.000 HD
ENDROOT
TORSDOF 0
ENDMDL
MODEL 7
REMARK VINA RESULT:      -6.6      1.989      2.711
REMARK  Name = 
REMARK  1 active torsions:
REMARK  status: ('A' for Active; 'I' for Inactive)
REMARK    1  A    between atoms: C_1  and  C_2
REMARK                            x       y       z     vdW  Elec       q    Type
REMARK                         _______ _______ _______ _____ _____    ______ ____
ROOT
ATOM      1  C   UNL     1       1.024   2.124  22.039  0.00  0.00    +0.000 C 
ATOM      2  C   UNL     1       1.383   3.226  21.082  0.00  0.00    +0.000 A 
ATOM      3  C   UNL     1       1.259   2.922  19.723  0.00  0.00    +0.000 A 
ATOM      4  C   UNL     1       2.307   3.239  18.877  0.00  0.00    +0.000 A 
ATOM      5  C   UNL     1       3.365   3.866  19.522  0.00  0.00    +0.000 A 
ATOM      6  N   UNL     1       4.659   4.193  19.181  0.00  0.00    +0.000 N 
ATOM      7  C   UNL     1       4.578   5.550  19.002  0.00  0.00    +0.000 A 
ATOM      8  C   UNL     1       4.904   6.074  17.727  0.00  0.00    +0.000 A 
ATOM      9  C   UNL     1       5.733   5.546  16.853  0.00  0.00    +0.000 A 
ATOM     10  C   UNL     1       6.699   4.491  16.856  0.00  0.00    +0.000 A 
ATOM     11  C   UNL     1       7.247   4.127  15.691  0.00  0.00    +0.000 A 
ATOM     12  C   UNL     1       6.885   4.800  14.455  0.00  0.00    +0.000 A 
ATOM     13  C   UNL     1       5.982   5.802  14.392  0.00  0.00    +0.000 A 
ATOM     14  C   UNL     1       5.291   6.247  15.631  0.00  0.00    +0.000 A 
ATOM     15  N   UNL     1       4.316   7.108  15.777  0.00  0.00    +0.000 NA
ATOM     16  C   UNL     1       3.992   7.011  17.118  0.00  0.00    +0.000 A 
ATOM     17  C   UNL     1       2.958   7.447  17.879  0.00  0.00    +0.000 A 
ATOM     18  N   UNL     1       2.737   7.028  19.242  0.00  0.00    +0.000 N 
ATOM     19  C   UNL     1       3.480   5.972  19.755  0.00  0.00    +0.000 A 
ATOM     20  C   UNL     1       3.086   4.806  20.522  0.00  0.00    +0.000 A 
ATOM     21  C   UNL     1       2.141   4.354  21.465  0.00  0.00    +0.000 A 
ATOM     22  H   UNL     1       5.427   3.842  19.729  0.00  0.00    +0.000 HD
ATOM     23  H   UNL     1       1.760   7.117  19.517  0.00  0.00    +0.000 HD
ENDROOT
TORSDOF 0
ENDMDL
MODEL 8
REMARK VINA RESULT:      -6.5      9.823     12.685
REMARK  Name = 
REMARK  1 active torsions:
REMARK  status: ('A' for Active; 'I' for Inactive)
REMARK    1  A    between atoms: C_1  and  C_2
REMARK                            x       y       z     vdW  Elec       q    Type
REMARK                         _______ _______ _______ _____ _____    ______ ____
ROOT
ATOM      1  C   UNL     1      -3.286  10.072  14.856  0.00  0.00    +0.000 C 
ATOM      2  C   UNL     1      -2.739  10.227  16.246  0.00  0.00    +0.000 A 
ATOM      3  C   UNL     1      -3.421   9.538  17.254  0.00  0.00    +0.000 A 
ATOM      4  C   UNL     1      -3.753  10.218  18.412  0.00  0.00    +0.000 A 
ATOM      5  C   UNL     1      -3.318  11.537  18.420  0.00  0.00    +0.000 A 
ATOM      6  N   UNL     1      -3.552  12.637  19.216  0.00  0.00    +0.000 N 
ATOM      7  C   UNL     1      -2.380  12.739  19.921  0.00  0.00    +0.000 A 
ATOM      8  C   UNL     1      -2.442  12.638  21.333  0.00  0.00    +0.000 A 
ATOM      9  C   UNL     1      -3.464  12.958  22.095  0.00  0.00    +0.000 A 
ATOM     10  C   UNL     1      -4.707  13.644  21.919  0.00  0.00    +0.000 A 
ATOM     11  C   UNL     1      -5.591  13.627  22.923  0.00  0.00    +0.000 A 
ATOM     12  C   UNL     1      -5.289  12.945  24.170  0.00  0.00    +0.000 A 
ATOM     13  C   UNL     1      -4.133  12.284  24.394  0.00  0.00    +0.000 A 
ATOM     14  C   UNL     1      -3.108  12.214  23.320  0.00  0.00    +0.000 A 
ATOM     15  N   UNL     1      -1.985  11.542  23.283  0.00  0.00    +0.000 NA
ATOM     16  C   UNL     1      -1.522  11.746  21.996  0.00  0.00    +0.000 A 
ATOM     17  C   UNL     1      -0.554  11.181  21.234  0.00  0.00    +0.000 A 
ATOM     18  N   UNL     1      -0.403  11.429  19.821  0.00  0.00    +0.000 N 
ATOM     19  C   UNL     1      -1.407  12.110  19.141  0.00  0.00    +0.000 A 
ATOM     20  C   UNL     1      -2.063  11.838  17.876  0.00  0.00    +0.000 A 
ATOM     21  C   UNL     1      -1.851  11.264  16.608  0.00  0.00    +0.000 A 
ATOM     22  H   UNL     1      -3.926  13.480  18.812  0.00  0.00    +0.000 HD
ATOM     23  H   UNL     1       0.077  10.667  19.346  0.00  0.00    +0.000 HD
ENDROOT
TORSDOF 0
ENDMDL
MODEL 9
REMARK VINA RESULT:      -6.4      8.790     10.435
REMARK  Name = 
REMARK  1 active torsions:
REMARK  status: ('A' for Active; 'I' for Inactive)
REMARK    1  A    between atoms: C_1  and  C_2
REMARK                            x       y       z     vdW  Elec       q    Type
REMARK                         _______ _______ _______ _____ _____    ______ ____
ROOT
ATOM      1  C   UNL     1       6.350  10.930  27.430  0.00  0.00    +0.000 C 
ATOM      2  C   UNL     1       6.543  11.845  26.254  0.00  0.00    +0.000 A 
ATOM      3  C   UNL     1       5.863  11.494  25.085  0.00  0.00    +0.000 A 
ATOM      4  C   UNL     1       6.561  11.489  23.890  0.00  0.00    +0.000 A 
ATOM      5  C   UNL     1       7.887  11.878  24.025  0.00  0.00    +0.000 A 
ATOM      6  N   UNL     1       8.999  11.855  23.211  0.00  0.00    +0.000 N 
ATOM      7  C   UNL     1       9.135  13.176  22.871  0.00  0.00    +0.000 A 
ATOM      8  C   UNL     1       9.063  13.519  21.498  0.00  0.00    +0.000 A 
ATOM      9  C   UNL     1       9.379  12.749  20.481  0.00  0.00    +0.000 A 
ATOM     10  C   UNL     1      10.039  11.492  20.307  0.00  0.00    +0.000 A 
ATOM     11  C   UNL     1      10.028  10.930  19.093  0.00  0.00    +0.000 A 
ATOM     12  C   UNL     1       9.376  11.589  17.973  0.00  0.00    +0.000 A 
ATOM     13  C   UNL     1       8.740  12.776  18.078  0.00  0.00    +0.000 A 
ATOM     14  C   UNL     1       8.667  13.456  19.398  0.00  0.00    +0.000 A 
ATOM     15  N   UNL     1       8.015  14.537  19.742  0.00  0.00    +0.000 NA
ATOM     16  C   UNL     1       8.201  14.610  21.111  0.00  0.00    +0.000 A 
ATOM     17  C   UNL     1       7.637  15.335  22.108  0.00  0.00    +0.000 A 
ATOM     18  N   UNL     1       7.860  15.072  23.509  0.00  0.00    +0.000 N 
ATOM     19  C   UNL     1       8.508  13.902  23.885  0.00  0.00    +0.000 A 
ATOM     20  C   UNL     1       8.199  12.920  24.908  0.00  0.00    +0.000 A 
ATOM     21  C   UNL     1       7.603  12.776  26.176  0.00  0.00    +0.000 A 
ATOM     22  H   UNL     1       9.826  11.363  23.505  0.00  0.00    +0.000 HD
ATOM     23  H   UNL     1       7.096  15.415  24.090  0.00  0.00    +0.000 HD
ENDROOT
TORSDOF 0
ENDMDL
