MODEL 1
REMARK VINA RESULT:      -6.2      0.000      0.000
REMARK  Name = 
REMARK  14 active torsions:
REMARK  status: ('A' for Active; 'I' for Inactive)
REMARK    1  A    between atoms: C_1  and  O_2
REMARK    2  A    between atoms: O_2  and  C_3
REMARK    3  A    between atoms: C_6  and  C_7
REMARK    4  A    between atoms: C_7  and  C_8
REMARK    5  A    between atoms: N_10  and  C_11
REMARK    6  A    between atoms: C_11  and  N_12
REMARK    7  A    between atoms: C_11  and  C_25
REMARK    8  A    between atoms: N_14  and  C_15
REMARK    9  A    between atoms: N_17  and  C_18
REMARK   10  A    between atoms: C_25  and  C_26
REMARK   11  A    between atoms: C_25  and  C_27
REMARK   12  A    between atoms: C_25  and  C_28
REMARK   13  A    between atoms: C_30  and  O_31
REMARK   14  A    between atoms: O_31  and  C_32
REMARK                            x       y       z     vdW  Elec       q    Type
REMARK                         _______ _______ _______ _____ _____    ______ ____
ROOT
ATOM      1  C   UNL     1       0.687  10.548  20.396  0.00  0.00    +0.000 C 
ENDROOT
BRANCH   1   2
ATOM      2  N   UNL     1       0.259  11.920  20.494  0.00  0.00    +0.000 N 
ATOM      3  C   UNL     1       0.957  12.950  19.921  0.00  0.00    +0.000 C 
ATOM      4  N   UNL     1       1.817  12.687  18.991  0.00  0.00    +0.000 NA
ATOM      5  N   UNL     1       0.634  14.116  20.560  0.00  0.00    +0.000 N 
ATOM      6  H   UNL     1      -0.695  12.088  20.805  0.00  0.00    +0.000 HD
ATOM      7  H   UNL     1       0.715  14.079  21.571  0.00  0.00    +0.000 HD
BRANCH   5   8
ATOM      8  C   UNL     1       0.595  15.422  20.040  0.00  0.00    +0.000 A 
ATOM      9  C   UNL     1      -0.264  15.775  18.998  0.00  0.00    +0.000 A 
ATOM     10  C   UNL     1      -0.288  17.082  18.519  0.00  0.00    +0.000 A 
ATOM     11  C   UNL     1       0.543  18.019  19.111  0.00  0.00    +0.000 A 
ATOM     12  N   UNL     1       1.391  17.738  20.121  0.00  0.00    +0.000 NA
ATOM     13  C   UNL     1       1.400  16.454  20.546  0.00  0.00    +0.000 A 
ATOM     14 CL   UNL     1       2.533  16.163  21.813  0.00  0.00    +0.000 Cl
ENDBRANCH   5   8
BRANCH   4  15
ATOM     15  C   UNL     1       2.634  13.627  18.520  0.00  0.00    +0.000 C 
ATOM     16  N   UNL     1       3.322  14.462  18.108  0.00  0.00    +0.000 NA
ENDBRANCH   4  15
ENDBRANCH   1   2
BRANCH   1  19
ATOM     17  C   UNL     1       0.654   9.401  18.158  0.00  0.00    +0.000 C 
ATOM     18  O   UNL     1      -0.062   8.918  17.277  0.00  0.00    +0.000 OA
ATOM     19  N   UNL     1       0.049  10.018  19.219  0.00  0.00    +0.000 N 
ATOM     20  H   UNL     1      -0.960   9.981  19.180  0.00  0.00    +0.000 HD
BRANCH  17  21
ATOM     21  C   UNL     1       2.173   9.340  18.063  0.00  0.00    +0.000 C 
BRANCH  21  25
ATOM     22  C   UNL     1       3.832   5.394  18.767  0.00  0.00    +0.000 A 
ATOM     23  C   UNL     1       4.220   6.147  17.645  0.00  0.00    +0.000 A 
ATOM     24  C   UNL     1       3.691   7.418  17.408  0.00  0.00    +0.000 A 
ATOM     25  C   UNL     1       2.741   7.957  18.273  0.00  0.00    +0.000 A 
ATOM     26  C   UNL     1       2.277   7.158  19.326  0.00  0.00    +0.000 A 
ATOM     27  C   UNL     1       2.806   5.882  19.586  0.00  0.00    +0.000 A 
BRANCH  22  29
ATOM     28  C   UNL     1       3.886   3.064  18.378  0.00  0.00    +0.000 C 
ATOM     29  O   UNL     1       4.432   4.196  19.057  0.00  0.00    +0.000 OA
ENDBRANCH  22  29
BRANCH  27  30
ATOM     30  O   UNL     1       2.218   5.314  20.683  0.00  0.00    +0.000 OA
ATOM     31  C   UNL     1       1.158   4.389  20.520  0.00  0.00    +0.000 C 
ENDBRANCH  27  30
ENDBRANCH  21  25
ENDBRANCH  17  21
ENDBRANCH   1  19
BRANCH   1  32
ATOM     32  C   UNL     1       0.331   9.779  21.704  0.00  0.00    +0.000 C 
ATOM     33  C   UNL     1      -0.501  10.684  22.633  0.00  0.00    +0.000 C 
ATOM     34  C   UNL     1      -0.538   8.549  21.354  0.00  0.00    +0.000 C 
ATOM     35  C   UNL     1       1.580   9.296  22.466  0.00  0.00    +0.000 C 
ENDBRANCH   1  32
TORSDOF 9
ENDMDL
MODEL 2
REMARK VINA RESULT:      -6.1      3.584      6.261
REMARK  Name = 
REMARK  14 active torsions:
REMARK  status: ('A' for Active; 'I' for Inactive)
REMARK    1  A    between atoms: C_1  and  O_2
REMARK    2  A    between atoms: O_2  and  C_3
REMARK    3  A    between atoms: C_6  and  C_7
REMARK    4  A    between atoms: C_7  and  C_8
REMARK    5  A    between atoms: N_10  and  C_11
REMARK    6  A    between atoms: C_11  and  N_12
REMARK    7  A    between atoms: C_11  and  C_25
REMARK    8  A    between atoms: N_14  and  C_15
REMARK    9  A    between atoms: N_17  and  C_18
REMARK   10  A    between atoms: C_25  and  C_26
REMARK   11  A    between atoms: C_25  and  C_27
REMARK   12  A    between atoms: C_25  and  C_28
REMARK   13  A    between atoms: C_30  and  O_31
REMARK   14  A    between atoms: O_31  and  C_32
REMARK                            x       y       z     vdW  Elec       q    Type
REMARK                         _______ _______ _______ _____ _____    ______ ____
ROOT
ATOM      1  C   UNL     1       2.799   5.518  19.817  0.00  0.00    +0.000 C 
ENDROOT
BRANCH   1   2
ATOM      2  N   UNL     1       2.609   6.732  19.066  0.00  0.00    +0.000 N 
ATOM      3  C   UNL     1       1.965   7.824  19.588  0.00  0.00    +0.000 C 
ATOM      4  N   UNL     1       1.823   7.918  20.870  0.00  0.00    +0.000 NA
ATOM      5  N   UNL     1       1.501   8.599  18.560  0.00  0.00    +0.000 N 
ATOM      6  H   UNL     1       3.161   6.847  18.220  0.00  0.00    +0.000 HD
ATOM      7  H   UNL     1       0.958   8.096  17.865  0.00  0.00    +0.000 HD
BRANCH   5   8
ATOM      8  C   UNL     1       1.323   9.993  18.520  0.00  0.00    +0.000 A 
ATOM      9  C   UNL     1       2.401  10.870  18.382  0.00  0.00    +0.000 A 
ATOM     10  C   UNL     1       2.187  12.244  18.329  0.00  0.00    +0.000 A 
ATOM     11  C   UNL     1       0.886  12.715  18.400  0.00  0.00    +0.000 A 
ATOM     12  N   UNL     1      -0.194  11.917  18.532  0.00  0.00    +0.000 NA
ATOM     13  C   UNL     1       0.056  10.590  18.599  0.00  0.00    +0.000 A 
ATOM     14 CL   UNL     1      -1.368   9.637  18.803  0.00  0.00    +0.000 Cl
ENDBRANCH   5   8
BRANCH   4  15
ATOM     15  C   UNL     1       1.067   8.870  21.412  0.00  0.00    +0.000 C 
ATOM     16  N   UNL     1       0.427   9.700  21.905  0.00  0.00    +0.000 NA
ENDBRANCH   4  15
ENDBRANCH   1   2
BRANCH   1  19
ATOM     17  C   UNL     1       5.165   5.691  18.985  0.00  0.00    +0.000 C 
ATOM     18  O   UNL     1       6.355   5.535  19.272  0.00  0.00    +0.000 OA
ATOM     19  N   UNL     1       4.223   5.325  19.905  0.00  0.00    +0.000 N 
ATOM     20  H   UNL     1       4.621   4.983  20.769  0.00  0.00    +0.000 HD
BRANCH  17  21
ATOM     21  C   UNL     1       4.746   6.252  17.631  0.00  0.00    +0.000 C 
BRANCH  21  25
ATOM     22  C   UNL     1       6.196   4.034  14.198  0.00  0.00    +0.000 A 
ATOM     23  C   UNL     1       5.049   3.614  14.892  0.00  0.00    +0.000 A 
ATOM     24  C   UNL     1       4.574   4.319  15.999  0.00  0.00    +0.000 A 
ATOM     25  C   UNL     1       5.251   5.449  16.457  0.00  0.00    +0.000 A 
ATOM     26  C   UNL     1       6.453   5.799  15.830  0.00  0.00    +0.000 A 
ATOM     27  C   UNL     1       6.940   5.106  14.706  0.00  0.00    +0.000 A 
BRANCH  22  29
ATOM     28  C   UNL     1       5.548   3.091  12.130  0.00  0.00    +0.000 C 
ATOM     29  O   UNL     1       6.598   3.406  13.047  0.00  0.00    +0.000 OA
ENDBRANCH  22  29
BRANCH  27  30
ATOM     30  O   UNL     1       8.109   5.653  14.253  0.00  0.00    +0.000 OA
ATOM     31  C   UNL     1       8.323   5.820  12.863  0.00  0.00    +0.000 C 
ENDBRANCH  27  30
ENDBRANCH  21  25
ENDBRANCH  17  21
ENDBRANCH   1  19
BRANCH   1  32
ATOM     32  C   UNL     1       2.047   4.337  19.129  0.00  0.00    +0.000 C 
ATOM     33  C   UNL     1       2.992   3.129  18.987  0.00  0.00    +0.000 C 
ATOM     34  C   UNL     1       0.861   3.899  20.017  0.00  0.00    +0.000 C 
ATOM     35  C   UNL     1       1.504   4.713  17.736  0.00  0.00    +0.000 C 
ENDBRANCH   1  32
TORSDOF 9
ENDMDL
MODEL 3
REMARK VINA RESULT:      -6.1      0.758      1.864
REMARK  Name = 
REMARK  14 active torsions:
REMARK  status: ('A' for Active; 'I' for Inactive)
REMARK    1  A    between atoms: C_1  and  O_2
REMARK    2  A    between atoms: O_2  and  C_3
REMARK    3  A    between atoms: C_6  and  C_7
REMARK    4  A    between atoms: C_7  and  C_8
REMARK    5  A    between atoms: N_10  and  C_11
REMARK    6  A    between atoms: C_11  and  N_12
REMARK    7  A    between atoms: C_11  and  C_25
REMARK    8  A    between atoms: N_14  and  C_15
REMARK    9  A    between atoms: N_17  and  C_18
REMARK   10  A    between atoms: C_25  and  C_26
REMARK   11  A    between atoms: C_25  and  C_27
REMARK   12  A    between atoms: C_25  and  C_28
REMARK   13  A    between atoms: C_30  and  O_31
REMARK   14  A    between atoms: O_31  and  C_32
REMARK                            x       y       z     vdW  Elec       q    Type
REMARK                         _______ _______ _______ _____ _____    ______ ____
ROOT
ATOM      1  C   UNL     1       0.719  10.572  20.447  0.00  0.00    +0.000 C 
ENDROOT
BRANCH   1   2
ATOM      2  N   UNL     1       0.376  11.966  20.565  0.00  0.00    +0.000 N 
ATOM      3  C   UNL     1       1.128  12.958  19.994  0.00  0.00    +0.000 C 
ATOM      4  N   UNL     1       1.960  12.654  19.051  0.00  0.00    +0.000 NA
ATOM      5  N   UNL     1       0.883  14.135  20.649  0.00  0.00    +0.000 N 
ATOM      6  H   UNL     1      -0.562  12.187  20.889  0.00  0.00    +0.000 HD
ATOM      7  H   UNL     1       0.975  14.081  21.659  0.00  0.00    +0.000 HD
BRANCH   5   8
ATOM      8  C   UNL     1       0.917  15.447  20.144  0.00  0.00    +0.000 A 
ATOM      9  C   UNL     1       0.017  15.884  19.170  0.00  0.00    +0.000 A 
ATOM     10  C   UNL     1       0.069  17.196  18.704  0.00  0.00    +0.000 A 
ATOM     11  C   UNL     1       1.017  18.052  19.240  0.00  0.00    +0.000 A 
ATOM     12  N   UNL     1       1.910  17.687  20.183  0.00  0.00    +0.000 NA
ATOM     13  C   UNL     1       1.842  16.400  20.596  0.00  0.00    +0.000 A 
ATOM     14 CL   UNL     1       3.035  15.998  21.774  0.00  0.00    +0.000 Cl
ENDBRANCH   5   8
BRANCH   4  15
ATOM     15  C   UNL     1       2.826  13.549  18.580  0.00  0.00    +0.000 C 
ATOM     16  N   UNL     1       3.601  14.312  18.183  0.00  0.00    +0.000 NA
ENDBRANCH   4  15
ENDBRANCH   1   2
BRANCH   1  19
ATOM     17  C   UNL     1       0.688   9.439  18.203  0.00  0.00    +0.000 C 
ATOM     18  O   UNL     1      -0.025   9.033  17.282  0.00  0.00    +0.000 OA
ATOM     19  N   UNL     1       0.094  10.112  19.234  0.00  0.00    +0.000 N 
ATOM     20  H   UNL     1      -0.910  10.178  19.142  0.00  0.00    +0.000 HD
BRANCH  17  21
ATOM     21  C   UNL     1       2.197   9.224  18.187  0.00  0.00    +0.000 C 
BRANCH  21  25
ATOM     22  C   UNL     1       3.339   5.095  18.864  0.00  0.00    +0.000 A 
ATOM     23  C   UNL     1       2.642   5.818  19.847  0.00  0.00    +0.000 A 
ATOM     24  C   UNL     1       2.270   7.148  19.641  0.00  0.00    +0.000 A 
ATOM     25  C   UNL     1       2.611   7.797  18.455  0.00  0.00    +0.000 A 
ATOM     26  C   UNL     1       3.400   7.107  17.526  0.00  0.00    +0.000 A 
ATOM     27  C   UNL     1       3.773   5.764  17.713  0.00  0.00    +0.000 A 
BRANCH  22  29
ATOM     28  C   UNL     1       2.458   2.929  19.204  0.00  0.00    +0.000 C 
ATOM     29  O   UNL     1       3.606   3.759  19.023  0.00  0.00    +0.000 OA
ENDBRANCH  22  29
BRANCH  27  30
ATOM     30  O   UNL     1       4.511   5.302  16.658  0.00  0.00    +0.000 OA
ATOM     31  C   UNL     1       5.368   6.181  15.952  0.00  0.00    +0.000 C 
ENDBRANCH  27  30
ENDBRANCH  21  25
ENDBRANCH  17  21
ENDBRANCH   1  19
BRANCH   1  32
ATOM     32  C   UNL     1       0.265   9.797  21.722  0.00  0.00    +0.000 C 
ATOM     33  C   UNL     1      -0.581   8.575  21.316  0.00  0.00    +0.000 C 
ATOM     34  C   UNL     1       1.511   9.272  22.471  0.00  0.00    +0.000 C 
ATOM     35  C   UNL     1      -0.554  10.674  22.687  0.00  0.00    +0.000 C 
ENDBRANCH   1  32
TORSDOF 9
ENDMDL
MODEL 4
REMARK VINA RESULT:      -6.1      3.636      4.782
REMARK  Name = 
REMARK  14 active torsions:
REMARK  status: ('A' for Active; 'I' for Inactive)
REMARK    1  A    between atoms: C_1  and  O_2
REMARK    2  A    between atoms: O_2  and  C_3
REMARK    3  A    between atoms: C_6  and  C_7
REMARK    4  A    between atoms: C_7  and  C_8
REMARK    5  A    between atoms: N_10  and  C_11
REMARK    6  A    between atoms: C_11  and  N_12
REMARK    7  A    between atoms: C_11  and  C_25
REMARK    8  A    between atoms: N_14  and  C_15
REMARK    9  A    between atoms: N_17  and  C_18
REMARK   10  A    between atoms: C_25  and  C_26
REMARK   11  A    between atoms: C_25  and  C_27
REMARK   12  A    between atoms: C_25  and  C_28
REMARK   13  A    between atoms: C_30  and  O_31
REMARK   14  A    between atoms: O_31  and  C_32
REMARK                            x       y       z     vdW  Elec       q    Type
REMARK                         _______ _______ _______ _____ _____    ______ ____
ROOT
ATOM      1  C   UNL     1      -0.605  11.510  20.639  0.00  0.00    +0.000 C 
ENDROOT
BRANCH   1   2
ATOM      2  N   UNL     1      -1.071  12.800  21.080  0.00  0.00    +0.000 N 
ATOM      3  C   UNL     1      -2.021  12.942  22.056  0.00  0.00    +0.000 C 
ATOM      4  N   UNL     1      -2.267  11.946  22.845  0.00  0.00    +0.000 NA
ATOM      5  N   UNL     1      -2.611  14.170  21.927  0.00  0.00    +0.000 N 
ATOM      6  H   UNL     1      -0.517  13.609  20.813  0.00  0.00    +0.000 HD
ATOM      7  H   UNL     1      -2.950  14.377  20.992  0.00  0.00    +0.000 HD
BRANCH   5   8
ATOM      8  C   UNL     1      -3.161  14.992  22.926  0.00  0.00    +0.000 A 
ATOM      9  C   UNL     1      -2.371  15.568  23.922  0.00  0.00    +0.000 A 
ATOM     10  C   UNL     1      -2.947  16.391  24.887  0.00  0.00    +0.000 A 
ATOM     11  C   UNL     1      -4.309  16.634  24.823  0.00  0.00    +0.000 A 
ATOM     12  N   UNL     1      -5.122  16.107  23.884  0.00  0.00    +0.000 NA
ATOM     13  C   UNL     1      -4.530  15.298  22.976  0.00  0.00    +0.000 A 
ATOM     14 CL   UNL     1      -5.635  14.634  21.831  0.00  0.00    +0.000 Cl
ENDBRANCH   5   8
BRANCH   4  15
ATOM     15  C   UNL     1      -3.289  11.978  23.698  0.00  0.00    +0.000 C 
ATOM     16  N   UNL     1      -4.196  12.002  24.417  0.00  0.00    +0.000 NA
ENDBRANCH   4  15
ENDBRANCH   1   2
BRANCH   1  19
ATOM     17  C   UNL     1       0.916   9.882  21.805  0.00  0.00    +0.000 C 
ATOM     18  O   UNL     1       1.904   9.762  22.534  0.00  0.00    +0.000 OA
ATOM     19  N   UNL     1       0.456  11.142  21.540  0.00  0.00    +0.000 N 
ATOM     20  H   UNL     1       1.018  11.869  21.961  0.00  0.00    +0.000 HD
BRANCH  17  21
ATOM     21  C   UNL     1       0.204   8.663  21.231  0.00  0.00    +0.000 C 
BRANCH  21  25
ATOM     22  C   UNL     1       2.909   5.849  19.339  0.00  0.00    +0.000 A 
ATOM     23  C   UNL     1       2.709   7.130  18.796  0.00  0.00    +0.000 A 
ATOM     24  C   UNL     1       1.840   8.044  19.395  0.00  0.00    +0.000 A 
ATOM     25  C   UNL     1       1.127   7.689  20.540  0.00  0.00    +0.000 A 
ATOM     26  C   UNL     1       1.246   6.376  21.013  0.00  0.00    +0.000 A 
ATOM     27  C   UNL     1       2.126   5.447  20.428  0.00  0.00    +0.000 A 
BRANCH  22  29
ATOM     28  C   UNL     1       3.443   4.318  17.620  0.00  0.00    +0.000 C 
ATOM     29  O   UNL     1       3.844   4.995  18.813  0.00  0.00    +0.000 OA
ENDBRANCH  22  29
BRANCH  27  30
ATOM     30  O   UNL     1       2.090   4.248  21.084  0.00  0.00    +0.000 OA
ATOM     31  C   UNL     1       1.234   3.215  20.630  0.00  0.00    +0.000 C 
ENDBRANCH  27  30
ENDBRANCH  21  25
ENDBRANCH  17  21
ENDBRANCH   1  19
BRANCH   1  32
ATOM     32  C   UNL     1      -0.164  11.580  19.144  0.00  0.00    +0.000 C 
ATOM     33  C   UNL     1      -0.733  10.372  18.376  0.00  0.00    +0.000 C 
ATOM     34  C   UNL     1      -0.747  12.858  18.499  0.00  0.00    +0.000 C 
ATOM     35  C   UNL     1       1.367  11.601  18.979  0.00  0.00    +0.000 C 
ENDBRANCH   1  32
TORSDOF 9
ENDMDL
MODEL 5
REMARK VINA RESULT:      -6.0      4.316      5.465
REMARK  Name = 
REMARK  14 active torsions:
REMARK  status: ('A' for Active; 'I' for Inactive)
REMARK    1  A    between atoms: C_1  and  O_2
REMARK    2  A    between atoms: O_2  and  C_3
REMARK    3  A    between atoms: C_6  and  C_7
REMARK    4  A    between atoms: C_7  and  C_8
REMARK    5  A    between atoms: N_10  and  C_11
REMARK    6  A    between atoms: C_11  and  N_12
REMARK    7  A    between atoms: C_11  and  C_25
REMARK    8  A    between atoms: N_14  and  C_15
REMARK    9  A    between atoms: N_17  and  C_18
REMARK   10  A    between atoms: C_25  and  C_26
REMARK   11  A    between atoms: C_25  and  C_27
REMARK   12  A    between atoms: C_25  and  C_28
REMARK   13  A    between atoms: C_30  and  O_31
REMARK   14  A    between atoms: O_31  and  C_32
REMARK                            x       y       z     vdW  Elec       q    Type
REMARK                         _______ _______ _______ _____ _____    ______ ____
ROOT
ATOM      1  C   UNL     1      -2.660  11.784  18.734  0.00  0.00    +0.000 C 
ENDROOT
BRANCH   1   2
ATOM      2  N   UNL     1      -3.625  12.724  19.245  0.00  0.00    +0.000 N 
ATOM      3  C   UNL     1      -3.886  12.853  20.584  0.00  0.00    +0.000 C 
ATOM      4  N   UNL     1      -3.033  12.390  21.439  0.00  0.00    +0.000 NA
ATOM      5  N   UNL     1      -5.125  13.410  20.743  0.00  0.00    +0.000 N 
ATOM      6  H   UNL     1      -3.945  13.451  18.610  0.00  0.00    +0.000 HD
ATOM      7  H   UNL     1      -5.865  12.947  20.223  0.00  0.00    +0.000 HD
BRANCH   5   8
ATOM      8  C   UNL     1      -5.591  14.239  21.779  0.00  0.00    +0.000 A 
ATOM      9  C   UNL     1      -6.598  13.827  22.654  0.00  0.00    +0.000 A 
ATOM     10  C   UNL     1      -7.024  14.667  23.680  0.00  0.00    +0.000 A 
ATOM     11  C   UNL     1      -6.416  15.904  23.818  0.00  0.00    +0.000 A 
ATOM     12  N   UNL     1      -5.438  16.354  23.005  0.00  0.00    +0.000 NA
ATOM     13  C   UNL     1      -5.065  15.519  22.009  0.00  0.00    +0.000 A 
ATOM     14 CL   UNL     1      -3.838  16.176  20.991  0.00  0.00    +0.000 Cl
ENDBRANCH   5   8
BRANCH   4  15
ATOM     15  C   UNL     1      -3.316  12.344  22.739  0.00  0.00    +0.000 C 
ATOM     16  N   UNL     1      -3.589  12.311  23.864  0.00  0.00    +0.000 NA
ENDBRANCH   4  15
ENDBRANCH   1   2
BRANCH   1  19
ATOM     17  C   UNL     1      -0.220  12.382  18.845  0.00  0.00    +0.000 C 
ATOM     18  O   UNL     1       0.676  13.081  18.364  0.00  0.00    +0.000 OA
ATOM     19  N   UNL     1      -1.496  12.559  18.388  0.00  0.00    +0.000 N 
ATOM     20  H   UNL     1      -1.566  13.249  17.653  0.00  0.00    +0.000 HD
BRANCH  17  21
ATOM     21  C   UNL     1       0.076  11.362  19.939  0.00  0.00    +0.000 C 
BRANCH  21  25
ATOM     22  C   UNL     1       2.225   7.841  18.602  0.00  0.00    +0.000 A 
ATOM     23  C   UNL     1       1.952   8.896  17.715  0.00  0.00    +0.000 A 
ATOM     24  C   UNL     1       1.259  10.034  18.133  0.00  0.00    +0.000 A 
ATOM     25  C   UNL     1       0.799  10.133  19.445  0.00  0.00    +0.000 A 
ATOM     26  C   UNL     1       0.978   9.034  20.294  0.00  0.00    +0.000 A 
ATOM     27  C   UNL     1       1.683   7.885  19.893  0.00  0.00    +0.000 A 
BRANCH  22  29
ATOM     28  C   UNL     1       4.131   7.107  17.412  0.00  0.00    +0.000 C 
ATOM     29  O   UNL     1       3.000   6.776  18.220  0.00  0.00    +0.000 OA
ENDBRANCH  22  29
BRANCH  27  30
ATOM     30  O   UNL     1       1.753   6.966  20.903  0.00  0.00    +0.000 OA
ATOM     31  C   UNL     1       1.675   5.583  20.611  0.00  0.00    +0.000 C 
ENDBRANCH  27  30
ENDBRANCH  21  25
ENDBRANCH  17  21
ENDBRANCH   1  19
BRANCH   1  32
ATOM     32  C   UNL     1      -3.265  10.990  17.536  0.00  0.00    +0.000 C 
ATOM     33  C   UNL     1      -4.711  11.455  17.279  0.00  0.00    +0.000 C 
ATOM     34  C   UNL     1      -2.446  11.289  16.259  0.00  0.00    +0.000 C 
ATOM     35  C   UNL     1      -3.264   9.468  17.774  0.00  0.00    +0.000 C 
ENDBRANCH   1  32
TORSDOF 9
ENDMDL
MODEL 6
REMARK VINA RESULT:      -6.0      3.898      4.911
REMARK  Name = 
REMARK  14 active torsions:
REMARK  status: ('A' for Active; 'I' for Inactive)
REMARK    1  A    between atoms: C_1  and  O_2
REMARK    2  A    between atoms: O_2  and  C_3
REMARK    3  A    between atoms: C_6  and  C_7
REMARK    4  A    between atoms: C_7  and  C_8
REMARK    5  A    between atoms: N_10  and  C_11
REMARK    6  A    between atoms: C_11  and  N_12
REMARK    7  A    between atoms: C_11  and  C_25
REMARK    8  A    between atoms: N_14  and  C_15
REMARK    9  A    between atoms: N_17  and  C_18
REMARK   10  A    between atoms: C_25  and  C_26
REMARK   11  A    between atoms: C_25  and  C_27
REMARK   12  A    between atoms: C_25  and  C_28
REMARK   13  A    between atoms: C_30  and  O_31
REMARK   14  A    between atoms: O_31  and  C_32
REMARK                            x       y       z     vdW  Elec       q    Type
REMARK                         _______ _______ _______ _____ _____    ______ ____
ROOT
ATOM      1  C   UNL     1      -1.736  11.417  18.635  0.00  0.00    +0.000 C 
ENDROOT
BRANCH   1   2
ATOM      2  N   UNL     1      -2.590  12.518  18.999  0.00  0.00    +0.000 N 
ATOM      3  C   UNL     1      -2.956  12.766  20.296  0.00  0.00    +0.000 C 
ATOM      4  N   UNL     1      -2.271  12.235  21.256  0.00  0.00    +0.000 NA
ATOM      5  N   UNL     1      -4.105  13.509  20.299  0.00  0.00    +0.000 N 
ATOM      6  H   UNL     1      -2.732  13.245  18.302  0.00  0.00    +0.000 HD
ATOM      7  H   UNL     1      -4.853  13.130  19.727  0.00  0.00    +0.000 HD
BRANCH   5   8
ATOM      8  C   UNL     1      -4.535  14.459  21.242  0.00  0.00    +0.000 A 
ATOM      9  C   UNL     1      -3.868  15.673  21.423  0.00  0.00    +0.000 A 
ATOM     10  C   UNL     1      -4.332  16.598  22.354  0.00  0.00    +0.000 A 
ATOM     11  C   UNL     1      -5.472  16.293  23.078  0.00  0.00    +0.000 A 
ATOM     12  N   UNL     1      -6.160  15.140  22.945  0.00  0.00    +0.000 NA
ATOM     13  C   UNL     1      -5.668  14.258  22.045  0.00  0.00    +0.000 A 
ATOM     14 CL   UNL     1      -6.577  12.795  21.957  0.00  0.00    +0.000 Cl
ENDBRANCH   5   8
BRANCH   4  15
ATOM     15  C   UNL     1      -2.681  12.310  22.520  0.00  0.00    +0.000 C 
ATOM     16  N   UNL     1      -3.036  12.404  23.618  0.00  0.00    +0.000 NA
ENDBRANCH   4  15
ENDBRANCH   1   2
BRANCH   1  19
ATOM     17  C   UNL     1       0.763  11.558  18.872  0.00  0.00    +0.000 C 
ATOM     18  O   UNL     1       1.790  12.110  18.469  0.00  0.00    +0.000 OA
ATOM     19  N   UNL     1      -0.439  11.987  18.382  0.00  0.00    +0.000 N 
ATOM     20  H   UNL     1      -0.349  12.719  17.690  0.00  0.00    +0.000 HD
BRANCH  17  21
ATOM     21  C   UNL     1       0.821  10.442  19.909  0.00  0.00    +0.000 C 
BRANCH  21  25
ATOM     22  C   UNL     1       2.734   6.799  18.537  0.00  0.00    +0.000 A 
ATOM     23  C   UNL     1       2.591   7.903  17.679  0.00  0.00    +0.000 A 
ATOM     24  C   UNL     1       1.976   9.080  18.109  0.00  0.00    +0.000 A 
ATOM     25  C   UNL     1       1.464   9.174  19.402  0.00  0.00    +0.000 A 
ATOM     26  C   UNL     1       1.510   8.035  20.216  0.00  0.00    +0.000 A 
ATOM     27  C   UNL     1       2.137   6.845  19.803  0.00  0.00    +0.000 A 
BRANCH  22  29
ATOM     28  C   UNL     1       4.812   5.674  18.531  0.00  0.00    +0.000 C 
ATOM     29  O   UNL     1       3.435   5.686  18.150  0.00  0.00    +0.000 OA
ENDBRANCH  22  29
BRANCH  27  30
ATOM     30  O   UNL     1       2.083   5.890  20.780  0.00  0.00    +0.000 OA
ATOM     31  C   UNL     1       1.322   4.712  20.580  0.00  0.00    +0.000 C 
ENDBRANCH  27  30
ENDBRANCH  21  25
ENDBRANCH  17  21
ENDBRANCH   1  19
BRANCH   1  32
ATOM     32  C   UNL     1      -2.335  10.652  17.415  0.00  0.00    +0.000 C 
ATOM     33  C   UNL     1      -1.394   9.503  17.006  0.00  0.00    +0.000 C 
ATOM     34  C   UNL     1      -3.688  10.023  17.820  0.00  0.00    +0.000 C 
ATOM     35  C   UNL     1      -2.565  11.567  16.198  0.00  0.00    +0.000 C 
ENDBRANCH   1  32
TORSDOF 9
ENDMDL
MODEL 7
REMARK VINA RESULT:      -6.0      2.581      3.847
REMARK  Name = 
REMARK  14 active torsions:
REMARK  status: ('A' for Active; 'I' for Inactive)
REMARK    1  A    between atoms: C_1  and  O_2
REMARK    2  A    between atoms: O_2  and  C_3
REMARK    3  A    between atoms: C_6  and  C_7
REMARK    4  A    between atoms: C_7  and  C_8
REMARK    5  A    between atoms: N_10  and  C_11
REMARK    6  A    between atoms: C_11  and  N_12
REMARK    7  A    between atoms: C_11  and  C_25
REMARK    8  A    between atoms: N_14  and  C_15
REMARK    9  A    between atoms: N_17  and  C_18
REMARK   10  A    between atoms: C_25  and  C_26
REMARK   11  A    between atoms: C_25  and  C_27
REMARK   12  A    between atoms: C_25  and  C_28
REMARK   13  A    between atoms: C_30  and  O_31
REMARK   14  A    between atoms: O_31  and  C_32
REMARK                            x       y       z     vdW  Elec       q    Type
REMARK                         _______ _______ _______ _____ _____    ______ ____
ROOT
ATOM      1  C   UNL     1      -1.202  10.371  18.402  0.00  0.00    +0.000 C 
ENDROOT
BRANCH   1   2
ATOM      2  N   UNL     1      -1.412  11.579  19.158  0.00  0.00    +0.000 N 
ATOM      3  C   UNL     1      -1.276  11.625  20.520  0.00  0.00    +0.000 C 
ATOM      4  N   UNL     1      -0.622  10.683  21.119  0.00  0.00    +0.000 NA
ATOM      5  N   UNL     1      -1.985  12.691  21.002  0.00  0.00    +0.000 N 
ATOM      6  H   UNL     1      -1.441  12.453  18.638  0.00  0.00    +0.000 HD
ATOM      7  H   UNL     1      -2.949  12.734  20.685  0.00  0.00    +0.000 HD
BRANCH   5   8
ATOM      8  C   UNL     1      -1.725  13.482  22.135  0.00  0.00    +0.000 A 
ATOM      9  C   UNL     1      -2.620  13.555  23.204  0.00  0.00    +0.000 A 
ATOM     10  C   UNL     1      -2.322  14.335  24.318  0.00  0.00    +0.000 A 
ATOM     11  C   UNL     1      -1.117  15.017  24.346  0.00  0.00    +0.000 A 
ATOM     12  N   UNL     1      -0.213  14.983  23.345  0.00  0.00    +0.000 NA
ATOM     13  C   UNL     1      -0.546  14.230  22.272  0.00  0.00    +0.000 A 
ATOM     14 CL   UNL     1       0.641  14.264  21.021  0.00  0.00    +0.000 Cl
ENDBRANCH   5   8
BRANCH   4  15
ATOM     15  C   UNL     1      -0.602  10.595  22.448  0.00  0.00    +0.000 C 
ATOM     16  N   UNL     1      -0.556  10.514  23.602  0.00  0.00    +0.000 NA
ENDBRANCH   4  15
ENDBRANCH   1   2
BRANCH   1  19
ATOM     17  C   UNL     1       1.252   9.879  18.160  0.00  0.00    +0.000 C 
ATOM     18  O   UNL     1       2.253  10.039  17.457  0.00  0.00    +0.000 OA
ATOM     19  N   UNL     1       0.094  10.506  17.790  0.00  0.00    +0.000 N 
ATOM     20  H   UNL     1       0.180  11.027  16.928  0.00  0.00    +0.000 HD
BRANCH  17  21
ATOM     21  C   UNL     1       1.301   9.028  19.423  0.00  0.00    +0.000 C 
BRANCH  21  25
ATOM     22  C   UNL     1       3.406   5.260  18.999  0.00  0.00    +0.000 A 
ATOM     23  C   UNL     1       3.439   6.221  17.974  0.00  0.00    +0.000 A 
ATOM     24  C   UNL     1       2.764   7.437  18.099  0.00  0.00    +0.000 A 
ATOM     25  C   UNL     1       2.016   7.712  19.243  0.00  0.00    +0.000 A 
ATOM     26  C   UNL     1       1.896   6.707  20.211  0.00  0.00    +0.000 A 
ATOM     27  C   UNL     1       2.579   5.482  20.107  0.00  0.00    +0.000 A 
BRANCH  22  29
ATOM     28  C   UNL     1       3.839   3.255  17.827  0.00  0.00    +0.000 C 
ATOM     29  O   UNL     1       4.157   4.116  18.921  0.00  0.00    +0.000 OA
ENDBRANCH  22  29
BRANCH  27  30
ATOM     30  O   UNL     1       2.330   4.681  21.187  0.00  0.00    +0.000 OA
ATOM     31  C   UNL     1       1.532   3.520  21.042  0.00  0.00    +0.000 C 
ENDBRANCH  27  30
ENDBRANCH  21  25
ENDBRANCH  17  21
ENDBRANCH   1  19
BRANCH   1  32
ATOM     32  C   UNL     1      -2.362  10.169  17.378  0.00  0.00    +0.000 C 
ATOM     33  C   UNL     1      -1.861   9.342  16.179  0.00  0.00    +0.000 C 
ATOM     34  C   UNL     1      -3.503   9.371  18.050  0.00  0.00    +0.000 C 
ATOM     35  C   UNL     1      -2.934  11.503  16.862  0.00  0.00    +0.000 C 
ENDBRANCH   1  32
TORSDOF 9
ENDMDL
MODEL 8
REMARK VINA RESULT:      -6.0      1.216      2.248
REMARK  Name = 
REMARK  14 active torsions:
REMARK  status: ('A' for Active; 'I' for Inactive)
REMARK    1  A    between atoms: C_1  and  O_2
REMARK    2  A    between atoms: O_2  and  C_3
REMARK    3  A    between atoms: C_6  and  C_7
REMARK    4  A    between atoms: C_7  and  C_8
REMARK    5  A    between atoms: N_10  and  C_11
REMARK    6  A    between atoms: C_11  and  N_12
REMARK    7  A    between atoms: C_11  and  C_25
REMARK    8  A    between atoms: N_14  and  C_15
REMARK    9  A    between atoms: N_17  and  C_18
REMARK   10  A    between atoms: C_25  and  C_26
REMARK   11  A    between atoms: C_25  and  C_27
REMARK   12  A    between atoms: C_25  and  C_28
REMARK   13  A    between atoms: C_30  and  O_31
REMARK   14  A    between atoms: O_31  and  C_32
REMARK                            x       y       z     vdW  Elec       q    Type
REMARK                         _______ _______ _______ _____ _____    ______ ____
ROOT
ATOM      1  C   UNL     1       0.801  10.574  20.677  0.00  0.00    +0.000 C 
ENDROOT
BRANCH   1   2
ATOM      2  N   UNL     1       0.602  11.977  20.937  0.00  0.00    +0.000 N 
ATOM      3  C   UNL     1       1.379  12.947  20.361  0.00  0.00    +0.000 C 
ATOM      4  N   UNL     1       2.076  12.655  19.311  0.00  0.00    +0.000 NA
ATOM      5  N   UNL     1       1.314  14.080  21.125  0.00  0.00    +0.000 N 
ATOM      6  H   UNL     1      -0.273  12.248  21.379  0.00  0.00    +0.000 HD
ATOM      7  H   UNL     1       1.505  13.934  22.112  0.00  0.00    +0.000 HD
BRANCH   5   8
ATOM      8  C   UNL     1       1.416  15.423  20.720  0.00  0.00    +0.000 A 
ATOM      9  C   UNL     1       2.426  16.261  21.196  0.00  0.00    +0.000 A 
ATOM     10  C   UNL     1       2.507  17.581  20.760  0.00  0.00    +0.000 A 
ATOM     11  C   UNL     1       1.579  18.031  19.836  0.00  0.00    +0.000 A 
ATOM     12  N   UNL     1       0.584  17.268  19.339  0.00  0.00    +0.000 NA
ATOM     13  C   UNL     1       0.526  15.998  19.801  0.00  0.00    +0.000 A 
ATOM     14 CL   UNL     1      -0.791  15.095  19.148  0.00  0.00    +0.000 Cl
ENDBRANCH   5   8
BRANCH   4  15
ATOM     15  C   UNL     1       2.968  13.511  18.815  0.00  0.00    +0.000 C 
ATOM     16  N   UNL     1       3.743  14.269  18.408  0.00  0.00    +0.000 NA
ENDBRANCH   4  15
ENDBRANCH   1   2
BRANCH   1  19
ATOM     17  C   UNL     1       0.597   9.736  18.315  0.00  0.00    +0.000 C 
ATOM     18  O   UNL     1      -0.184   9.475  17.396  0.00  0.00    +0.000 OA
ATOM     19  N   UNL     1       0.090  10.292  19.457  0.00  0.00    +0.000 N 
ATOM     20  H   UNL     1      -0.914  10.405  19.435  0.00  0.00    +0.000 HD
BRANCH  17  21
ATOM     21  C   UNL     1       2.092   9.472  18.181  0.00  0.00    +0.000 C 
BRANCH  21  25
ATOM     22  C   UNL     1       3.168   5.318  18.810  0.00  0.00    +0.000 A 
ATOM     23  C   UNL     1       2.432   6.024  19.777  0.00  0.00    +0.000 A 
ATOM     24  C   UNL     1       2.081   7.362  19.586  0.00  0.00    +0.000 A 
ATOM     25  C   UNL     1       2.481   8.036  18.433  0.00  0.00    +0.000 A 
ATOM     26  C   UNL     1       3.307   7.361  17.526  0.00  0.00    +0.000 A 
ATOM     27  C   UNL     1       3.661   6.010  17.697  0.00  0.00    +0.000 A 
BRANCH  22  29
ATOM     28  C   UNL     1       2.475   3.116  18.307  0.00  0.00    +0.000 C 
ATOM     29  O   UNL     1       3.417   3.977  18.949  0.00  0.00    +0.000 OA
ENDBRANCH  22  29
BRANCH  27  30
ATOM     30  O   UNL     1       4.443   5.567  16.667  0.00  0.00    +0.000 OA
ATOM     31  C   UNL     1       5.631   6.259  16.329  0.00  0.00    +0.000 C 
ENDBRANCH  27  30
ENDBRANCH  21  25
ENDBRANCH  17  21
ENDBRANCH   1  19
BRANCH   1  32
ATOM     32  C   UNL     1       0.318   9.728  21.895  0.00  0.00    +0.000 C 
ATOM     33  C   UNL     1       1.534   9.238  22.704  0.00  0.00    +0.000 C 
ATOM     34  C   UNL     1      -0.535  10.616  22.828  0.00  0.00    +0.000 C 
ATOM     35  C   UNL     1      -0.524   8.510  21.472  0.00  0.00    +0.000 C 
ENDBRANCH   1  32
TORSDOF 9
ENDMDL
MODEL 9
REMARK VINA RESULT:      -5.9      1.025      1.294
REMARK  Name = 
REMARK  14 active torsions:
REMARK  status: ('A' for Active; 'I' for Inactive)
REMARK    1  A    between atoms: C_1  and  O_2
REMARK    2  A    between atoms: O_2  and  C_3
REMARK    3  A    between atoms: C_6  and  C_7
REMARK    4  A    between atoms: C_7  and  C_8
REMARK    5  A    between atoms: N_10  and  C_11
REMARK    6  A    between atoms: C_11  and  N_12
REMARK    7  A    between atoms: C_11  and  C_25
REMARK    8  A    between atoms: N_14  and  C_15
REMARK    9  A    between atoms: N_17  and  C_18
REMARK   10  A    between atoms: C_25  and  C_26
REMARK   11  A    between atoms: C_25  and  C_27
REMARK   12  A    between atoms: C_25  and  C_28
REMARK   13  A    between atoms: C_30  and  O_31
REMARK   14  A    between atoms: O_31  and  C_32
REMARK                            x       y       z     vdW  Elec       q    Type
REMARK                         _______ _______ _______ _____ _____    ______ ____
ROOT
ATOM      1  C   UNL     1       0.847  10.525  20.649  0.00  0.00    +0.000 C 
ENDROOT
BRANCH   1   2
ATOM      2  N   UNL     1       0.638  11.936  20.847  0.00  0.00    +0.000 N 
ATOM      3  C   UNL     1       1.403  12.886  20.223  0.00  0.00    +0.000 C 
ATOM      4  N   UNL     1       2.095  12.552  19.182  0.00  0.00    +0.000 NA
ATOM      5  N   UNL     1       1.334  14.052  20.936  0.00  0.00    +0.000 N 
ATOM      6  H   UNL     1      -0.236  12.220  21.283  0.00  0.00    +0.000 HD
ATOM      7  H   UNL     1       1.533  13.952  21.927  0.00  0.00    +0.000 HD
BRANCH   5   8
ATOM      8  C   UNL     1       1.422  15.375  20.469  0.00  0.00    +0.000 A 
ATOM      9  C   UNL     1       2.423  16.245  20.907  0.00  0.00    +0.000 A 
ATOM     10  C   UNL     1       2.491  17.545  20.412  0.00  0.00    +0.000 A 
ATOM     11  C   UNL     1       1.558  17.943  19.468  0.00  0.00    +0.000 A 
ATOM     12  N   UNL     1       0.572  17.147  19.006  0.00  0.00    +0.000 NA
ATOM     13  C   UNL     1       0.526  15.899  19.525  0.00  0.00    +0.000 A 
ATOM     14 CL   UNL     1      -0.781  14.954  18.915  0.00  0.00    +0.000 Cl
ENDBRANCH   5   8
BRANCH   4  15
ATOM     15  C   UNL     1       2.976  13.392  18.641  0.00  0.00    +0.000 C 
ATOM     16  N   UNL     1       3.749  14.131  18.197  0.00  0.00    +0.000 NA
ENDBRANCH   4  15
ENDBRANCH   1   2
BRANCH   1  19
ATOM     17  C   UNL     1       0.606   9.637  18.309  0.00  0.00    +0.000 C 
ATOM     18  O   UNL     1      -0.191   9.310  17.425  0.00  0.00    +0.000 OA
ATOM     19  N   UNL     1       0.109  10.178  19.462  0.00  0.00    +0.000 N 
ATOM     20  H   UNL     1      -0.901  10.225  19.479  0.00  0.00    +0.000 HD
BRANCH  17  21
ATOM     21  C   UNL     1       2.108   9.467  18.119  0.00  0.00    +0.000 C 
BRANCH  21  25
ATOM     22  C   UNL     1       3.512   5.404  18.687  0.00  0.00    +0.000 A 
ATOM     23  C   UNL     1       3.941   6.164  17.586  0.00  0.00    +0.000 A 
ATOM     24  C   UNL     1       3.494   7.473  17.392  0.00  0.00    +0.000 A 
ATOM     25  C   UNL     1       2.586   8.045  18.282  0.00  0.00    +0.000 A 
ATOM     26  C   UNL     1       2.079   7.246  19.314  0.00  0.00    +0.000 A 
ATOM     27  C   UNL     1       2.526   5.930  19.531  0.00  0.00    +0.000 A 
BRANCH  22  29
ATOM     28  C   UNL     1       4.160   3.315  17.791  0.00  0.00    +0.000 C 
ATOM     29  O   UNL     1       4.035   4.161  18.936  0.00  0.00    +0.000 OA
ENDBRANCH  22  29
BRANCH  27  30
ATOM     30  O   UNL     1       1.910   5.368  20.614  0.00  0.00    +0.000 OA
ATOM     31  C   UNL     1       1.084   4.230  20.450  0.00  0.00    +0.000 C 
ENDBRANCH  27  30
ENDBRANCH  21  25
ENDBRANCH  17  21
ENDBRANCH   1  19
BRANCH   1  32
ATOM     32  C   UNL     1       0.405   9.733  21.917  0.00  0.00    +0.000 C 
ATOM     33  C   UNL     1      -0.507  10.615  22.792  0.00  0.00    +0.000 C 
ATOM     34  C   UNL     1      -0.417   8.496  21.488  0.00  0.00    +0.000 C 
ATOM     35  C   UNL     1       1.600   9.257  22.764  0.00  0.00    +0.000 C 
ENDBRANCH   1  32
TORSDOF 9
ENDMDL
