MODEL 1
REMARK VINA RESULT:      -7.9      0.000      0.000
REMARK  Name = 
REMARK  6 active torsions:
REMARK  status: ('A' for Active; 'I' for Inactive)
REMARK    1  A    between atoms: C_1  and  N_2
REMARK    2  A    between atoms: C_11  and  C_12
REMARK    3  A    between atoms: C_12  and  C_13
REMARK    4  A    between atoms: C_13  and  C_14
REMARK    5  A    between atoms: N_22  and  C_23
REMARK    6  A    between atoms: C_23  and  C_24
REMARK                            x       y       z     vdW  Elec       q    Type
REMARK                         _______ _______ _______ _____ _____    ______ ____
ROOT
ATOM      1  C   UNL     1      -4.472  16.318  23.829  0.00  0.00    +0.000 C 
ATOM      2  N   UNL     1      -4.296  14.907  23.493  0.00  0.00    +0.000 NA
ATOM      3  C   UNL     1      -3.364  14.260  24.447  0.00  0.00    +0.000 C 
ATOM      4  C   UNL     1      -3.105  12.772  24.111  0.00  0.00    +0.000 C 
ATOM      5  N   UNL     1      -2.637  12.660  22.728  0.00  0.00    +0.000 N 
ATOM      6  C   UNL     1      -1.820  11.617  22.375  0.00  0.00    +0.000 A 
ATOM      7  N   UNL     1      -1.343  10.826  23.353  0.00  0.00    +0.000 NA
ATOM      8  C   UNL     1      -0.444   9.883  23.015  0.00  0.00    +0.000 A 
ATOM      9  C   UNL     1       0.031   9.693  21.741  0.00  0.00    +0.000 A 
ATOM     10  N   UNL     1       0.958   8.675  21.468  0.00  0.00    +0.000 NA
ATOM     11  C   UNL     1       1.426   8.605  20.257  0.00  0.00    +0.000 A 
ATOM     12  C   UNL     1       1.071   9.629  19.179  0.00  0.00    +0.000 A 
ATOM     13  O   UNL     1       1.711   9.628  18.134  0.00  0.00    +0.000 OA
ATOM     14  N   UNL     1       0.027  10.490  19.478  0.00  0.00    +0.000 N 
ATOM     15  C   UNL     1      -0.498  10.558  20.798  0.00  0.00    +0.000 A 
ATOM     16  N   UNL     1      -1.441  11.478  21.094  0.00  0.00    +0.000 NA
ATOM     17  C   UNL     1      -3.513  13.279  21.733  0.00  0.00    +0.000 C 
ATOM     18  C   UNL     1      -3.760  14.759  22.118  0.00  0.00    +0.000 C 
ENDROOT
BRANCH  11  19
ATOM     19  C   UNL     1       2.392   7.506  19.870  0.00  0.00    +0.000 C 
BRANCH  19  20
ATOM     20  C   UNL     1       1.694   6.360  19.137  0.00  0.00    +0.000 C 
BRANCH  20  21
ATOM     21  C   UNL     1       1.991   5.022  19.771  0.00  0.00    +0.000 A 
ATOM     22  C   UNL     1       3.261   4.447  19.642  0.00  0.00    +0.000 A 
ATOM     23  C   UNL     1       3.536   3.209  20.219  0.00  0.00    +0.000 A 
ATOM     24  C   UNL     1       2.543   2.528  20.924  0.00  0.00    +0.000 A 
ATOM     25  C   UNL     1       1.273   3.089  21.050  0.00  0.00    +0.000 A 
ATOM     26  C   UNL     1       0.997   4.331  20.473  0.00  0.00    +0.000 A 
ENDBRANCH  20  21
ENDBRANCH  19  20
ENDBRANCH  11  19
BRANCH  14  27
ATOM     27  C   UNL     1      -0.434  11.437  18.469  0.00  0.00    +0.000 C 
BRANCH  27  28
ATOM     28  C   UNL     1      -1.658  10.918  17.771  0.00  0.00    +0.000 A 
ATOM     29  C   UNL     1      -1.773   9.857  16.893  0.00  0.00    +0.000 A 
ATOM     30  C   UNL     1      -3.081   9.754  16.338  0.00  0.00    +0.000 A 
ATOM     31  C   UNL     1      -3.938  10.696  16.858  0.00  0.00    +0.000 A 
ATOM     32  S   UNL     1      -3.181  11.659  18.045  0.00  0.00    +0.000 S 
ENDBRANCH  27  28
ENDBRANCH  14  27
TORSDOF 5
ENDMDL
MODEL 2
REMARK VINA RESULT:      -7.8      1.530      2.341
REMARK  Name = 
REMARK  6 active torsions:
REMARK  status: ('A' for Active; 'I' for Inactive)
REMARK    1  A    between atoms: C_1  and  N_2
REMARK    2  A    between atoms: C_11  and  C_12
REMARK    3  A    between atoms: C_12  and  C_13
REMARK    4  A    between atoms: C_13  and  C_14
REMARK    5  A    between atoms: N_22  and  C_23
REMARK    6  A    between atoms: C_23  and  C_24
REMARK                            x       y       z     vdW  Elec       q    Type
REMARK                         _______ _______ _______ _____ _____    ______ ____
ROOT
ATOM      1  C   UNL     1      -3.689  16.579  23.657  0.00  0.00    +0.000 C 
ATOM      2  N   UNL     1      -3.656  15.152  23.346  0.00  0.00    +0.000 NA
ATOM      3  C   UNL     1      -2.803  14.429  24.319  0.00  0.00    +0.000 C 
ATOM      4  C   UNL     1      -2.696  12.917  24.011  0.00  0.00    +0.000 C 
ATOM      5  N   UNL     1      -2.231  12.734  22.634  0.00  0.00    +0.000 N 
ATOM      6  C   UNL     1      -1.523  11.606  22.306  0.00  0.00    +0.000 A 
ATOM      7  N   UNL     1      -1.137  10.787  23.301  0.00  0.00    +0.000 NA
ATOM      8  C   UNL     1      -0.338   9.752  22.988  0.00  0.00    +0.000 A 
ATOM      9  C   UNL     1       0.126   9.491  21.721  0.00  0.00    +0.000 A 
ATOM     10  N   UNL     1       0.945   8.380  21.474  0.00  0.00    +0.000 NA
ATOM     11  C   UNL     1       1.412   8.241  20.268  0.00  0.00    +0.000 A 
ATOM     12  C   UNL     1       1.173   9.277  19.170  0.00  0.00    +0.000 A 
ATOM     13  O   UNL     1       1.818   9.192  18.132  0.00  0.00    +0.000 OA
ATOM     14  N   UNL     1       0.220  10.245  19.445  0.00  0.00    +0.000 N 
ATOM     15  C   UNL     1      -0.305  10.390  20.759  0.00  0.00    +0.000 A 
ATOM     16  N   UNL     1      -1.150  11.407  21.031  0.00  0.00    +0.000 NA
ATOM     17  C   UNL     1      -3.031  13.421  21.621  0.00  0.00    +0.000 C 
ATOM     18  C   UNL     1      -3.128  14.925  21.979  0.00  0.00    +0.000 C 
ENDROOT
BRANCH  11  19
ATOM     19  C   UNL     1       2.264   7.042  19.909  0.00  0.00    +0.000 C 
BRANCH  19  20
ATOM     20  C   UNL     1       1.887   5.806  20.727  0.00  0.00    +0.000 C 
BRANCH  20  21
ATOM     21  C   UNL     1       2.075   4.531  19.941  0.00  0.00    +0.000 A 
ATOM     22  C   UNL     1       3.350   4.161  19.492  0.00  0.00    +0.000 A 
ATOM     23  C   UNL     1       3.525   2.988  18.759  0.00  0.00    +0.000 A 
ATOM     24  C   UNL     1       2.430   2.178  18.461  0.00  0.00    +0.000 A 
ATOM     25  C   UNL     1       1.157   2.543  18.895  0.00  0.00    +0.000 A 
ATOM     26  C   UNL     1       0.979   3.718  19.631  0.00  0.00    +0.000 A 
ENDBRANCH  20  21
ENDBRANCH  19  20
ENDBRANCH  11  19
BRANCH  14  27
ATOM     27  C   UNL     1      -0.133  11.217  18.417  0.00  0.00    +0.000 C 
BRANCH  27  28
ATOM     28  C   UNL     1       0.698  12.459  18.549  0.00  0.00    +0.000 A 
ATOM     29  C   UNL     1       2.073  12.594  18.501  0.00  0.00    +0.000 A 
ATOM     30  C   UNL     1       2.497  13.921  18.797  0.00  0.00    +0.000 A 
ATOM     31  C   UNL     1       1.434  14.770  18.997  0.00  0.00    +0.000 A 
ATOM     32  S   UNL     1      -0.062  13.982  18.774  0.00  0.00    +0.000 S 
ENDBRANCH  27  28
ENDBRANCH  14  27
TORSDOF 5
ENDMDL
MODEL 3
REMARK VINA RESULT:      -7.6      1.251      1.544
REMARK  Name = 
REMARK  6 active torsions:
REMARK  status: ('A' for Active; 'I' for Inactive)
REMARK    1  A    between atoms: C_1  and  N_2
REMARK    2  A    between atoms: C_11  and  C_12
REMARK    3  A    between atoms: C_12  and  C_13
REMARK    4  A    between atoms: C_13  and  C_14
REMARK    5  A    between atoms: N_22  and  C_23
REMARK    6  A    between atoms: C_23  and  C_24
REMARK                            x       y       z     vdW  Elec       q    Type
REMARK                         _______ _______ _______ _____ _____    ______ ____
ROOT
ATOM      1  C   UNL     1      -2.434  16.897  23.334  0.00  0.00    +0.000 C 
ATOM      2  N   UNL     1      -2.550  15.455  23.134  0.00  0.00    +0.000 NA
ATOM      3  C   UNL     1      -1.713  14.727  24.117  0.00  0.00    +0.000 C 
ATOM      4  C   UNL     1      -1.763  13.192  23.923  0.00  0.00    +0.000 C 
ATOM      5  N   UNL     1      -1.395  12.866  22.543  0.00  0.00    +0.000 N 
ATOM      6  C   UNL     1      -0.813  11.655  22.270  0.00  0.00    +0.000 A 
ATOM      7  N   UNL     1      -0.448  10.877  23.306  0.00  0.00    +0.000 NA
ATOM      8  C   UNL     1       0.234   9.750  23.036  0.00  0.00    +0.000 A 
ATOM      9  C   UNL     1       0.600   9.355  21.772  0.00  0.00    +0.000 A 
ATOM     10  N   UNL     1       1.298   8.155  21.572  0.00  0.00    +0.000 NA
ATOM     11  C   UNL     1       1.683   7.884  20.360  0.00  0.00    +0.000 A 
ATOM     12  C   UNL     1       1.479   8.855  19.198  0.00  0.00    +0.000 A 
ATOM     13  O   UNL     1       2.054   8.634  18.139  0.00  0.00    +0.000 OA
ATOM     14  N   UNL     1       0.636   9.928  19.442  0.00  0.00    +0.000 N 
ATOM     15  C   UNL     1       0.200  10.218  20.765  0.00  0.00    +0.000 A 
ATOM     16  N   UNL     1      -0.531  11.328  20.997  0.00  0.00    +0.000 NA
ATOM     17  C   UNL     1      -2.183  13.551  21.520  0.00  0.00    +0.000 C 
ATOM     18  C   UNL     1      -2.122  15.079  21.764  0.00  0.00    +0.000 C 
ENDROOT
BRANCH  11  19
ATOM     19  C   UNL     1       2.400   6.586  20.054  0.00  0.00    +0.000 C 
BRANCH  19  20
ATOM     20  C   UNL     1       1.464   5.380  20.144  0.00  0.00    +0.000 C 
BRANCH  20  21
ATOM     21  C   UNL     1       2.052   4.159  19.478  0.00  0.00    +0.000 A 
ATOM     22  C   UNL     1       1.528   2.889  19.747  0.00  0.00    +0.000 A 
ATOM     23  C   UNL     1       2.075   1.759  19.139  0.00  0.00    +0.000 A 
ATOM     24  C   UNL     1       3.153   1.886  18.264  0.00  0.00    +0.000 A 
ATOM     25  C   UNL     1       3.686   3.146  17.997  0.00  0.00    +0.000 A 
ATOM     26  C   UNL     1       3.139   4.279  18.605  0.00  0.00    +0.000 A 
ENDBRANCH  20  21
ENDBRANCH  19  20
ENDBRANCH  11  19
BRANCH  14  27
ATOM     27  C   UNL     1       0.316  10.851  18.360  0.00  0.00    +0.000 C 
BRANCH  27  28
ATOM     28  C   UNL     1      -1.100  10.663  17.899  0.00  0.00    +0.000 A 
ATOM     29  C   UNL     1      -1.639   9.638  17.146  0.00  0.00    +0.000 A 
ATOM     30  C   UNL     1      -3.001   9.879  16.802  0.00  0.00    +0.000 A 
ATOM     31  C   UNL     1      -3.476  11.043  17.358  0.00  0.00    +0.000 A 
ATOM     32  S   UNL     1      -2.302  11.810  18.331  0.00  0.00    +0.000 S 
ENDBRANCH  27  28
ENDBRANCH  14  27
TORSDOF 5
ENDMDL
MODEL 4
REMARK VINA RESULT:      -7.5      1.991      2.858
REMARK  Name = 
REMARK  6 active torsions:
REMARK  status: ('A' for Active; 'I' for Inactive)
REMARK    1  A    between atoms: C_1  and  N_2
REMARK    2  A    between atoms: C_11  and  C_12
REMARK    3  A    between atoms: C_12  and  C_13
REMARK    4  A    between atoms: C_13  and  C_14
REMARK    5  A    between atoms: N_22  and  C_23
REMARK    6  A    between atoms: C_23  and  C_24
REMARK                            x       y       z     vdW  Elec       q    Type
REMARK                         _______ _______ _______ _____ _____    ______ ____
ROOT
ATOM      1  C   UNL     1      -3.512  16.685  24.564  0.00  0.00    +0.000 C 
ATOM      2  N   UNL     1      -3.546  15.392  23.885  0.00  0.00    +0.000 NA
ATOM      3  C   UNL     1      -2.875  14.358  24.707  0.00  0.00    +0.000 C 
ATOM      4  C   UNL     1      -2.843  12.974  24.015  0.00  0.00    +0.000 C 
ATOM      5  N   UNL     1      -2.226  13.107  22.693  0.00  0.00    +0.000 N 
ATOM      6  C   UNL     1      -1.568  12.036  22.145  0.00  0.00    +0.000 A 
ATOM      7  N   UNL     1      -1.369  10.952  22.916  0.00  0.00    +0.000 NA
ATOM      8  C   UNL     1      -0.615   9.956  22.416  0.00  0.00    +0.000 A 
ATOM      9  C   UNL     1      -0.020   9.986  21.179  0.00  0.00    +0.000 A 
ATOM     10  N   UNL     1       0.739   8.899  20.723  0.00  0.00    +0.000 NA
ATOM     11  C   UNL     1       1.340   9.029  19.577  0.00  0.00    +0.000 A 
ATOM     12  C   UNL     1       1.315  10.333  18.781  0.00  0.00    +0.000 A 
ATOM     13  O   UNL     1       2.074  10.455  17.827  0.00  0.00    +0.000 OA
ATOM     14  N   UNL     1       0.409  11.291  19.211  0.00  0.00    +0.000 N 
ATOM     15  C   UNL     1      -0.262  11.143  20.456  0.00  0.00    +0.000 A 
ATOM     16  N   UNL     1      -1.057  12.137  20.907  0.00  0.00    +0.000 NA
ATOM     17  C   UNL     1      -2.843  14.113  21.828  0.00  0.00    +0.000 C 
ATOM     18  C   UNL     1      -2.872  15.474  22.567  0.00  0.00    +0.000 C 
ENDROOT
BRANCH  11  19
ATOM     19  C   UNL     1       2.139   7.883  18.995  0.00  0.00    +0.000 C 
BRANCH  19  20
ATOM     20  C   UNL     1       2.502   6.842  20.054  0.00  0.00    +0.000 C 
BRANCH  20  21
ATOM     21  C   UNL     1       2.002   5.465  19.685  0.00  0.00    +0.000 A 
ATOM     22  C   UNL     1       2.128   4.999  18.370  0.00  0.00    +0.000 A 
ATOM     23  C   UNL     1       1.660   3.732  18.025  0.00  0.00    +0.000 A 
ATOM     24  C   UNL     1       1.057   2.921  18.986  0.00  0.00    +0.000 A 
ATOM     25  C   UNL     1       0.920   3.381  20.295  0.00  0.00    +0.000 A 
ATOM     26  C   UNL     1       1.389   4.650  20.643  0.00  0.00    +0.000 A 
ENDBRANCH  20  21
ENDBRANCH  19  20
ENDBRANCH  11  19
BRANCH  14  27
ATOM     27  C   UNL     1       0.257  12.527  18.452  0.00  0.00    +0.000 C 
BRANCH  27  28
ATOM     28  C   UNL     1       1.124  13.612  19.023  0.00  0.00    +0.000 A 
ATOM     29  C   UNL     1       2.449  13.551  19.412  0.00  0.00    +0.000 A 
ATOM     30  C   UNL     1       2.888  14.758  20.027  0.00  0.00    +0.000 A 
ATOM     31  C   UNL     1       1.908  15.723  20.029  0.00  0.00    +0.000 A 
ATOM     32  S   UNL     1       0.489  15.191  19.245  0.00  0.00    +0.000 S 
ENDBRANCH  27  28
ENDBRANCH  14  27
TORSDOF 5
ENDMDL
MODEL 5
REMARK VINA RESULT:      -7.5      1.962      2.805
REMARK  Name = 
REMARK  6 active torsions:
REMARK  status: ('A' for Active; 'I' for Inactive)
REMARK    1  A    between atoms: C_1  and  N_2
REMARK    2  A    between atoms: C_11  and  C_12
REMARK    3  A    between atoms: C_12  and  C_13
REMARK    4  A    between atoms: C_13  and  C_14
REMARK    5  A    between atoms: N_22  and  C_23
REMARK    6  A    between atoms: C_23  and  C_24
REMARK                            x       y       z     vdW  Elec       q    Type
REMARK                         _______ _______ _______ _____ _____    ______ ____
ROOT
ATOM      1  C   UNL     1      -2.910  16.912  24.124  0.00  0.00    +0.000 C 
ATOM      2  N   UNL     1      -2.987  15.531  23.654  0.00  0.00    +0.000 NA
ATOM      3  C   UNL     1      -2.149  14.648  24.499  0.00  0.00    +0.000 C 
ATOM      4  C   UNL     1      -2.159  13.177  24.019  0.00  0.00    +0.000 C 
ATOM      5  N   UNL     1      -1.760  13.125  22.610  0.00  0.00    +0.000 N 
ATOM      6  C   UNL     1      -1.144  11.999  22.126  0.00  0.00    +0.000 A 
ATOM      7  N   UNL     1      -0.778  11.048  23.004  0.00  0.00    +0.000 NA
ATOM      8  C   UNL     1      -0.064  10.007  22.540  0.00  0.00    +0.000 A 
ATOM      9  C   UNL     1       0.332   9.865  21.233  0.00  0.00    +0.000 A 
ATOM     10  N   UNL     1       1.062   8.739  20.825  0.00  0.00    +0.000 NA
ATOM     11  C   UNL     1       1.473   8.710  19.591  0.00  0.00    +0.000 A 
ATOM     12  C   UNL     1       1.264   9.879  18.628  0.00  0.00    +0.000 A 
ATOM     13  O   UNL     1       1.861   9.873  17.559  0.00  0.00    +0.000 OA
ATOM     14  N   UNL     1       0.391  10.868  19.054  0.00  0.00    +0.000 N 
ATOM     15  C   UNL     1      -0.073  10.894  20.397  0.00  0.00    +0.000 A 
ATOM     16  N   UNL     1      -0.835  11.925  20.820  0.00  0.00    +0.000 NA
ATOM     17  C   UNL     1      -2.549  13.974  21.718  0.00  0.00    +0.000 C 
ATOM     18  C   UNL     1      -2.528  15.430  22.247  0.00  0.00    +0.000 C 
ENDROOT
BRANCH  11  19
ATOM     19  C   UNL     1       2.226   7.509  19.061  0.00  0.00    +0.000 C 
BRANCH  19  20
ATOM     20  C   UNL     1       2.488   6.470  20.152  0.00  0.00    +0.000 C 
BRANCH  20  21
ATOM     21  C   UNL     1       1.970   5.105  19.767  0.00  0.00    +0.000 A 
ATOM     22  C   UNL     1       1.560   4.203  20.757  0.00  0.00    +0.000 A 
ATOM     23  C   UNL     1       1.089   2.939  20.405  0.00  0.00    +0.000 A 
ATOM     24  C   UNL     1       1.028   2.561  19.064  0.00  0.00    +0.000 A 
ATOM     25  C   UNL     1       1.441   3.450  18.073  0.00  0.00    +0.000 A 
ATOM     26  C   UNL     1       1.914   4.717  18.424  0.00  0.00    +0.000 A 
ENDBRANCH  20  21
ENDBRANCH  19  20
ENDBRANCH  11  19
BRANCH  14  27
ATOM     27  C   UNL     1       0.067  11.972  18.158  0.00  0.00    +0.000 C 
BRANCH  27  28
ATOM     28  C   UNL     1       0.839  13.205  18.529  0.00  0.00    +0.000 A 
ATOM     29  C   UNL     1       0.370  14.410  19.016  0.00  0.00    +0.000 A 
ATOM     30  C   UNL     1       1.402  15.386  19.128  0.00  0.00    +0.000 A 
ATOM     31  C   UNL     1       2.633  14.877  18.788  0.00  0.00    +0.000 A 
ATOM     32  S   UNL     1       2.550  13.220  18.390  0.00  0.00    +0.000 S 
ENDBRANCH  27  28
ENDBRANCH  14  27
TORSDOF 5
ENDMDL
MODEL 6
REMARK VINA RESULT:      -7.4      1.306      1.333
REMARK  Name = 
REMARK  6 active torsions:
REMARK  status: ('A' for Active; 'I' for Inactive)
REMARK    1  A    between atoms: C_1  and  N_2
REMARK    2  A    between atoms: C_11  and  C_12
REMARK    3  A    between atoms: C_12  and  C_13
REMARK    4  A    between atoms: C_13  and  C_14
REMARK    5  A    between atoms: N_22  and  C_23
REMARK    6  A    between atoms: C_23  and  C_24
REMARK                            x       y       z     vdW  Elec       q    Type
REMARK                         _______ _______ _______ _____ _____    ______ ____
ROOT
ATOM      1  C   UNL     1      -3.497  16.906  23.533  0.00  0.00    +0.000 C 
ATOM      2  N   UNL     1      -3.493  15.466  23.286  0.00  0.00    +0.000 NA
ATOM      3  C   UNL     1      -2.594  14.779  24.244  0.00  0.00    +0.000 C 
ATOM      4  C   UNL     1      -2.517  13.252  24.000  0.00  0.00    +0.000 C 
ATOM      5  N   UNL     1      -2.128  13.003  22.610  0.00  0.00    +0.000 N 
ATOM      6  C   UNL     1      -1.448  11.854  22.297  0.00  0.00    +0.000 A 
ATOM      7  N   UNL     1      -1.016  11.076  23.306  0.00  0.00    +0.000 NA
ATOM      8  C   UNL     1      -0.243  10.019  22.998  0.00  0.00    +0.000 A 
ATOM      9  C   UNL     1       0.149   9.697  21.722  0.00  0.00    +0.000 A 
ATOM     10  N   UNL     1       0.944   8.567  21.482  0.00  0.00    +0.000 NA
ATOM     11  C   UNL     1       1.345   8.369  20.260  0.00  0.00    +0.000 A 
ATOM     12  C   UNL     1       1.056   9.357  19.131  0.00  0.00    +0.000 A 
ATOM     13  O   UNL     1       1.643   9.219  18.064  0.00  0.00    +0.000 OA
ATOM     14  N   UNL     1       0.127  10.347  19.412  0.00  0.00    +0.000 N 
ATOM     15  C   UNL     1      -0.325  10.556  20.743  0.00  0.00    +0.000 A 
ATOM     16  N   UNL     1      -1.146  11.594  21.013  0.00  0.00    +0.000 NA
ATOM     17  C   UNL     1      -2.976  13.653  21.610  0.00  0.00    +0.000 C 
ATOM     18  C   UNL     1      -3.041  15.172  21.904  0.00  0.00    +0.000 C 
ENDROOT
BRANCH  11  19
ATOM     19  C   UNL     1       2.166   7.146  19.911  0.00  0.00    +0.000 C 
BRANCH  19  20
ATOM     20  C   UNL     1       2.090   6.811  18.421  0.00  0.00    +0.000 C 
BRANCH  20  21
ATOM     21  C   UNL     1       2.676   5.452  18.119  0.00  0.00    +0.000 A 
ATOM     22  C   UNL     1       4.063   5.261  18.147  0.00  0.00    +0.000 A 
ATOM     23  C   UNL     1       4.607   4.010  17.860  0.00  0.00    +0.000 A 
ATOM     24  C   UNL     1       3.773   2.940  17.536  0.00  0.00    +0.000 A 
ATOM     25  C   UNL     1       2.392   3.124  17.497  0.00  0.00    +0.000 A 
ATOM     26  C   UNL     1       1.845   4.377  17.784  0.00  0.00    +0.000 A 
ENDBRANCH  20  21
ENDBRANCH  19  20
ENDBRANCH  11  19
BRANCH  14  27
ATOM     27  C   UNL     1      -0.272  11.275  18.360  0.00  0.00    +0.000 C 
BRANCH  27  28
ATOM     28  C   UNL     1      -1.556  10.833  17.719  0.00  0.00    +0.000 A 
ATOM     29  C   UNL     1      -1.771   9.798  16.828  0.00  0.00    +0.000 A 
ATOM     30  C   UNL     1      -3.110   9.772  16.343  0.00  0.00    +0.000 A 
ATOM     31  C   UNL     1      -3.889  10.743  16.926  0.00  0.00    +0.000 A 
ATOM     32  S   UNL     1      -3.024  11.642  18.090  0.00  0.00    +0.000 S 
ENDBRANCH  27  28
ENDBRANCH  14  27
TORSDOF 5
ENDMDL
MODEL 7
REMARK VINA RESULT:      -6.9      1.658      2.394
REMARK  Name = 
REMARK  6 active torsions:
REMARK  status: ('A' for Active; 'I' for Inactive)
REMARK    1  A    between atoms: C_1  and  N_2
REMARK    2  A    between atoms: C_11  and  C_12
REMARK    3  A    between atoms: C_12  and  C_13
REMARK    4  A    between atoms: C_13  and  C_14
REMARK    5  A    between atoms: N_22  and  C_23
REMARK    6  A    between atoms: C_23  and  C_24
REMARK                            x       y       z     vdW  Elec       q    Type
REMARK                         _______ _______ _______ _____ _____    ______ ____
ROOT
ATOM      1  C   UNL     1      -3.245  16.710  23.758  0.00  0.00    +0.000 C 
ATOM      2  N   UNL     1      -3.240  15.279  23.460  0.00  0.00    +0.000 NA
ATOM      3  C   UNL     1      -2.326  14.562  24.380  0.00  0.00    +0.000 C 
ATOM      4  C   UNL     1      -2.247  13.046  24.081  0.00  0.00    +0.000 C 
ATOM      5  N   UNL     1      -1.879  12.847  22.677  0.00  0.00    +0.000 N 
ATOM      6  C   UNL     1      -1.200  11.712  22.314  0.00  0.00    +0.000 A 
ATOM      7  N   UNL     1      -0.750  10.901  23.288  0.00  0.00    +0.000 NA
ATOM      8  C   UNL     1       0.021   9.858  22.931  0.00  0.00    +0.000 A 
ATOM      9  C   UNL     1       0.395   9.583  21.639  0.00  0.00    +0.000 A 
ATOM     10  N   UNL     1       1.190   8.465  21.348  0.00  0.00    +0.000 NA
ATOM     11  C   UNL     1       1.573   8.311  20.114  0.00  0.00    +0.000 A 
ATOM     12  C   UNL     1       1.264   9.337  19.025  0.00  0.00    +0.000 A 
ATOM     13  O   UNL     1       1.836   9.239  17.945  0.00  0.00    +0.000 OA
ATOM     14  N   UNL     1       0.337  10.313  19.354  0.00  0.00    +0.000 N 
ATOM     15  C   UNL     1      -0.096  10.474  20.699  0.00  0.00    +0.000 A 
ATOM     16  N   UNL     1      -0.916  11.498  21.018  0.00  0.00    +0.000 NA
ATOM     17  C   UNL     1      -2.743  13.529  21.714  0.00  0.00    +0.000 C 
ATOM     18  C   UNL     1      -2.808  15.036  22.063  0.00  0.00    +0.000 C 
ENDROOT
BRANCH  11  19
ATOM     19  C   UNL     1       2.393   7.104  19.710  0.00  0.00    +0.000 C 
BRANCH  19  20
ATOM     20  C   UNL     1       1.533   5.847  19.576  0.00  0.00    +0.000 C 
BRANCH  20  21
ATOM     21  C   UNL     1       2.277   4.606  20.010  0.00  0.00    +0.000 A 
ATOM     22  C   UNL     1       3.432   4.203  19.327  0.00  0.00    +0.000 A 
ATOM     23  C   UNL     1       4.117   3.054  19.720  0.00  0.00    +0.000 A 
ATOM     24  C   UNL     1       3.652   2.293  20.792  0.00  0.00    +0.000 A 
ATOM     25  C   UNL     1       2.498   2.682  21.471  0.00  0.00    +0.000 A 
ATOM     26  C   UNL     1       1.811   3.834  21.079  0.00  0.00    +0.000 A 
ENDBRANCH  20  21
ENDBRANCH  19  20
ENDBRANCH  11  19
BRANCH  14  27
ATOM     27  C   UNL     1      -0.082  11.276  18.342  0.00  0.00    +0.000 C 
BRANCH  27  28
ATOM     28  C   UNL     1       0.604  12.596  18.547  0.00  0.00    +0.000 A 
ATOM     29  C   UNL     1       0.048  13.825  18.850  0.00  0.00    +0.000 A 
ATOM     30  C   UNL     1       1.014  14.872  18.839  0.00  0.00    +0.000 A 
ATOM     31  C   UNL     1       2.283  14.402  18.594  0.00  0.00    +0.000 A 
ATOM     32  S   UNL     1       2.313  12.703  18.434  0.00  0.00    +0.000 S 
ENDBRANCH  27  28
ENDBRANCH  14  27
TORSDOF 5
ENDMDL
MODEL 8
REMARK VINA RESULT:      -6.9      2.239      8.420
REMARK  Name = 
REMARK  6 active torsions:
REMARK  status: ('A' for Active; 'I' for Inactive)
REMARK    1  A    between atoms: C_1  and  N_2
REMARK    2  A    between atoms: C_11  and  C_12
REMARK    3  A    between atoms: C_12  and  C_13
REMARK    4  A    between atoms: C_13  and  C_14
REMARK    5  A    between atoms: N_22  and  C_23
REMARK    6  A    between atoms: C_23  and  C_24
REMARK                            x       y       z     vdW  Elec       q    Type
REMARK                         _______ _______ _______ _____ _____    ______ ____
ROOT
ATOM      1  C   UNL     1       2.809   5.057  17.801  0.00  0.00    +0.000 C 
ATOM      2  N   UNL     1       2.807   6.201  18.710  0.00  0.00    +0.000 NA
ATOM      3  C   UNL     1       2.124   5.853  19.978  0.00  0.00    +0.000 C 
ATOM      4  C   UNL     1       2.054   7.045  20.963  0.00  0.00    +0.000 C 
ATOM      5  N   UNL     1       1.424   8.188  20.298  0.00  0.00    +0.000 N 
ATOM      6  C   UNL     1       0.737   9.108  21.047  0.00  0.00    +0.000 A 
ATOM      7  N   UNL     1       0.524   8.837  22.347  0.00  0.00    +0.000 NA
ATOM      8  C   UNL     1      -0.256   9.682  23.045  0.00  0.00    +0.000 A 
ATOM      9  C   UNL     1      -0.866  10.789  22.509  0.00  0.00    +0.000 A 
ATOM     10  N   UNL     1      -1.654  11.630  23.308  0.00  0.00    +0.000 NA
ATOM     11  C   UNL     1      -2.266  12.614  22.717  0.00  0.00    +0.000 A 
ATOM     12  C   UNL     1      -2.223  12.816  21.203  0.00  0.00    +0.000 A 
ATOM     13  O   UNL     1      -2.991  13.624  20.695  0.00  0.00    +0.000 OA
ATOM     14  N   UNL     1      -1.291  12.054  20.514  0.00  0.00    +0.000 N 
ATOM     15  C   UNL     1      -0.609  10.988  21.162  0.00  0.00    +0.000 A 
ATOM     16  N   UNL     1       0.213  10.190  20.447  0.00  0.00    +0.000 NA
ATOM     17  C   UNL     1       2.051   8.585  19.038  0.00  0.00    +0.000 C 
ATOM     18  C   UNL     1       2.119   7.360  18.092  0.00  0.00    +0.000 C 
ENDROOT
BRANCH  11  19
ATOM     19  C   UNL     1      -3.096  13.594  23.518  0.00  0.00    +0.000 C 
BRANCH  19  20
ATOM     20  C   UNL     1      -4.369  12.950  24.069  0.00  0.00    +0.000 C 
BRANCH  20  21
ATOM     21  C   UNL     1      -5.594  13.368  23.291  0.00  0.00    +0.000 A 
ATOM     22  C   UNL     1      -5.931  12.711  22.101  0.00  0.00    +0.000 A 
ATOM     23  C   UNL     1      -7.056  13.100  21.377  0.00  0.00    +0.000 A 
ATOM     24  C   UNL     1      -7.852  14.152  21.829  0.00  0.00    +0.000 A 
ATOM     25  C   UNL     1      -7.519  14.817  23.008  0.00  0.00    +0.000 A 
ATOM     26  C   UNL     1      -6.392  14.428  23.736  0.00  0.00    +0.000 A 
ENDBRANCH  20  21
ENDBRANCH  19  20
ENDBRANCH  11  19
BRANCH  14  27
ATOM     27  C   UNL     1      -1.123  12.251  19.079  0.00  0.00    +0.000 C 
BRANCH  27  28
ATOM     28  C   UNL     1      -2.114  11.429  18.308  0.00  0.00    +0.000 A 
ATOM     29  C   UNL     1      -3.475  11.623  18.160  0.00  0.00    +0.000 A 
ATOM     30  C   UNL     1      -4.099  10.553  17.455  0.00  0.00    +0.000 A 
ATOM     31  C   UNL     1      -3.189   9.613  17.032  0.00  0.00    +0.000 A 
ATOM     32  S   UNL     1      -1.589  10.047  17.436  0.00  0.00    +0.000 S 
ENDBRANCH  27  28
ENDBRANCH  14  27
TORSDOF 5
ENDMDL
MODEL 9
REMARK VINA RESULT:      -6.7      1.987      8.661
REMARK  Name = 
REMARK  6 active torsions:
REMARK  status: ('A' for Active; 'I' for Inactive)
REMARK    1  A    between atoms: C_1  and  N_2
REMARK    2  A    between atoms: C_11  and  C_12
REMARK    3  A    between atoms: C_12  and  C_13
REMARK    4  A    between atoms: C_13  and  C_14
REMARK    5  A    between atoms: N_22  and  C_23
REMARK    6  A    between atoms: C_23  and  C_24
REMARK                            x       y       z     vdW  Elec       q    Type
REMARK                         _______ _______ _______ _____ _____    ______ ____
ROOT
ATOM      1  C   UNL     1       2.616   4.767  17.673  0.00  0.00    +0.000 C 
ATOM      2  N   UNL     1       2.720   5.904  18.585  0.00  0.00    +0.000 NA
ATOM      3  C   UNL     1       2.042   5.602  19.868  0.00  0.00    +0.000 C 
ATOM      4  C   UNL     1       2.084   6.790  20.859  0.00  0.00    +0.000 C 
ATOM      5  N   UNL     1       1.525   7.980  20.212  0.00  0.00    +0.000 N 
ATOM      6  C   UNL     1       0.925   8.945  20.980  0.00  0.00    +0.000 A 
ATOM      7  N   UNL     1       0.723   8.684  22.284  0.00  0.00    +0.000 NA
ATOM      8  C   UNL     1       0.024   9.580  23.003  0.00  0.00    +0.000 A 
ATOM      9  C   UNL     1      -0.515  10.732  22.485  0.00  0.00    +0.000 A 
ATOM     10  N   UNL     1      -1.219  11.625  23.306  0.00  0.00    +0.000 NA
ATOM     11  C   UNL     1      -1.770  12.654  22.732  0.00  0.00    +0.000 A 
ATOM     12  C   UNL     1      -1.747  12.860  21.218  0.00  0.00    +0.000 A 
ATOM     13  O   UNL     1      -2.466  13.725  20.732  0.00  0.00    +0.000 OA
ATOM     14  N   UNL     1      -0.891  12.035  20.505  0.00  0.00    +0.000 N 
ATOM     15  C   UNL     1      -0.274  10.918  21.133  0.00  0.00    +0.000 A 
ATOM     16  N   UNL     1       0.469  10.065  20.396  0.00  0.00    +0.000 NA
ATOM     17  C   UNL     1       2.150   8.335  18.939  0.00  0.00    +0.000 C 
ATOM     18  C   UNL     1       2.105   7.114  17.988  0.00  0.00    +0.000 C 
ENDROOT
BRANCH  11  19
ATOM     19  C   UNL     1      -2.507  13.689  23.556  0.00  0.00    +0.000 C 
BRANCH  19  20
ATOM     20  C   UNL     1      -3.852  13.167  24.061  0.00  0.00    +0.000 C 
BRANCH  20  21
ATOM     21  C   UNL     1      -4.962  14.168  23.846  0.00  0.00    +0.000 A 
ATOM     22  C   UNL     1      -4.781  15.509  24.209  0.00  0.00    +0.000 A 
ATOM     23  C   UNL     1      -5.806  16.434  24.019  0.00  0.00    +0.000 A 
ATOM     24  C   UNL     1      -7.023  16.029  23.472  0.00  0.00    +0.000 A 
ATOM     25  C   UNL     1      -7.215  14.695  23.116  0.00  0.00    +0.000 A 
ATOM     26  C   UNL     1      -6.188  13.766  23.305  0.00  0.00    +0.000 A 
ENDBRANCH  20  21
ENDBRANCH  19  20
ENDBRANCH  11  19
BRANCH  14  27
ATOM     27  C   UNL     1      -0.742  12.226  19.067  0.00  0.00    +0.000 C 
BRANCH  27  28
ATOM     28  C   UNL     1      -1.679  11.330  18.310  0.00  0.00    +0.000 A 
ATOM     29  C   UNL     1      -1.392  10.191  17.581  0.00  0.00    +0.000 A 
ATOM     30  C   UNL     1      -2.535   9.685  16.898  0.00  0.00    +0.000 A 
ATOM     31  C   UNL     1      -3.668  10.412  17.178  0.00  0.00    +0.000 A 
ATOM     32  S   UNL     1      -3.363  11.660  18.300  0.00  0.00    +0.000 S 
ENDBRANCH  27  28
ENDBRANCH  14  27
TORSDOF 5
ENDMDL
