MODEL 1
REMARK VINA RESULT:      -8.3      0.000      0.000
REMARK  Name = 
REMARK  7 active torsions:
REMARK  status: ('A' for Active; 'I' for Inactive)
REMARK    1  A    between atoms: C_2  and  O_3
REMARK    2  A    between atoms: C_2  and  C_4
REMARK    3  A    between atoms: C_4  and  N_5
REMARK    4  A    between atoms: C_6  and  C_8
REMARK    5  A    between atoms: C_8  and  O_9
REMARK    6  A    between atoms: O_9  and  C_10
REMARK    7  A    between atoms: C_13  and  C_14
REMARK                            x       y       z     vdW  Elec       q    Type
REMARK                         _______ _______ _______ _____ _____    ______ ____
ROOT
ATOM      1  C   UNL     1      -0.304   9.502  20.400  0.00  0.00    +0.000 C 
ATOM      2  C   UNL     1      -0.670   9.291  21.912  0.00  0.00    +0.000 C 
ATOM      3  C   UNL     1      -0.336  10.418  22.939  0.00  0.00    +0.000 C 
ATOM      4  C   UNL     1      -0.519  11.795  22.306  0.00  0.00    +0.000 C 
ATOM      5  C   UNL     1       0.383  11.824  21.072  0.00  0.00    +0.000 C 
ATOM      6  C   UNL     1      -0.209  10.976  19.978  0.00  0.00    +0.000 C 
ATOM      7  O   UNL     1      -0.167  12.955  23.043  0.00  0.00    +0.000 OA
ATOM      8  O   UNL     1      -1.021  13.969  22.354  0.00  0.00    +0.000 OA
ATOM      9  C   UNL     1      -2.267  13.277  22.317  0.00  0.00    +0.000 C 
ATOM     10  O   UNL     1      -1.925  11.913  22.049  0.00  0.00    +0.000 OA
ATOM     11  C   UNL     1      -2.905  13.523  23.708  0.00  0.00    +0.000 C 
ATOM     12  C   UNL     1      -4.169  12.679  23.886  0.00  0.00    +0.000 C 
ATOM     13  C   UNL     1      -5.196  13.054  22.809  0.00  0.00    +0.000 C 
ATOM     14  C   UNL     1      -5.557  14.543  22.954  0.00  0.00    +0.000 C 
ATOM     15  C   UNL     1      -4.302  15.411  22.751  0.00  0.00    +0.000 C 
ATOM     16  C   UNL     1      -3.262  15.030  23.819  0.00  0.00    +0.000 C 
ATOM     17  C   UNL     1      -3.712  15.151  21.355  0.00  0.00    +0.000 C 
ATOM     18  C   UNL     1      -3.298  13.680  21.230  0.00  0.00    +0.000 C 
ATOM     19  C   UNL     1      -4.580  12.813  21.415  0.00  0.00    +0.000 C 
ENDROOT
BRANCH   1  23
ATOM     20  C   UNL     1       2.943   7.120  18.689  0.00  0.00    +0.000 A 
ATOM     21  C   UNL     1       2.438   6.867  19.954  0.00  0.00    +0.000 A 
ATOM     22  C   UNL     1       1.425   7.683  20.469  0.00  0.00    +0.000 A 
ATOM     23  C   UNL     1       0.863   8.760  19.740  0.00  0.00    +0.000 A 
ATOM     24  C   UNL     1       1.349   8.981  18.453  0.00  0.00    +0.000 A 
ATOM     25  C   UNL     1       2.389   8.171  17.941  0.00  0.00    +0.000 A 
BRANCH  20  26
ATOM     26  O   UNL     1       4.021   6.468  18.152  0.00  0.00    +0.000 OA
BRANCH  26  27
ATOM     27  C   UNL     1       3.770   5.285  17.401  0.00  0.00    +0.000 C 
BRANCH  27  29
ATOM     28  N   UNL     1       3.287   3.506  19.077  0.00  0.00    +0.000 N 
ATOM     29  C   UNL     1       2.851   4.183  17.965  0.00  0.00    +0.000 C 
ATOM     30  O   UNL     1       1.771   3.916  17.436  0.00  0.00    +0.000 OA
ATOM     31  H   UNL     1       4.190   3.733  19.492  0.00  0.00    +0.000 HD
BRANCH  28  32
ATOM     32  C   UNL     1       2.470   2.454  19.666  0.00  0.00    +0.000 C 
BRANCH  32  34
ATOM     33  O   UNL     1       1.858   2.790  21.988  0.00  0.00    +0.000 OA
ATOM     34  C   UNL     1       1.604   2.949  20.804  0.00  0.00    +0.000 C 
BRANCH  34  35
ATOM     35  O   UNL     1       0.486   3.607  20.385  0.00  0.00    +0.000 OA
ATOM     36  H   UNL     1       0.470   3.794  19.426  0.00  0.00    +0.000 HD
ENDBRANCH  34  35
ENDBRANCH  32  34
ENDBRANCH  28  32
ENDBRANCH  27  29
ENDBRANCH  26  27
ENDBRANCH  20  26
ENDBRANCH   1  23
TORSDOF 7
ENDMDL
MODEL 2
REMARK VINA RESULT:      -8.1      1.021      1.199
REMARK  Name = 
REMARK  7 active torsions:
REMARK  status: ('A' for Active; 'I' for Inactive)
REMARK    1  A    between atoms: C_2  and  O_3
REMARK    2  A    between atoms: C_2  and  C_4
REMARK    3  A    between atoms: C_4  and  N_5
REMARK    4  A    between atoms: C_6  and  C_8
REMARK    5  A    between atoms: C_8  and  O_9
REMARK    6  A    between atoms: O_9  and  C_10
REMARK    7  A    between atoms: C_13  and  C_14
REMARK                            x       y       z     vdW  Elec       q    Type
REMARK                         _______ _______ _______ _____ _____    ______ ____
ROOT
ATOM      1  C   UNL     1      -0.163   9.516  20.227  0.00  0.00    +0.000 C 
ATOM      2  C   UNL     1      -0.528   9.283  21.735  0.00  0.00    +0.000 C 
ATOM      3  C   UNL     1      -0.200  10.399  22.777  0.00  0.00    +0.000 C 
ATOM      4  C   UNL     1      -0.388  11.783  22.162  0.00  0.00    +0.000 C 
ATOM      5  C   UNL     1       0.514  11.832  20.929  0.00  0.00    +0.000 C 
ATOM      6  C   UNL     1      -0.074  10.996  19.824  0.00  0.00    +0.000 C 
ATOM      7  O   UNL     1      -0.041  12.934  22.914  0.00  0.00    +0.000 OA
ATOM      8  O   UNL     1      -0.900  13.954  22.239  0.00  0.00    +0.000 OA
ATOM      9  C   UNL     1      -2.143  13.256  22.193  0.00  0.00    +0.000 C 
ATOM     10  O   UNL     1      -1.795  11.898  21.907  0.00  0.00    +0.000 OA
ATOM     11  C   UNL     1      -2.782  13.481  23.587  0.00  0.00    +0.000 C 
ATOM     12  C   UNL     1      -4.042  12.629  23.753  0.00  0.00    +0.000 C 
ATOM     13  C   UNL     1      -5.071  13.014  22.681  0.00  0.00    +0.000 C 
ATOM     14  C   UNL     1      -5.438  14.499  22.845  0.00  0.00    +0.000 C 
ATOM     15  C   UNL     1      -4.188  15.375  22.654  0.00  0.00    +0.000 C 
ATOM     16  C   UNL     1      -3.146  14.985  23.717  0.00  0.00    +0.000 C 
ATOM     17  C   UNL     1      -3.596  15.137  21.256  0.00  0.00    +0.000 C 
ATOM     18  C   UNL     1      -3.176  13.669  21.111  0.00  0.00    +0.000 C 
ATOM     19  C   UNL     1      -4.454  12.794  21.284  0.00  0.00    +0.000 C 
ENDROOT
BRANCH   1  23
ATOM     20  C   UNL     1       3.091   7.169  18.479  0.00  0.00    +0.000 A 
ATOM     21  C   UNL     1       2.570   6.881  19.730  0.00  0.00    +0.000 A 
ATOM     22  C   UNL     1       1.556   7.686  20.259  0.00  0.00    +0.000 A 
ATOM     23  C   UNL     1       1.008   8.788  19.557  0.00  0.00    +0.000 A 
ATOM     24  C   UNL     1       1.509   9.045  18.282  0.00  0.00    +0.000 A 
ATOM     25  C   UNL     1       2.550   8.246  17.757  0.00  0.00    +0.000 A 
BRANCH  20  26
ATOM     26  O   UNL     1       4.172   6.528  17.934  0.00  0.00    +0.000 OA
BRANCH  26  27
ATOM     27  C   UNL     1       4.824   5.543  18.729  0.00  0.00    +0.000 C 
BRANCH  27  29
ATOM     28  N   UNL     1       3.247   3.787  17.932  0.00  0.00    +0.000 N 
ATOM     29  C   UNL     1       4.308   4.090  18.748  0.00  0.00    +0.000 C 
ATOM     30  O   UNL     1       4.824   3.237  19.472  0.00  0.00    +0.000 OA
ATOM     31  H   UNL     1       2.826   4.509  17.350  0.00  0.00    +0.000 HD
BRANCH  28  32
ATOM     32  C   UNL     1       2.709   2.433  17.896  0.00  0.00    +0.000 C 
BRANCH  32  34
ATOM     33  O   UNL     1       0.365   2.145  18.446  0.00  0.00    +0.000 OA
ATOM     34  C   UNL     1       1.525   2.245  18.818  0.00  0.00    +0.000 C 
BRANCH  34  35
ATOM     35  O   UNL     1       1.869   2.194  20.137  0.00  0.00    +0.000 OA
ATOM     36  H   UNL     1       1.155   2.470  20.744  0.00  0.00    +0.000 HD
ENDBRANCH  34  35
ENDBRANCH  32  34
ENDBRANCH  28  32
ENDBRANCH  27  29
ENDBRANCH  26  27
ENDBRANCH  20  26
ENDBRANCH   1  23
TORSDOF 7
ENDMDL
MODEL 3
REMARK VINA RESULT:      -8.1      1.394      1.484
REMARK  Name = 
REMARK  7 active torsions:
REMARK  status: ('A' for Active; 'I' for Inactive)
REMARK    1  A    between atoms: C_2  and  O_3
REMARK    2  A    between atoms: C_2  and  C_4
REMARK    3  A    between atoms: C_4  and  N_5
REMARK    4  A    between atoms: C_6  and  C_8
REMARK    5  A    between atoms: C_8  and  O_9
REMARK    6  A    between atoms: O_9  and  C_10
REMARK    7  A    between atoms: C_13  and  C_14
REMARK                            x       y       z     vdW  Elec       q    Type
REMARK                         _______ _______ _______ _____ _____    ______ ____
ROOT
ATOM      1  C   UNL     1      -0.512   9.879  20.385  0.00  0.00    +0.000 C 
ATOM      2  C   UNL     1      -0.770   9.533  21.893  0.00  0.00    +0.000 C 
ATOM      3  C   UNL     1      -0.444  10.601  22.985  0.00  0.00    +0.000 C 
ATOM      4  C   UNL     1      -0.750  12.006  22.472  0.00  0.00    +0.000 C 
ATOM      5  C   UNL     1       0.071  12.185  21.195  0.00  0.00    +0.000 C 
ATOM      6  C   UNL     1      -0.534  11.384  20.074  0.00  0.00    +0.000 C 
ATOM      7  O   UNL     1      -0.425  13.128  23.276  0.00  0.00    +0.000 OA
ATOM      8  O   UNL     1      -1.381  14.132  22.719  0.00  0.00    +0.000 OA
ATOM      9  C   UNL     1      -2.583  13.363  22.698  0.00  0.00    +0.000 C 
ATOM     10  O   UNL     1      -2.174  12.049  22.306  0.00  0.00    +0.000 OA
ATOM     11  C   UNL     1      -3.148  13.462  24.138  0.00  0.00    +0.000 C 
ATOM     12  C   UNL     1      -4.344  12.526  24.321  0.00  0.00    +0.000 C 
ATOM     13  C   UNL     1      -5.456  12.911  23.336  0.00  0.00    +0.000 C 
ATOM     14  C   UNL     1      -5.898  14.358  23.617  0.00  0.00    +0.000 C 
ATOM     15  C   UNL     1      -4.715  15.320  23.412  0.00  0.00    +0.000 C 
ATOM     16  C   UNL     1      -3.590  14.930  24.386  0.00  0.00    +0.000 C 
ATOM     17  C   UNL     1      -4.196  15.204  21.969  0.00  0.00    +0.000 C 
ATOM     18  C   UNL     1      -3.701  13.776  21.706  0.00  0.00    +0.000 C 
ATOM     19  C   UNL     1      -4.914  12.816  21.895  0.00  0.00    +0.000 C 
ENDROOT
BRANCH   1  23
ATOM     20  C   UNL     1       2.772   7.854  18.320  0.00  0.00    +0.000 A 
ATOM     21  C   UNL     1       2.386   7.502  19.603  0.00  0.00    +0.000 A 
ATOM     22  C   UNL     1       1.355   8.207  20.232  0.00  0.00    +0.000 A 
ATOM     23  C   UNL     1       0.656   9.267  19.604  0.00  0.00    +0.000 A 
ATOM     24  C   UNL     1       1.023   9.587  18.298  0.00  0.00    +0.000 A 
ATOM     25  C   UNL     1       2.082   8.891  17.671  0.00  0.00    +0.000 A 
BRANCH  20  26
ATOM     26  O   UNL     1       3.854   7.319  17.673  0.00  0.00    +0.000 OA
BRANCH  26  27
ATOM     27  C   UNL     1       3.884   5.907  17.495  0.00  0.00    +0.000 C 
BRANCH  27  29
ATOM     28  N   UNL     1       3.131   4.006  18.919  0.00  0.00    +0.000 N 
ATOM     29  C   UNL     1       4.083   4.972  18.706  0.00  0.00    +0.000 C 
ATOM     30  O   UNL     1       5.053   5.093  19.456  0.00  0.00    +0.000 OA
ATOM     31  H   UNL     1       2.329   3.931  18.295  0.00  0.00    +0.000 HD
BRANCH  28  32
ATOM     32  C   UNL     1       3.255   3.086  20.042  0.00  0.00    +0.000 C 
BRANCH  32  34
ATOM     33  O   UNL     1       5.182   1.703  20.545  0.00  0.00    +0.000 OA
ATOM     34  C   UNL     1       4.262   1.985  19.793  0.00  0.00    +0.000 C 
BRANCH  34  35
ATOM     35  O   UNL     1       4.050   1.312  18.625  0.00  0.00    +0.000 OA
ATOM     36  H   UNL     1       4.839   0.849  18.284  0.00  0.00    +0.000 HD
ENDBRANCH  34  35
ENDBRANCH  32  34
ENDBRANCH  28  32
ENDBRANCH  27  29
ENDBRANCH  26  27
ENDBRANCH  20  26
ENDBRANCH   1  23
TORSDOF 7
ENDMDL
MODEL 4
REMARK VINA RESULT:      -8.1      2.033      3.117
REMARK  Name = 
REMARK  7 active torsions:
REMARK  status: ('A' for Active; 'I' for Inactive)
REMARK    1  A    between atoms: C_2  and  O_3
REMARK    2  A    between atoms: C_2  and  C_4
REMARK    3  A    between atoms: C_4  and  N_5
REMARK    4  A    between atoms: C_6  and  C_8
REMARK    5  A    between atoms: C_8  and  O_9
REMARK    6  A    between atoms: O_9  and  C_10
REMARK    7  A    between atoms: C_13  and  C_14
REMARK                            x       y       z     vdW  Elec       q    Type
REMARK                         _______ _______ _______ _____ _____    ______ ____
ROOT
ATOM      1  C   UNL     1      -0.407   9.776  20.404  0.00  0.00    +0.000 C 
ATOM      2  C   UNL     1      -0.592   9.557  21.947  0.00  0.00    +0.000 C 
ATOM      3  C   UNL     1      -0.248  10.723  22.926  0.00  0.00    +0.000 C 
ATOM      4  C   UNL     1      -0.613  12.071  22.308  0.00  0.00    +0.000 C 
ATOM      5  C   UNL     1       0.147  12.156  20.985  0.00  0.00    +0.000 C 
ATOM      6  C   UNL     1      -0.483  11.246  19.965  0.00  0.00    +0.000 C 
ATOM      7  O   UNL     1      -0.285  13.266  22.997  0.00  0.00    +0.000 OA
ATOM      8  O   UNL     1      -1.290  14.195  22.399  0.00  0.00    +0.000 OA
ATOM      9  C   UNL     1      -2.470  13.400  22.499  0.00  0.00    +0.000 C 
ATOM     10  O   UNL     1      -2.044  12.066  22.203  0.00  0.00    +0.000 OA
ATOM     11  C   UNL     1      -2.975  13.612  23.948  0.00  0.00    +0.000 C 
ATOM     12  C   UNL     1      -4.137  12.668  24.265  0.00  0.00    +0.000 C 
ATOM     13  C   UNL     1      -5.300  12.940  23.302  0.00  0.00    +0.000 C 
ATOM     14  C   UNL     1      -5.769  14.395  23.476  0.00  0.00    +0.000 C 
ATOM     15  C   UNL     1      -4.621  15.362  23.135  0.00  0.00    +0.000 C 
ATOM     16  C   UNL     1      -3.446  15.085  24.088  0.00  0.00    +0.000 C 
ATOM     17  C   UNL     1      -4.162  15.133  21.686  0.00  0.00    +0.000 C 
ATOM     18  C   UNL     1      -3.641  13.699  21.525  0.00  0.00    +0.000 C 
ATOM     19  C   UNL     1      -4.818  12.731  21.851  0.00  0.00    +0.000 C 
ENDROOT
BRANCH   1  23
ATOM     20  C   UNL     1       2.813   7.641  18.351  0.00  0.00    +0.000 A 
ATOM     21  C   UNL     1       2.410   7.301  19.631  0.00  0.00    +0.000 A 
ATOM     22  C   UNL     1       1.401   8.040  20.257  0.00  0.00    +0.000 A 
ATOM     23  C   UNL     1       0.742   9.125  19.627  0.00  0.00    +0.000 A 
ATOM     24  C   UNL     1       1.125   9.433  18.323  0.00  0.00    +0.000 A 
ATOM     25  C   UNL     1       2.162   8.701  17.699  0.00  0.00    +0.000 A 
BRANCH  20  26
ATOM     26  O   UNL     1       3.879   7.069  17.707  0.00  0.00    +0.000 OA
BRANCH  26  27
ATOM     27  C   UNL     1       4.316   5.793  18.161  0.00  0.00    +0.000 C 
BRANCH  27  29
ATOM     28  N   UNL     1       6.371   5.254  16.861  0.00  0.00    +0.000 N 
ATOM     29  C   UNL     1       5.107   4.860  17.221  0.00  0.00    +0.000 C 
ATOM     30  O   UNL     1       4.620   3.807  16.805  0.00  0.00    +0.000 OA
ATOM     31  H   UNL     1       6.751   6.134  17.205  0.00  0.00    +0.000 HD
BRANCH  28  32
ATOM     32  C   UNL     1       7.178   4.421  15.978  0.00  0.00    +0.000 C 
BRANCH  32  34
ATOM     33  O   UNL     1       7.760   5.559  13.918  0.00  0.00    +0.000 OA
ATOM     34  C   UNL     1       7.026   4.789  14.519  0.00  0.00    +0.000 C 
BRANCH  34  35
ATOM     35  O   UNL     1       5.972   4.172  13.913  0.00  0.00    +0.000 OA
ATOM     36  H   UNL     1       5.902   4.355  12.956  0.00  0.00    +0.000 HD
ENDBRANCH  34  35
ENDBRANCH  32  34
ENDBRANCH  28  32
ENDBRANCH  27  29
ENDBRANCH  26  27
ENDBRANCH  20  26
ENDBRANCH   1  23
TORSDOF 7
ENDMDL
MODEL 5
REMARK VINA RESULT:      -8.0      2.510      4.323
REMARK  Name = 
REMARK  7 active torsions:
REMARK  status: ('A' for Active; 'I' for Inactive)
REMARK    1  A    between atoms: C_2  and  O_3
REMARK    2  A    between atoms: C_2  and  C_4
REMARK    3  A    between atoms: C_4  and  N_5
REMARK    4  A    between atoms: C_6  and  C_8
REMARK    5  A    between atoms: C_8  and  O_9
REMARK    6  A    between atoms: O_9  and  C_10
REMARK    7  A    between atoms: C_13  and  C_14
REMARK                            x       y       z     vdW  Elec       q    Type
REMARK                         _______ _______ _______ _____ _____    ______ ____
ROOT
ATOM      1  C   UNL     1       1.727   9.118  19.461  0.00  0.00    +0.000 C 
ATOM      2  C   UNL     1       1.221   9.923  18.213  0.00  0.00    +0.000 C 
ATOM      3  C   UNL     1      -0.229  10.502  18.217  0.00  0.00    +0.000 C 
ATOM      4  C   UNL     1      -0.620  10.962  19.619  0.00  0.00    +0.000 C 
ATOM      5  C   UNL     1      -0.457   9.748  20.532  0.00  0.00    +0.000 C 
ATOM      6  C   UNL     1       1.003   9.470  20.770  0.00  0.00    +0.000 C 
ATOM      7  O   UNL     1      -1.939  11.425  19.859  0.00  0.00    +0.000 OA
ATOM      8  O   UNL     1      -1.702  12.275  21.065  0.00  0.00    +0.000 OA
ATOM      9  C   UNL     1      -0.557  13.013  20.640  0.00  0.00    +0.000 C 
ATOM     10  O   UNL     1       0.238  12.075  19.907  0.00  0.00    +0.000 OA
ATOM     11  C   UNL     1      -1.124  14.181  19.794  0.00  0.00    +0.000 C 
ATOM     12  C   UNL     1       0.003  14.957  19.109  0.00  0.00    +0.000 C 
ATOM     13  C   UNL     1       0.947  15.540  20.169  0.00  0.00    +0.000 C 
ATOM     14  C   UNL     1       0.154  16.496  21.078  0.00  0.00    +0.000 C 
ATOM     15  C   UNL     1      -0.969  15.729  21.798  0.00  0.00    +0.000 C 
ATOM     16  C   UNL     1      -1.911  15.129  20.739  0.00  0.00    +0.000 C 
ATOM     17  C   UNL     1      -0.365  14.593  22.639  0.00  0.00    +0.000 C 
ATOM     18  C   UNL     1       0.377  13.607  21.727  0.00  0.00    +0.000 C 
ATOM     19  C   UNL     1       1.525  14.391  21.022  0.00  0.00    +0.000 C 
ENDROOT
BRANCH   1  23
ATOM     20  C   UNL     1       2.414   4.811  19.110  0.00  0.00    +0.000 A 
ATOM     21  C   UNL     1       2.516   5.660  18.020  0.00  0.00    +0.000 A 
ATOM     22  C   UNL     1       2.248   7.023  18.179  0.00  0.00    +0.000 A 
ATOM     23  C   UNL     1       1.896   7.595  19.426  0.00  0.00    +0.000 A 
ATOM     24  C   UNL     1       1.838   6.741  20.526  0.00  0.00    +0.000 A 
ATOM     25  C   UNL     1       2.084   5.359  20.361  0.00  0.00    +0.000 A 
BRANCH  20  26
ATOM     26  O   UNL     1       2.523   3.448  19.031  0.00  0.00    +0.000 OA
BRANCH  26  27
ATOM     27  C   UNL     1       3.832   2.889  19.023  0.00  0.00    +0.000 C 
BRANCH  27  29
ATOM     28  N   UNL     1       5.994   4.123  18.936  0.00  0.00    +0.000 N 
ATOM     29  C   UNL     1       4.963   3.565  18.222  0.00  0.00    +0.000 C 
ATOM     30  O   UNL     1       4.939   3.609  16.991  0.00  0.00    +0.000 OA
ATOM     31  H   UNL     1       5.990   4.088  19.954  0.00  0.00    +0.000 HD
BRANCH  28  32
ATOM     32  C   UNL     1       7.099   4.776  18.245  0.00  0.00    +0.000 C 
BRANCH  32  34
ATOM     33  O   UNL     1       8.156   6.918  18.664  0.00  0.00    +0.000 OA
ATOM     34  C   UNL     1       7.775   5.836  19.086  0.00  0.00    +0.000 C 
BRANCH  34  35
ATOM     35  O   UNL     1       7.925   5.475  20.393  0.00  0.00    +0.000 OA
ATOM     36  H   UNL     1       8.467   4.673  20.523  0.00  0.00    +0.000 HD
ENDBRANCH  34  35
ENDBRANCH  32  34
ENDBRANCH  28  32
ENDBRANCH  27  29
ENDBRANCH  26  27
ENDBRANCH  20  26
ENDBRANCH   1  23
TORSDOF 7
ENDMDL
MODEL 6
REMARK VINA RESULT:      -8.0      2.048      3.771
REMARK  Name = 
REMARK  7 active torsions:
REMARK  status: ('A' for Active; 'I' for Inactive)
REMARK    1  A    between atoms: C_2  and  O_3
REMARK    2  A    between atoms: C_2  and  C_4
REMARK    3  A    between atoms: C_4  and  N_5
REMARK    4  A    between atoms: C_6  and  C_8
REMARK    5  A    between atoms: C_8  and  O_9
REMARK    6  A    between atoms: O_9  and  C_10
REMARK    7  A    between atoms: C_13  and  C_14
REMARK                            x       y       z     vdW  Elec       q    Type
REMARK                         _______ _______ _______ _____ _____    ______ ____
ROOT
ATOM      1  C   UNL     1       1.136   9.664  20.458  0.00  0.00    +0.000 C 
ATOM      2  C   UNL     1       1.538  11.045  19.831  0.00  0.00    +0.000 C 
ATOM      3  C   UNL     1       0.484  11.835  18.993  0.00  0.00    +0.000 C 
ATOM      4  C   UNL     1      -0.915  11.652  19.577  0.00  0.00    +0.000 C 
ATOM      5  C   UNL     1      -1.177  10.147  19.602  0.00  0.00    +0.000 C 
ATOM      6  C   UNL     1      -0.373   9.499  20.697  0.00  0.00    +0.000 C 
ATOM      7  O   UNL     1      -2.032  12.206  18.900  0.00  0.00    +0.000 OA
ATOM      8  O   UNL     1      -2.994  12.321  20.037  0.00  0.00    +0.000 OA
ATOM      9  C   UNL     1      -2.158  12.921  21.025  0.00  0.00    +0.000 C 
ATOM     10  O   UNL     1      -0.880  12.298  20.857  0.00  0.00    +0.000 OA
ATOM     11  C   UNL     1      -2.185  14.437  20.706  0.00  0.00    +0.000 C 
ATOM     12  C   UNL     1      -1.176  15.196  21.571  0.00  0.00    +0.000 C 
ATOM     13  C   UNL     1      -1.523  15.006  23.054  0.00  0.00    +0.000 C 
ATOM     14  C   UNL     1      -2.934  15.562  23.316  0.00  0.00    +0.000 C 
ATOM     15  C   UNL     1      -3.968  14.794  22.474  0.00  0.00    +0.000 C 
ATOM     16  C   UNL     1      -3.617  14.968  20.986  0.00  0.00    +0.000 C 
ATOM     17  C   UNL     1      -3.922  13.300  22.833  0.00  0.00    +0.000 C 
ATOM     18  C   UNL     1      -2.533  12.730  22.518  0.00  0.00    +0.000 C 
ATOM     19  C   UNL     1      -1.499  13.501  23.393  0.00  0.00    +0.000 C 
ENDROOT
BRANCH   1  23
ATOM     20  C   UNL     1       2.420   5.724  19.053  0.00  0.00    +0.000 A 
ATOM     21  C   UNL     1       1.937   5.922  20.336  0.00  0.00    +0.000 A 
ATOM     22  C   UNL     1       1.576   7.209  20.747  0.00  0.00    +0.000 A 
ATOM     23  C   UNL     1       1.658   8.338  19.895  0.00  0.00    +0.000 A 
ATOM     24  C   UNL     1       2.105   8.122  18.592  0.00  0.00    +0.000 A 
ATOM     25  C   UNL     1       2.494   6.825  18.184  0.00  0.00    +0.000 A 
BRANCH  20  26
ATOM     26  O   UNL     1       2.925   4.534  18.602  0.00  0.00    +0.000 OA
BRANCH  26  27
ATOM     27  C   UNL     1       4.078   4.015  19.256  0.00  0.00    +0.000 C 
BRANCH  27  29
ATOM     28  N   UNL     1       6.102   4.135  17.809  0.00  0.00    +0.000 N 
ATOM     29  C   UNL     1       5.476   4.587  18.944  0.00  0.00    +0.000 C 
ATOM     30  O   UNL     1       6.011   5.411  19.686  0.00  0.00    +0.000 OA
ATOM     31  H   UNL     1       5.648   3.443  17.215  0.00  0.00    +0.000 HD
BRANCH  28  32
ATOM     32  C   UNL     1       7.423   4.634  17.450  0.00  0.00    +0.000 C 
BRANCH  32  34
ATOM     33  O   UNL     1       7.289   6.980  16.853  0.00  0.00    +0.000 OA
ATOM     34  C   UNL     1       7.370   5.812  16.503  0.00  0.00    +0.000 C 
BRANCH  34  35
ATOM     35  O   UNL     1       7.424   5.453  15.188  0.00  0.00    +0.000 OA
ATOM     36  H   UNL     1       6.915   6.039  14.595  0.00  0.00    +0.000 HD
ENDBRANCH  34  35
ENDBRANCH  32  34
ENDBRANCH  28  32
ENDBRANCH  27  29
ENDBRANCH  26  27
ENDBRANCH  20  26
ENDBRANCH   1  23
TORSDOF 7
ENDMDL
MODEL 7
REMARK VINA RESULT:      -7.9      2.115      3.430
REMARK  Name = 
REMARK  7 active torsions:
REMARK  status: ('A' for Active; 'I' for Inactive)
REMARK    1  A    between atoms: C_2  and  O_3
REMARK    2  A    between atoms: C_2  and  C_4
REMARK    3  A    between atoms: C_4  and  N_5
REMARK    4  A    between atoms: C_6  and  C_8
REMARK    5  A    between atoms: C_8  and  O_9
REMARK    6  A    between atoms: O_9  and  C_10
REMARK    7  A    between atoms: C_13  and  C_14
REMARK                            x       y       z     vdW  Elec       q    Type
REMARK                         _______ _______ _______ _____ _____    ______ ____
ROOT
ATOM      1  C   UNL     1       0.820  10.280  20.331  0.00  0.00    +0.000 C 
ATOM      2  C   UNL     1       1.116  11.780  19.981  0.00  0.00    +0.000 C 
ATOM      3  C   UNL     1       0.020  12.623  19.257  0.00  0.00    +0.000 C 
ATOM      4  C   UNL     1      -1.373  12.224  19.740  0.00  0.00    +0.000 C 
ATOM      5  C   UNL     1      -1.503  10.723  19.481  0.00  0.00    +0.000 C 
ATOM      6  C   UNL     1      -0.675   9.953  20.474  0.00  0.00    +0.000 C 
ATOM      7  O   UNL     1      -2.515  12.801  19.129  0.00  0.00    +0.000 OA
ATOM      8  O   UNL     1      -3.513  12.627  20.227  0.00  0.00    +0.000 OA
ATOM      9  C   UNL     1      -2.758  13.101  21.341  0.00  0.00    +0.000 C 
ATOM     10  O   UNL     1      -1.427  12.624  21.116  0.00  0.00    +0.000 OA
ATOM     11  C   UNL     1      -2.908  14.643  21.300  0.00  0.00    +0.000 C 
ATOM     12  C   UNL     1      -1.992  15.308  22.330  0.00  0.00    +0.000 C 
ATOM     13  C   UNL     1      -2.360  14.822  23.738  0.00  0.00    +0.000 C 
ATOM     14  C   UNL     1      -3.820  15.205  24.038  0.00  0.00    +0.000 C 
ATOM     15  C   UNL     1      -4.761  14.524  23.029  0.00  0.00    +0.000 C 
ATOM     16  C   UNL     1      -4.388  14.995  21.613  0.00  0.00    +0.000 C 
ATOM     17  C   UNL     1      -4.595  12.998  23.113  0.00  0.00    +0.000 C 
ATOM     18  C   UNL     1      -3.154  12.609  22.758  0.00  0.00    +0.000 C 
ATOM     19  C   UNL     1      -2.214  13.287  23.800  0.00  0.00    +0.000 C 
ENDROOT
BRANCH   1  23
ATOM     20  C   UNL     1       2.535   6.781  18.342  0.00  0.00    +0.000 A 
ATOM     21  C   UNL     1       2.245   6.783  19.696  0.00  0.00    +0.000 A 
ATOM     22  C   UNL     1       1.733   7.941  20.290  0.00  0.00    +0.000 A 
ATOM     23  C   UNL     1       1.469   9.126  19.559  0.00  0.00    +0.000 A 
ATOM     24  C   UNL     1       1.726   9.100  18.190  0.00  0.00    +0.000 A 
ATOM     25  C   UNL     1       2.266   7.938  17.593  0.00  0.00    +0.000 A 
BRANCH  20  26
ATOM     26  O   UNL     1       3.163   5.748  17.697  0.00  0.00    +0.000 OA
BRANCH  26  27
ATOM     27  C   UNL     1       3.583   4.637  18.482  0.00  0.00    +0.000 C 
BRANCH  27  29
ATOM     28  N   UNL     1       5.977   5.174  18.047  0.00  0.00    +0.000 N 
ATOM     29  C   UNL     1       5.085   4.356  18.694  0.00  0.00    +0.000 C 
ATOM     30  O   UNL     1       5.468   3.429  19.409  0.00  0.00    +0.000 OA
ATOM     31  H   UNL     1       5.640   5.927  17.449  0.00  0.00    +0.000 HD
BRANCH  28  32
ATOM     32  C   UNL     1       7.411   4.969  18.203  0.00  0.00    +0.000 C 
BRANCH  32  34
ATOM     33  O   UNL     1       8.052   5.273  20.521  0.00  0.00    +0.000 OA
ATOM     34  C   UNL     1       7.987   5.716  19.385  0.00  0.00    +0.000 C 
BRANCH  34  35
ATOM     35  O   UNL     1       8.444   6.962  19.067  0.00  0.00    +0.000 OA
ATOM     36  H   UNL     1       8.366   7.183  18.119  0.00  0.00    +0.000 HD
ENDBRANCH  34  35
ENDBRANCH  32  34
ENDBRANCH  28  32
ENDBRANCH  27  29
ENDBRANCH  26  27
ENDBRANCH  20  26
ENDBRANCH   1  23
TORSDOF 7
ENDMDL
MODEL 8
REMARK VINA RESULT:      -7.9      1.369      2.484
REMARK  Name = 
REMARK  7 active torsions:
REMARK  status: ('A' for Active; 'I' for Inactive)
REMARK    1  A    between atoms: C_2  and  O_3
REMARK    2  A    between atoms: C_2  and  C_4
REMARK    3  A    between atoms: C_4  and  N_5
REMARK    4  A    between atoms: C_6  and  C_8
REMARK    5  A    between atoms: C_8  and  O_9
REMARK    6  A    between atoms: O_9  and  C_10
REMARK    7  A    between atoms: C_13  and  C_14
REMARK                            x       y       z     vdW  Elec       q    Type
REMARK                         _______ _______ _______ _____ _____    ______ ____
ROOT
ATOM      1  C   UNL     1       0.809  10.094  20.297  0.00  0.00    +0.000 C 
ATOM      2  C   UNL     1       1.116  11.576  19.882  0.00  0.00    +0.000 C 
ATOM      3  C   UNL     1       0.054  12.370  19.058  0.00  0.00    +0.000 C 
ATOM      4  C   UNL     1      -1.359  11.987  19.490  0.00  0.00    +0.000 C 
ATOM      5  C   UNL     1      -1.469  10.473  19.307  0.00  0.00    +0.000 C 
ATOM      6  C   UNL     1      -0.689   9.764  20.381  0.00  0.00    +0.000 C 
ATOM      7  O   UNL     1      -2.471  12.521  18.791  0.00  0.00    +0.000 OA
ATOM      8  O   UNL     1      -3.524  12.399  19.844  0.00  0.00    +0.000 OA
ATOM      9  C   UNL     1      -2.829  12.938  20.968  0.00  0.00    +0.000 C 
ATOM     10  O   UNL     1      -1.487  12.460  20.838  0.00  0.00    +0.000 OA
ATOM     11  C   UNL     1      -2.985  14.474  20.836  0.00  0.00    +0.000 C 
ATOM     12  C   UNL     1      -2.126  15.201  21.873  0.00  0.00    +0.000 C 
ATOM     13  C   UNL     1      -2.564  14.789  23.286  0.00  0.00    +0.000 C 
ATOM     14  C   UNL     1      -4.039  15.176  23.489  0.00  0.00    +0.000 C 
ATOM     15  C   UNL     1      -4.924  14.434  22.471  0.00  0.00    +0.000 C 
ATOM     16  C   UNL     1      -4.480  14.832  21.053  0.00  0.00    +0.000 C 
ATOM     17  C   UNL     1      -4.755  12.916  22.647  0.00  0.00    +0.000 C 
ATOM     18  C   UNL     1      -3.296  12.520  22.387  0.00  0.00    +0.000 C 
ATOM     19  C   UNL     1      -2.414  13.261  23.438  0.00  0.00    +0.000 C 
ENDROOT
BRANCH   1  23
ATOM     20  C   UNL     1       2.937   6.915  18.174  0.00  0.00    +0.000 A 
ATOM     21  C   UNL     1       2.603   8.109  17.558  0.00  0.00    +0.000 A 
ATOM     22  C   UNL     1       1.889   9.078  18.271  0.00  0.00    +0.000 A 
ATOM     23  C   UNL     1       1.503   8.905  19.623  0.00  0.00    +0.000 A 
ATOM     24  C   UNL     1       1.880   7.717  20.247  0.00  0.00    +0.000 A 
ATOM     25  C   UNL     1       2.581   6.728  19.519  0.00  0.00    +0.000 A 
BRANCH  20  26
ATOM     26  O   UNL     1       3.513   5.855  17.525  0.00  0.00    +0.000 OA
BRANCH  26  27
ATOM     27  C   UNL     1       4.572   5.172  18.186  0.00  0.00    +0.000 C 
BRANCH  27  29
ATOM     28  N   UNL     1       2.971   3.527  19.152  0.00  0.00    +0.000 N 
ATOM     29  C   UNL     1       4.279   3.928  19.049  0.00  0.00    +0.000 C 
ATOM     30  O   UNL     1       5.182   3.323  19.629  0.00  0.00    +0.000 OA
ATOM     31  H   UNL     1       2.236   4.048  18.676  0.00  0.00    +0.000 HD
BRANCH  28  32
ATOM     32  C   UNL     1       2.620   2.358  19.949  0.00  0.00    +0.000 C 
BRANCH  32  34
ATOM     33  O   UNL     1       1.593   2.403  22.145  0.00  0.00    +0.000 OA
ATOM     34  C   UNL     1       1.518   2.634  20.948  0.00  0.00    +0.000 C 
BRANCH  34  35
ATOM     35  O   UNL     1       0.403   3.182  20.384  0.00  0.00    +0.000 OA
ATOM     36  H   UNL     1      -0.369   3.212  20.982  0.00  0.00    +0.000 HD
ENDBRANCH  34  35
ENDBRANCH  32  34
ENDBRANCH  28  32
ENDBRANCH  27  29
ENDBRANCH  26  27
ENDBRANCH  20  26
ENDBRANCH   1  23
TORSDOF 7
ENDMDL
MODEL 9
REMARK VINA RESULT:      -7.9      2.452      4.531
REMARK  Name = 
REMARK  7 active torsions:
REMARK  status: ('A' for Active; 'I' for Inactive)
REMARK    1  A    between atoms: C_2  and  O_3
REMARK    2  A    between atoms: C_2  and  C_4
REMARK    3  A    between atoms: C_4  and  N_5
REMARK    4  A    between atoms: C_6  and  C_8
REMARK    5  A    between atoms: C_8  and  O_9
REMARK    6  A    between atoms: O_9  and  C_10
REMARK    7  A    between atoms: C_13  and  C_14
REMARK                            x       y       z     vdW  Elec       q    Type
REMARK                         _______ _______ _______ _____ _____    ______ ____
ROOT
ATOM      1  C   UNL     1       1.818   8.997  19.278  0.00  0.00    +0.000 C 
ATOM      2  C   UNL     1       1.206   9.754  18.048  0.00  0.00    +0.000 C 
ATOM      3  C   UNL     1      -0.252  10.306  18.143  0.00  0.00    +0.000 C 
ATOM      4  C   UNL     1      -0.548  10.803  19.556  0.00  0.00    +0.000 C 
ATOM      5  C   UNL     1      -0.293   9.620  20.489  0.00  0.00    +0.000 C 
ATOM      6  C   UNL     1       1.186   9.377  20.626  0.00  0.00    +0.000 C 
ATOM      7  O   UNL     1      -1.855  11.249  19.879  0.00  0.00    +0.000 OA
ATOM      8  O   UNL     1      -1.546  12.140  21.038  0.00  0.00    +0.000 OA
ATOM      9  C   UNL     1      -0.452  12.885  20.508  0.00  0.00    +0.000 C 
ATOM     10  O   UNL     1       0.306  11.939  19.746  0.00  0.00    +0.000 OA
ATOM     11  C   UNL     1      -1.103  14.016  19.672  0.00  0.00    +0.000 C 
ATOM     12  C   UNL     1      -0.046  14.790  18.883  0.00  0.00    +0.000 C 
ATOM     13  C   UNL     1       0.962  15.423  19.852  0.00  0.00    +0.000 C 
ATOM     14  C   UNL     1       0.219  16.392  20.789  0.00  0.00    +0.000 C 
ATOM     15  C   UNL     1      -0.833  15.627  21.612  0.00  0.00    +0.000 C 
ATOM     16  C   UNL     1      -1.838  14.978  20.645  0.00  0.00    +0.000 C 
ATOM     17  C   UNL     1      -0.145  14.529  22.439  0.00  0.00    +0.000 C 
ATOM     18  C   UNL     1       0.548  13.529  21.505  0.00  0.00    +0.000 C 
ATOM     19  C   UNL     1       1.624  14.312  20.693  0.00  0.00    +0.000 C 
ENDROOT
BRANCH   1  23
ATOM     20  C   UNL     1       2.581   4.697  19.017  0.00  0.00    +0.000 A 
ATOM     21  C   UNL     1       2.652   5.521  17.907  0.00  0.00    +0.000 A 
ATOM     22  C   UNL     1       2.361   6.883  18.038  0.00  0.00    +0.000 A 
ATOM     23  C   UNL     1       2.015   7.478  19.276  0.00  0.00    +0.000 A 
ATOM     24  C   UNL     1       1.987   6.648  20.396  0.00  0.00    +0.000 A 
ATOM     25  C   UNL     1       2.257   5.267  20.259  0.00  0.00    +0.000 A 
BRANCH  20  26
ATOM     26  O   UNL     1       2.714   3.334  18.968  0.00  0.00    +0.000 OA
BRANCH  26  27
ATOM     27  C   UNL     1       4.032   2.802  18.897  0.00  0.00    +0.000 C 
BRANCH  27  29
ATOM     28  N   UNL     1       5.793   3.779  17.431  0.00  0.00    +0.000 N 
ATOM     29  C   UNL     1       5.241   3.737  18.686  0.00  0.00    +0.000 C 
ATOM     30  O   UNL     1       5.695   4.414  19.610  0.00  0.00    +0.000 OA
ATOM     31  H   UNL     1       5.411   3.202  16.684  0.00  0.00    +0.000 HD
BRANCH  28  32
ATOM     32  C   UNL     1       6.935   4.642  17.158  0.00  0.00    +0.000 C 
BRANCH  32  34
ATOM     33  O   UNL     1       5.844   6.479  16.013  0.00  0.00    +0.000 OA
ATOM     34  C   UNL     1       6.690   5.598  16.012  0.00  0.00    +0.000 C 
BRANCH  34  35
ATOM     35  O   UNL     1       7.518   5.390  14.948  0.00  0.00    +0.000 OA
ATOM     36  H   UNL     1       7.050   5.259  14.101  0.00  0.00    +0.000 HD
ENDBRANCH  34  35
ENDBRANCH  32  34
ENDBRANCH  28  32
ENDBRANCH  27  29
ENDBRANCH  26  27
ENDBRANCH  20  26
ENDBRANCH   1  23
TORSDOF 7
ENDMDL
