MODEL 1
REMARK VINA RESULT:      -9.9      0.000      0.000
REMARK  Name = 
REMARK  5 active torsions:
REMARK  status: ('A' for Active; 'I' for Inactive)
REMARK    1  A    between atoms: C_1  and  O_2
REMARK    2  A    between atoms: O_2  and  C_3
REMARK    3  A    between atoms: C_11  and  C_12
REMARK    4  A    between atoms: C_12  and  O_13
REMARK    5  A    between atoms: N_22  and  C_23
REMARK                            x       y       z     vdW  Elec       q    Type
REMARK                         _______ _______ _______ _____ _____    ______ ____
ROOT
ATOM      1  C   UNL     1       4.016   5.989  17.892  0.00  0.00    +0.000 C 
ATOM      2  C   UNL     1       5.482   6.365  18.026  0.00  0.00    +0.000 A 
ATOM      3  C   UNL     1       6.225   7.400  17.479  0.00  0.00    +0.000 A 
ATOM      4  C   UNL     1       7.600   7.463  17.773  0.00  0.00    +0.000 A 
ATOM      5  C   UNL     1       8.219   6.504  18.593  0.00  0.00    +0.000 A 
ATOM      6  C   UNL     1       7.472   5.470  19.139  0.00  0.00    +0.000 A 
ATOM      7  C   UNL     1       6.121   5.440  18.839  0.00  0.00    +0.000 A 
ATOM      8  C   UNL     1       5.152   4.458  19.289  0.00  0.00    +0.000 C 
ATOM      9  O   UNL     1       5.501   3.532  19.994  0.00  0.00    +0.000 OA
ATOM     10  N   UNL     1       3.908   4.801  18.740  0.00  0.00    +0.000 N 
ENDROOT
BRANCH   1  19
ATOM     11  C   UNL     1      -0.373  10.409  22.922  0.00  0.00    +0.000 C 
ATOM     12  O   UNL     1       0.589   9.914  23.493  0.00  0.00    +0.000 OA
ATOM     13  N   UNL     1      -0.789  10.152  21.645  0.00  0.00    +0.000 N 
ATOM     14  C   UNL     1       0.075   9.565  20.760  0.00  0.00    +0.000 A 
ATOM     15  N   UNL     1       0.339  10.045  19.568  0.00  0.00    +0.000 NA
ATOM     16  C   UNL     1       1.298   9.212  19.049  0.00  0.00    +0.000 A 
ATOM     17  C   UNL     1       2.023   9.317  17.856  0.00  0.00    +0.000 A 
ATOM     18  C   UNL     1       2.907   8.282  17.507  0.00  0.00    +0.000 A 
ATOM     19  C   UNL     1       3.075   7.135  18.314  0.00  0.00    +0.000 A 
ATOM     20  C   UNL     1       2.368   7.059  19.541  0.00  0.00    +0.000 A 
ATOM     21  C   UNL     1       1.521   8.123  19.881  0.00  0.00    +0.000 A 
ATOM     22  N   UNL     1       0.761   8.399  20.994  0.00  0.00    +0.000 N 
ATOM     23  H   UNL     1      -1.386  10.869  21.264  0.00  0.00    +0.000 HD
ATOM     24  H   UNL     1       0.692   7.841  21.833  0.00  0.00    +0.000 HD
BRANCH  11  26
ATOM     25  C   UNL     1      -1.124  12.637  22.766  0.00  0.00    +0.000 C 
ATOM     26  O   UNL     1      -1.170  11.379  23.444  0.00  0.00    +0.000 OA
ENDBRANCH  11  26
ENDBRANCH   1  19
BRANCH  10  27
ATOM     27  C   UNL     1       2.770   3.960  18.902  0.00  0.00    +0.000 A 
ATOM     28  C   UNL     1       2.075   3.958  20.124  0.00  0.00    +0.000 A 
ATOM     29  C   UNL     1       1.040   3.059  20.387  0.00  0.00    +0.000 A 
ATOM     30  C   UNL     1       0.665   2.145  19.415  0.00  0.00    +0.000 A 
ATOM     31  C   UNL     1       1.299   2.165  18.172  0.00  0.00    +0.000 A 
ATOM     32  C   UNL     1       2.333   3.076  17.909  0.00  0.00    +0.000 A 
ENDBRANCH  10  27
BRANCH   1  33
ATOM     33  O   UNL     1       3.824   5.612  16.531  0.00  0.00    +0.000 OA
ATOM     34  H   UNL     1       4.221   4.732  16.432  0.00  0.00    +0.000 HD
ENDBRANCH   1  33
TORSDOF 4
ENDMDL
MODEL 2
REMARK VINA RESULT:      -9.9      1.536      4.461
REMARK  Name = 
REMARK  5 active torsions:
REMARK  status: ('A' for Active; 'I' for Inactive)
REMARK    1  A    between atoms: C_1  and  O_2
REMARK    2  A    between atoms: O_2  and  C_3
REMARK    3  A    between atoms: C_11  and  C_12
REMARK    4  A    between atoms: C_12  and  O_13
REMARK    5  A    between atoms: N_22  and  C_23
REMARK                            x       y       z     vdW  Elec       q    Type
REMARK                         _______ _______ _______ _____ _____    ______ ____
ROOT
ATOM      1  C   UNL     1       3.270   5.454  19.342  0.00  0.00    +0.000 C 
ATOM      2  C   UNL     1       2.298   4.297  19.186  0.00  0.00    +0.000 A 
ATOM      3  C   UNL     1       1.077   4.028  19.785  0.00  0.00    +0.000 A 
ATOM      4  C   UNL     1       0.417   2.831  19.449  0.00  0.00    +0.000 A 
ATOM      5  C   UNL     1       0.974   1.919  18.535  0.00  0.00    +0.000 A 
ATOM      6  C   UNL     1       2.196   2.192  17.937  0.00  0.00    +0.000 A 
ATOM      7  C   UNL     1       2.816   3.381  18.281  0.00  0.00    +0.000 A 
ATOM      8  C   UNL     1       4.090   3.870  17.791  0.00  0.00    +0.000 C 
ATOM      9  O   UNL     1       4.739   3.209  17.004  0.00  0.00    +0.000 OA
ATOM     10  N   UNL     1       4.342   5.104  18.408  0.00  0.00    +0.000 N 
ENDROOT
BRANCH   1  19
ATOM     11  C   UNL     1      -0.095  12.512  21.061  0.00  0.00    +0.000 C 
ATOM     12  O   UNL     1       0.706  12.182  21.925  0.00  0.00    +0.000 OA
ATOM     13  N   UNL     1      -0.522  11.752  20.007  0.00  0.00    +0.000 N 
ATOM     14  C   UNL     1       0.203  10.655  19.629  0.00  0.00    +0.000 A 
ATOM     15  N   UNL     1       0.608  10.434  18.401  0.00  0.00    +0.000 NA
ATOM     16  C   UNL     1       1.357   9.287  18.469  0.00  0.00    +0.000 A 
ATOM     17  C   UNL     1       2.121   8.657  17.480  0.00  0.00    +0.000 A 
ATOM     18  C   UNL     1       2.746   7.435  17.781  0.00  0.00    +0.000 A 
ATOM     19  C   UNL     1       2.614   6.816  19.044  0.00  0.00    +0.000 A 
ATOM     20  C   UNL     1       1.875   7.485  20.052  0.00  0.00    +0.000 A 
ATOM     21  C   UNL     1       1.293   8.721  19.735  0.00  0.00    +0.000 A 
ATOM     22  N   UNL     1       0.588   9.643  20.472  0.00  0.00    +0.000 N 
ATOM     23  H   UNL     1      -0.923  12.293  19.256  0.00  0.00    +0.000 HD
ATOM     24  H   UNL     1       0.364   9.589  21.456  0.00  0.00    +0.000 HD
BRANCH  11  26
ATOM     25  C   UNL     1      -0.612  14.324  19.645  0.00  0.00    +0.000 C 
ATOM     26  O   UNL     1      -0.655  13.746  20.952  0.00  0.00    +0.000 OA
ENDBRANCH  11  26
ENDBRANCH   1  19
BRANCH  10  27
ATOM     27  C   UNL     1       5.577   5.787  18.221  0.00  0.00    +0.000 A 
ATOM     28  C   UNL     1       6.667   5.501  19.064  0.00  0.00    +0.000 A 
ATOM     29  C   UNL     1       7.853   6.233  19.016  0.00  0.00    +0.000 A 
ATOM     30  C   UNL     1       7.983   7.268  18.104  0.00  0.00    +0.000 A 
ATOM     31  C   UNL     1       6.940   7.534  17.216  0.00  0.00    +0.000 A 
ATOM     32  C   UNL     1       5.751   6.790  17.261  0.00  0.00    +0.000 A 
ENDBRANCH  10  27
BRANCH   1  33
ATOM     33  O   UNL     1       3.769   5.379  20.675  0.00  0.00    +0.000 OA
ATOM     34  H   UNL     1       4.642   4.960  20.618  0.00  0.00    +0.000 HD
ENDBRANCH   1  33
TORSDOF 4
ENDMDL
MODEL 3
REMARK VINA RESULT:      -9.1      2.222      2.800
REMARK  Name = 
REMARK  5 active torsions:
REMARK  status: ('A' for Active; 'I' for Inactive)
REMARK    1  A    between atoms: C_1  and  O_2
REMARK    2  A    between atoms: O_2  and  C_3
REMARK    3  A    between atoms: C_11  and  C_12
REMARK    4  A    between atoms: C_12  and  O_13
REMARK    5  A    between atoms: N_22  and  C_23
REMARK                            x       y       z     vdW  Elec       q    Type
REMARK                         _______ _______ _______ _____ _____    ______ ____
ROOT
ATOM      1  C   UNL     1       3.954   5.892  17.997  0.00  0.00    +0.000 C 
ATOM      2  C   UNL     1       5.389   6.390  18.031  0.00  0.00    +0.000 A 
ATOM      3  C   UNL     1       6.001   7.487  17.445  0.00  0.00    +0.000 A 
ATOM      4  C   UNL     1       7.384   7.665  17.641  0.00  0.00    +0.000 A 
ATOM      5  C   UNL     1       8.138   6.757  18.404  0.00  0.00    +0.000 A 
ATOM      6  C   UNL     1       7.522   5.660  18.989  0.00  0.00    +0.000 A 
ATOM      7  C   UNL     1       6.160   5.517  18.785  0.00  0.00    +0.000 A 
ATOM      8  C   UNL     1       5.313   4.455  19.292  0.00  0.00    +0.000 C 
ATOM      9  O   UNL     1       5.788   3.557  19.959  0.00  0.00    +0.000 OA
ATOM     10  N   UNL     1       4.008   4.693  18.836  0.00  0.00    +0.000 N 
ENDROOT
BRANCH   1  19
ATOM     11  C   UNL     1      -2.073  11.133  17.451  0.00  0.00    +0.000 C 
ATOM     12  O   UNL     1      -2.213  10.215  16.655  0.00  0.00    +0.000 OA
ATOM     13  N   UNL     1      -0.982  11.376  18.238  0.00  0.00    +0.000 N 
ATOM     14  C   UNL     1      -0.073  10.376  18.458  0.00  0.00    +0.000 A 
ATOM     15  N   UNL     1       0.331  10.005  19.650  0.00  0.00    +0.000 NA
ATOM     16  C   UNL     1       1.166   8.938  19.431  0.00  0.00    +0.000 A 
ATOM     17  C   UNL     1       1.787   8.085  20.351  0.00  0.00    +0.000 A 
ATOM     18  C   UNL     1       2.666   7.098  19.873  0.00  0.00    +0.000 A 
ATOM     19  C   UNL     1       2.953   6.951  18.498  0.00  0.00    +0.000 A 
ATOM     20  C   UNL     1       2.285   7.791  17.572  0.00  0.00    +0.000 A 
ATOM     21  C   UNL     1       1.385   8.743  18.074  0.00  0.00    +0.000 A 
ATOM     22  N   UNL     1       0.541   9.646  17.471  0.00  0.00    +0.000 N 
ATOM     23  H   UNL     1      -1.179  11.971  19.028  0.00  0.00    +0.000 HD
ATOM     24  H   UNL     1       0.403   9.777  16.479  0.00  0.00    +0.000 HD
BRANCH  11  26
ATOM     25  C   UNL     1      -4.379  11.597  17.605  0.00  0.00    +0.000 C 
ATOM     26  O   UNL     1      -3.031  12.049  17.754  0.00  0.00    +0.000 OA
ENDBRANCH  11  26
ENDBRANCH   1  19
BRANCH  10  27
ATOM     27  C   UNL     1       2.959   3.759  19.069  0.00  0.00    +0.000 A 
ATOM     28  C   UNL     1       2.582   2.867  18.049  0.00  0.00    +0.000 A 
ATOM     29  C   UNL     1       1.476   2.026  18.172  0.00  0.00    +0.000 A 
ATOM     30  C   UNL     1       0.725   2.047  19.337  0.00  0.00    +0.000 A 
ATOM     31  C   UNL     1       1.113   2.880  20.388  0.00  0.00    +0.000 A 
ATOM     32  C   UNL     1       2.231   3.718  20.264  0.00  0.00    +0.000 A 
ENDBRANCH  10  27
BRANCH   1  33
ATOM     33  O   UNL     1       3.697   5.507  16.649  0.00  0.00    +0.000 OA
ATOM     34  H   UNL     1       2.733   5.516  16.541  0.00  0.00    +0.000 HD
ENDBRANCH   1  33
TORSDOF 4
ENDMDL
MODEL 4
REMARK VINA RESULT:      -9.0      2.192      4.381
REMARK  Name = 
REMARK  5 active torsions:
REMARK  status: ('A' for Active; 'I' for Inactive)
REMARK    1  A    between atoms: C_1  and  O_2
REMARK    2  A    between atoms: O_2  and  C_3
REMARK    3  A    between atoms: C_11  and  C_12
REMARK    4  A    between atoms: C_12  and  O_13
REMARK    5  A    between atoms: N_22  and  C_23
REMARK                            x       y       z     vdW  Elec       q    Type
REMARK                         _______ _______ _______ _____ _____    ______ ____
ROOT
ATOM      1  C   UNL     1       4.022   4.922  19.117  0.00  0.00    +0.000 C 
ATOM      2  C   UNL     1       3.049   4.133  19.977  0.00  0.00    +0.000 A 
ATOM      3  C   UNL     1       2.435   4.425  21.185  0.00  0.00    +0.000 A 
ATOM      4  C   UNL     1       1.592   3.455  21.759  0.00  0.00    +0.000 A 
ATOM      5  C   UNL     1       1.373   2.214  21.135  0.00  0.00    +0.000 A 
ATOM      6  C   UNL     1       1.988   1.925  19.926  0.00  0.00    +0.000 A 
ATOM      7  C   UNL     1       2.805   2.903  19.383  0.00  0.00    +0.000 A 
ATOM      8  C   UNL     1       3.549   2.822  18.140  0.00  0.00    +0.000 C 
ATOM      9  O   UNL     1       3.505   1.813  17.464  0.00  0.00    +0.000 OA
ATOM     10  N   UNL     1       4.250   4.026  17.982  0.00  0.00    +0.000 N 
ENDROOT
BRANCH   1  19
ATOM     11  C   UNL     1       0.387  11.973  20.193  0.00  0.00    +0.000 C 
ATOM     12  O   UNL     1       0.957  11.610  21.212  0.00  0.00    +0.000 OA
ATOM     13  N   UNL     1       0.217  11.248  19.046  0.00  0.00    +0.000 N 
ATOM     14  C   UNL     1       1.005  10.152  18.819  0.00  0.00    +0.000 A 
ATOM     15  N   UNL     1       1.689   9.959  17.716  0.00  0.00    +0.000 NA
ATOM     16  C   UNL     1       2.394   8.800  17.927  0.00  0.00    +0.000 A 
ATOM     17  C   UNL     1       3.367   8.187  17.129  0.00  0.00    +0.000 A 
ATOM     18  C   UNL     1       3.895   6.950  17.535  0.00  0.00    +0.000 A 
ATOM     19  C   UNL     1       3.463   6.300  18.712  0.00  0.00    +0.000 A 
ATOM     20  C   UNL     1       2.509   6.950  19.535  0.00  0.00    +0.000 A 
ATOM     21  C   UNL     1       2.027   8.202  19.125  0.00  0.00    +0.000 A 
ATOM     22  N   UNL     1       1.172   9.113  19.700  0.00  0.00    +0.000 N 
ATOM     23  H   UNL     1       0.010  11.814  18.238  0.00  0.00    +0.000 HD
ATOM     24  H   UNL     1       0.721   9.035  20.601  0.00  0.00    +0.000 HD
BRANCH  11  26
ATOM     25  C   UNL     1      -0.435  13.536  18.632  0.00  0.00    +0.000 C 
ATOM     26  O   UNL     1      -0.124  13.217  19.990  0.00  0.00    +0.000 OA
ENDBRANCH  11  26
ENDBRANCH   1  19
BRANCH  10  27
ATOM     27  C   UNL     1       5.170   4.212  16.911  0.00  0.00    +0.000 A 
ATOM     28  C   UNL     1       6.528   4.451  17.192  0.00  0.00    +0.000 A 
ATOM     29  C   UNL     1       7.445   4.774  16.192  0.00  0.00    +0.000 A 
ATOM     30  C   UNL     1       7.024   4.852  14.874  0.00  0.00    +0.000 A 
ATOM     31  C   UNL     1       5.695   4.561  14.561  0.00  0.00    +0.000 A 
ATOM     32  C   UNL     1       4.777   4.227  15.568  0.00  0.00    +0.000 A 
ENDBRANCH  10  27
BRANCH   1  33
ATOM     33  O   UNL     1       5.224   5.033  19.874  0.00  0.00    +0.000 OA
ATOM     34  H   UNL     1       5.354   5.979  20.045  0.00  0.00    +0.000 HD
ENDBRANCH   1  33
TORSDOF 4
ENDMDL
MODEL 5
REMARK VINA RESULT:      -8.5      3.453      7.956
REMARK  Name = 
REMARK  5 active torsions:
REMARK  status: ('A' for Active; 'I' for Inactive)
REMARK    1  A    between atoms: C_1  and  O_2
REMARK    2  A    between atoms: O_2  and  C_3
REMARK    3  A    between atoms: C_11  and  C_12
REMARK    4  A    between atoms: C_12  and  O_13
REMARK    5  A    between atoms: N_22  and  C_23
REMARK                            x       y       z     vdW  Elec       q    Type
REMARK                         _______ _______ _______ _____ _____    ______ ____
ROOT
ATOM      1  C   UNL     1       0.395  11.503  19.991  0.00  0.00    +0.000 C 
ATOM      2  C   UNL     1       1.398  12.628  20.173  0.00  0.00    +0.000 A 
ATOM      3  C   UNL     1       2.522  12.745  20.977  0.00  0.00    +0.000 A 
ATOM      4  C   UNL     1       3.244  13.953  20.945  0.00  0.00    +0.000 A 
ATOM      5  C   UNL     1       2.844  15.024  20.129  0.00  0.00    +0.000 A 
ATOM      6  C   UNL     1       1.719  14.904  19.325  0.00  0.00    +0.000 A 
ATOM      7  C   UNL     1       1.035  13.701  19.372  0.00  0.00    +0.000 A 
ATOM      8  C   UNL     1      -0.161  13.353  18.629  0.00  0.00    +0.000 C 
ATOM      9  O   UNL     1      -0.675  14.161  17.881  0.00  0.00    +0.000 OA
ATOM     10  N   UNL     1      -0.522  12.046  18.987  0.00  0.00    +0.000 N 
ENDROOT
BRANCH   1  19
ATOM     11  C   UNL     1       2.096   3.687  20.340  0.00  0.00    +0.000 C 
ATOM     12  O   UNL     1       0.969   3.913  20.758  0.00  0.00    +0.000 OA
ATOM     13  N   UNL     1       3.044   4.612  19.999  0.00  0.00    +0.000 N 
ATOM     14  C   UNL     1       2.668   5.906  19.759  0.00  0.00    +0.000 A 
ATOM     15  N   UNL     1       2.988   6.571  18.675  0.00  0.00    +0.000 NA
ATOM     16  C   UNL     1       2.355   7.783  18.795  0.00  0.00    +0.000 A 
ATOM     17  C   UNL     1       2.258   8.836  17.878  0.00  0.00    +0.000 A 
ATOM     18  C   UNL     1       1.608  10.018  18.270  0.00  0.00    +0.000 A 
ATOM     19  C   UNL     1       1.064  10.182  19.564  0.00  0.00    +0.000 A 
ATOM     20  C   UNL     1       1.130   9.093  20.469  0.00  0.00    +0.000 A 
ATOM     21  C   UNL     1       1.751   7.912  20.038  0.00  0.00    +0.000 A 
ATOM     22  N   UNL     1       1.924   6.677  20.618  0.00  0.00    +0.000 N 
ATOM     23  H   UNL     1       3.766   4.247  19.397  0.00  0.00    +0.000 HD
ATOM     24  H   UNL     1       1.590   6.381  21.524  0.00  0.00    +0.000 HD
BRANCH  11  26
ATOM     25  C   UNL     1       4.003   2.385  19.869  0.00  0.00    +0.000 C 
ATOM     26  O   UNL     1       2.588   2.450  20.065  0.00  0.00    +0.000 OA
ENDBRANCH  11  26
ENDBRANCH   1  19
BRANCH  10  27
ATOM     27  C   UNL     1      -1.727  11.454  18.513  0.00  0.00    +0.000 A 
ATOM     28  C   UNL     1      -1.672  10.461  17.518  0.00  0.00    +0.000 A 
ATOM     29  C   UNL     1      -2.822   9.946  16.921  0.00  0.00    +0.000 A 
ATOM     30  C   UNL     1      -4.067  10.406  17.321  0.00  0.00    +0.000 A 
ATOM     31  C   UNL     1      -4.152  11.347  18.347  0.00  0.00    +0.000 A 
ATOM     32  C   UNL     1      -2.993  11.857  18.952  0.00  0.00    +0.000 A 
ENDBRANCH  10  27
BRANCH   1  33
ATOM     33  O   UNL     1      -0.294  11.377  21.233  0.00  0.00    +0.000 OA
ATOM     34  H   UNL     1      -0.881  12.146  21.299  0.00  0.00    +0.000 HD
ENDBRANCH   1  33
TORSDOF 4
ENDMDL
MODEL 6
REMARK VINA RESULT:      -8.3      4.802      8.738
REMARK  Name = 
REMARK  5 active torsions:
REMARK  status: ('A' for Active; 'I' for Inactive)
REMARK    1  A    between atoms: C_1  and  O_2
REMARK    2  A    between atoms: O_2  and  C_3
REMARK    3  A    between atoms: C_11  and  C_12
REMARK    4  A    between atoms: C_12  and  O_13
REMARK    5  A    between atoms: N_22  and  C_23
REMARK                            x       y       z     vdW  Elec       q    Type
REMARK                         _______ _______ _______ _____ _____    ______ ____
ROOT
ATOM      1  C   UNL     1      -0.365  11.621  20.474  0.00  0.00    +0.000 C 
ATOM      2  C   UNL     1       0.443  10.378  20.142  0.00  0.00    +0.000 A 
ATOM      3  C   UNL     1       0.940   9.891  18.943  0.00  0.00    +0.000 A 
ATOM      4  C   UNL     1       1.638   8.669  18.956  0.00  0.00    +0.000 A 
ATOM      5  C   UNL     1       1.829   7.947  20.147  0.00  0.00    +0.000 A 
ATOM      6  C   UNL     1       1.331   8.438  21.345  0.00  0.00    +0.000 A 
ATOM      7  C   UNL     1       0.656   9.646  21.301  0.00  0.00    +0.000 A 
ATOM      8  C   UNL     1       0.050  10.344  22.419  0.00  0.00    +0.000 C 
ATOM      9  O   UNL     1       0.090   9.865  23.536  0.00  0.00    +0.000 OA
ATOM     10  N   UNL     1      -0.535  11.518  21.925  0.00  0.00    +0.000 N 
ENDROOT
BRANCH   1  19
ATOM     11  C   UNL     1       5.824  16.489  19.029  0.00  0.00    +0.000 C 
ATOM     12  O   UNL     1       6.142  15.317  18.886  0.00  0.00    +0.000 OA
ATOM     13  N   UNL     1       4.641  16.963  19.524  0.00  0.00    +0.000 N 
ATOM     14  C   UNL     1       3.550  16.137  19.570  0.00  0.00    +0.000 A 
ATOM     15  N   UNL     1       2.377  16.447  19.071  0.00  0.00    +0.000 NA
ATOM     16  C   UNL     1       1.601  15.330  19.254  0.00  0.00    +0.000 A 
ATOM     17  C   UNL     1       0.300  15.062  18.813  0.00  0.00    +0.000 A 
ATOM     18  C   UNL     1      -0.311  13.857  19.197  0.00  0.00    +0.000 A 
ATOM     19  C   UNL     1       0.339  12.917  20.026  0.00  0.00    +0.000 A 
ATOM     20  C   UNL     1       1.672  13.178  20.431  0.00  0.00    +0.000 A 
ATOM     21  C   UNL     1       2.271  14.371  20.002  0.00  0.00    +0.000 A 
ATOM     22  N   UNL     1       3.535  14.893  20.150  0.00  0.00    +0.000 N 
ATOM     23  H   UNL     1       4.454  17.922  19.274  0.00  0.00    +0.000 HD
ATOM     24  H   UNL     1       4.318  14.460  20.618  0.00  0.00    +0.000 HD
BRANCH  11  26
ATOM     25  C   UNL     1       7.991  17.320  18.620  0.00  0.00    +0.000 C 
ATOM     26  O   UNL     1       6.581  17.551  18.643  0.00  0.00    +0.000 OA
ENDBRANCH  11  26
ENDBRANCH   1  19
BRANCH  10  27
ATOM     27  C   UNL     1      -1.314  12.367  22.761  0.00  0.00    +0.000 A 
ATOM     28  C   UNL     1      -2.594  11.955  23.174  0.00  0.00    +0.000 A 
ATOM     29  C   UNL     1      -3.453  12.798  23.879  0.00  0.00    +0.000 A 
ATOM     30  C   UNL     1      -3.040  14.081  24.202  0.00  0.00    +0.000 A 
ATOM     31  C   UNL     1      -1.753  14.495  23.857  0.00  0.00    +0.000 A 
ATOM     32  C   UNL     1      -0.888  13.641  23.156  0.00  0.00    +0.000 A 
ENDBRANCH  10  27
BRANCH   1  33
ATOM     33  O   UNL     1      -1.632  11.454  19.842  0.00  0.00    +0.000 OA
ATOM     34  H   UNL     1      -2.295  11.786  20.467  0.00  0.00    +0.000 HD
ENDBRANCH   1  33
TORSDOF 4
ENDMDL
MODEL 7
REMARK VINA RESULT:      -8.2      1.753      2.330
REMARK  Name = 
REMARK  5 active torsions:
REMARK  status: ('A' for Active; 'I' for Inactive)
REMARK    1  A    between atoms: C_1  and  O_2
REMARK    2  A    between atoms: O_2  and  C_3
REMARK    3  A    between atoms: C_11  and  C_12
REMARK    4  A    between atoms: C_12  and  O_13
REMARK    5  A    between atoms: N_22  and  C_23
REMARK                            x       y       z     vdW  Elec       q    Type
REMARK                         _______ _______ _______ _____ _____    ______ ____
ROOT
ATOM      1  C   UNL     1       3.584   5.951  18.200  0.00  0.00    +0.000 C 
ATOM      2  C   UNL     1       5.027   6.390  18.020  0.00  0.00    +0.000 A 
ATOM      3  C   UNL     1       5.586   7.502  17.410  0.00  0.00    +0.000 A 
ATOM      4  C   UNL     1       6.989   7.613  17.378  0.00  0.00    +0.000 A 
ATOM      5  C   UNL     1       7.815   6.625  17.942  0.00  0.00    +0.000 A 
ATOM      6  C   UNL     1       7.252   5.513  18.553  0.00  0.00    +0.000 A 
ATOM      7  C   UNL     1       5.869   5.437  18.575  0.00  0.00    +0.000 A 
ATOM      8  C   UNL     1       5.067   4.374  19.150  0.00  0.00    +0.000 C 
ATOM      9  O   UNL     1       5.602   3.414  19.668  0.00  0.00    +0.000 OA
ATOM     10  N   UNL     1       3.718   4.694  18.940  0.00  0.00    +0.000 N 
ENDROOT
BRANCH   1  19
ATOM     11  C   UNL     1      -1.319  12.244  18.866  0.00  0.00    +0.000 C 
ATOM     12  O   UNL     1      -1.525  11.632  17.828  0.00  0.00    +0.000 OA
ATOM     13  N   UNL     1      -0.300  12.033  19.754  0.00  0.00    +0.000 N 
ATOM     14  C   UNL     1       0.386  10.849  19.723  0.00  0.00    +0.000 A 
ATOM     15  N   UNL     1       0.578  10.088  20.774  0.00  0.00    +0.000 NA
ATOM     16  C   UNL     1       1.230   8.977  20.300  0.00  0.00    +0.000 A 
ATOM     17  C   UNL     1       1.581   7.795  20.962  0.00  0.00    +0.000 A 
ATOM     18  C   UNL     1       2.321   6.823  20.268  0.00  0.00    +0.000 A 
ATOM     19  C   UNL     1       2.734   7.009  18.931  0.00  0.00    +0.000 A 
ATOM     20  C   UNL     1       2.337   8.191  18.256  0.00  0.00    +0.000 A 
ATOM     21  C   UNL     1       1.567   9.127  18.961  0.00  0.00    +0.000 A 
ATOM     22  N   UNL     1       0.971  10.314  18.603  0.00  0.00    +0.000 N 
ATOM     23  H   UNL     1      -0.479  12.412  20.671  0.00  0.00    +0.000 HD
ATOM     24  H   UNL     1       0.974  10.740  17.687  0.00  0.00    +0.000 HD
BRANCH  11  26
ATOM     25  C   UNL     1      -1.471  14.211  20.156  0.00  0.00    +0.000 C 
ATOM     26  O   UNL     1      -2.128  13.215  19.369  0.00  0.00    +0.000 OA
ENDBRANCH  11  26
ENDBRANCH   1  19
BRANCH  10  27
ATOM     27  C   UNL     1       2.678   3.786  19.288  0.00  0.00    +0.000 A 
ATOM     28  C   UNL     1       1.977   3.108  18.274  0.00  0.00    +0.000 A 
ATOM     29  C   UNL     1       0.863   2.314  18.548  0.00  0.00    +0.000 A 
ATOM     30  C   UNL     1       0.432   2.167  19.857  0.00  0.00    +0.000 A 
ATOM     31  C   UNL     1       1.145   2.780  20.887  0.00  0.00    +0.000 A 
ATOM     32  C   UNL     1       2.270   3.571  20.609  0.00  0.00    +0.000 A 
ENDBRANCH  10  27
BRANCH   1  33
ATOM     33  O   UNL     1       3.086   5.673  16.894  0.00  0.00    +0.000 OA
ATOM     34  H   UNL     1       2.215   6.096  16.837  0.00  0.00    +0.000 HD
ENDBRANCH   1  33
TORSDOF 4
ENDMDL
MODEL 8
REMARK VINA RESULT:      -8.2      3.431      8.251
REMARK  Name = 
REMARK  5 active torsions:
REMARK  status: ('A' for Active; 'I' for Inactive)
REMARK    1  A    between atoms: C_1  and  O_2
REMARK    2  A    between atoms: O_2  and  C_3
REMARK    3  A    between atoms: C_11  and  C_12
REMARK    4  A    between atoms: C_12  and  O_13
REMARK    5  A    between atoms: N_22  and  C_23
REMARK                            x       y       z     vdW  Elec       q    Type
REMARK                         _______ _______ _______ _____ _____    ______ ____
ROOT
ATOM      1  C   UNL     1       0.309  11.674  20.205  0.00  0.00    +0.000 C 
ATOM      2  C   UNL     1       1.387  12.743  20.212  0.00  0.00    +0.000 A 
ATOM      3  C   UNL     1       2.482  12.948  21.039  0.00  0.00    +0.000 A 
ATOM      4  C   UNL     1       3.295  14.072  20.805  0.00  0.00    +0.000 A 
ATOM      5  C   UNL     1       3.014  14.977  19.767  0.00  0.00    +0.000 A 
ATOM      6  C   UNL     1       1.918  14.769  18.941  0.00  0.00    +0.000 A 
ATOM      7  C   UNL     1       1.142  13.650  19.191  0.00  0.00    +0.000 A 
ATOM      8  C   UNL     1      -0.044  13.236  18.467  0.00  0.00    +0.000 C 
ATOM      9  O   UNL     1      -0.463  13.904  17.542  0.00  0.00    +0.000 OA
ATOM     10  N   UNL     1      -0.520  12.058  19.061  0.00  0.00    +0.000 N 
ENDROOT
BRANCH   1  19
ATOM     11  C   UNL     1       4.875   5.828  17.192  0.00  0.00    +0.000 C 
ATOM     12  O   UNL     1       5.401   6.922  17.041  0.00  0.00    +0.000 OA
ATOM     13  N   UNL     1       3.612   5.584  17.655  0.00  0.00    +0.000 N 
ATOM     14  C   UNL     1       2.943   6.563  18.339  0.00  0.00    +0.000 A 
ATOM     15  N   UNL     1       2.388   6.384  19.514  0.00  0.00    +0.000 NA
ATOM     16  C   UNL     1       1.902   7.616  19.874  0.00  0.00    +0.000 A 
ATOM     17  C   UNL     1       1.317   8.031  21.076  0.00  0.00    +0.000 A 
ATOM     18  C   UNL     1       0.827   9.344  21.174  0.00  0.00    +0.000 A 
ATOM     19  C   UNL     1       0.893  10.252  20.094  0.00  0.00    +0.000 A 
ATOM     20  C   UNL     1       1.527   9.835  18.896  0.00  0.00    +0.000 A 
ATOM     21  C   UNL     1       2.040   8.531  18.839  0.00  0.00    +0.000 A 
ATOM     22  N   UNL     1       2.755   7.844  17.885  0.00  0.00    +0.000 N 
ATOM     23  H   UNL     1       3.482   4.644  17.996  0.00  0.00    +0.000 HD
ATOM     24  H   UNL     1       3.071   8.199  16.995  0.00  0.00    +0.000 HD
BRANCH  11  26
ATOM     25  C   UNL     1       6.912   4.703  16.816  0.00  0.00    +0.000 C 
ATOM     26  O   UNL     1       5.495   4.634  16.992  0.00  0.00    +0.000 OA
ENDBRANCH  11  26
ENDBRANCH   1  19
BRANCH  10  27
ATOM     27  C   UNL     1      -1.746  11.463  18.648  0.00  0.00    +0.000 A 
ATOM     28  C   UNL     1      -1.726  10.361  17.774  0.00  0.00    +0.000 A 
ATOM     29  C   UNL     1      -2.894   9.825  17.231  0.00  0.00    +0.000 A 
ATOM     30  C   UNL     1      -4.121  10.376  17.566  0.00  0.00    +0.000 A 
ATOM     31  C   UNL     1      -4.173  11.431  18.477  0.00  0.00    +0.000 A 
ATOM     32  C   UNL     1      -2.997  11.962  19.029  0.00  0.00    +0.000 A 
ENDBRANCH  10  27
BRANCH   1  33
ATOM     33  O   UNL     1      -0.439  11.853  21.405  0.00  0.00    +0.000 OA
ATOM     34  H   UNL     1      -1.372  11.893  21.142  0.00  0.00    +0.000 HD
ENDBRANCH   1  33
TORSDOF 4
ENDMDL
MODEL 9
REMARK VINA RESULT:      -7.8      3.487      9.464
REMARK  Name = 
REMARK  5 active torsions:
REMARK  status: ('A' for Active; 'I' for Inactive)
REMARK    1  A    between atoms: C_1  and  O_2
REMARK    2  A    between atoms: O_2  and  C_3
REMARK    3  A    between atoms: C_11  and  C_12
REMARK    4  A    between atoms: C_12  and  O_13
REMARK    5  A    between atoms: N_22  and  C_23
REMARK                            x       y       z     vdW  Elec       q    Type
REMARK                         _______ _______ _______ _____ _____    ______ ____
ROOT
ATOM      1  C   UNL     1      -0.474  12.319  18.943  0.00  0.00    +0.000 C 
ATOM      2  C   UNL     1      -1.975  12.236  19.157  0.00  0.00    +0.000 A 
ATOM      3  C   UNL     1      -2.942  11.403  18.615  0.00  0.00    +0.000 A 
ATOM      4  C   UNL     1      -4.283  11.600  18.996  0.00  0.00    +0.000 A 
ATOM      5  C   UNL     1      -4.648  12.614  19.897  0.00  0.00    +0.000 A 
ATOM      6  C   UNL     1      -3.677  13.446  20.438  0.00  0.00    +0.000 A 
ATOM      7  C   UNL     1      -2.367  13.222  20.051  0.00  0.00    +0.000 A 
ATOM      8  C   UNL     1      -1.196  13.964  20.479  0.00  0.00    +0.000 C 
ATOM      9  O   UNL     1      -1.309  14.899  21.246  0.00  0.00    +0.000 OA
ATOM     10  N   UNL     1      -0.080  13.412  19.834  0.00  0.00    +0.000 N 
ENDROOT
BRANCH   1  19
ATOM     11  C   UNL     1       4.533   6.205  17.656  0.00  0.00    +0.000 C 
ATOM     12  O   UNL     1       4.949   7.233  17.141  0.00  0.00    +0.000 OA
ATOM     13  N   UNL     1       3.312   6.020  18.244  0.00  0.00    +0.000 N 
ATOM     14  C   UNL     1       2.575   7.109  18.625  0.00  0.00    +0.000 A 
ATOM     15  N   UNL     1       2.073   7.268  19.827  0.00  0.00    +0.000 NA
ATOM     16  C   UNL     1       1.484   8.508  19.809  0.00  0.00    +0.000 A 
ATOM     17  C   UNL     1       0.898   9.234  20.852  0.00  0.00    +0.000 A 
ATOM     18  C   UNL     1       0.289  10.466  20.562  0.00  0.00    +0.000 A 
ATOM     19  C   UNL     1       0.238  10.987  19.250  0.00  0.00    +0.000 A 
ATOM     20  C   UNL     1       0.873  10.264  18.208  0.00  0.00    +0.000 A 
ATOM     21  C   UNL     1       1.505   9.055  18.534  0.00  0.00    +0.000 A 
ATOM     22  N   UNL     1       2.253   8.160  17.804  0.00  0.00    +0.000 N 
ATOM     23  H   UNL     1       3.281   5.230  18.870  0.00  0.00    +0.000 HD
ATOM     24  H   UNL     1       2.509   8.238  16.830  0.00  0.00    +0.000 HD
BRANCH  11  26
ATOM     25  C   UNL     1       5.116   4.412  19.070  0.00  0.00    +0.000 C 
ATOM     26  O   UNL     1       5.256   5.064  17.805  0.00  0.00    +0.000 OA
ENDBRANCH  11  26
ENDBRANCH   1  19
BRANCH  10  27
ATOM     27  C   UNL     1       1.212  13.997  19.958  0.00  0.00    +0.000 A 
ATOM     28  C   UNL     1       1.644  14.939  19.007  0.00  0.00    +0.000 A 
ATOM     29  C   UNL     1       2.946  15.442  19.000  0.00  0.00    +0.000 A 
ATOM     30  C   UNL     1       3.848  15.021  19.964  0.00  0.00    +0.000 A 
ATOM     31  C   UNL     1       3.428  14.132  20.955  0.00  0.00    +0.000 A 
ATOM     32  C   UNL     1       2.115  13.635  20.964  0.00  0.00    +0.000 A 
ENDBRANCH  10  27
BRANCH   1  33
ATOM     33  O   UNL     1      -0.285  12.728  17.591  0.00  0.00    +0.000 OA
ATOM     34  H   UNL     1      -0.145  13.688  17.612  0.00  0.00    +0.000 HD
ENDBRANCH   1  33
TORSDOF 4
ENDMDL
