MODEL 1
REMARK VINA RESULT:      -7.3      0.000      0.000
REMARK  Name = 
REMARK  7 active torsions:
REMARK  status: ('A' for Active; 'I' for Inactive)
REMARK    1  A    between atoms: C_2  and  C_12
REMARK    2  A    between atoms: N_3  and  C_4
REMARK    3  A    between atoms: C_4  and  C_5
REMARK    4  A    between atoms: C_5  and  C_6
REMARK    5  A    between atoms: C_6  and  N_7
REMARK    6  A    between atoms: N_16  and  S_17
REMARK    7  A    between atoms: S_17  and  C_20
REMARK                            x       y       z     vdW  Elec       q    Type
REMARK                         _______ _______ _______ _____ _____    ______ ____
ROOT
ATOM      1  C   UNL     1       0.925   4.088  20.285  0.00  0.00    +0.000 C 
ATOM      2  C   UNL     1       1.289   3.247  21.513  0.00  0.00    +0.000 C 
ATOM      3  C   UNL     1       2.759   2.825  21.532  0.00  0.00    +0.000 C 
ATOM      4  C   UNL     1       3.240   2.240  20.198  0.00  0.00    +0.000 C 
ATOM      5  N   UNL     1       2.879   3.160  19.088  0.00  0.00    +0.000 NA
ATOM      6  C   UNL     1       1.392   3.356  19.025  0.00  0.00    +0.000 C 
ENDROOT
BRANCH   1   8
ATOM      7  O   UNL     1       1.467   6.251  21.236  0.00  0.00    +0.000 OA
ATOM      8  C   UNL     1       1.450   5.526  20.244  0.00  0.00    +0.000 C 
ATOM      9  N   UNL     1       2.043   5.929  19.068  0.00  0.00    +0.000 N 
ATOM     10  H   UNL     1       2.021   5.333  18.254  0.00  0.00    +0.000 HD
BRANCH   9  11
ATOM     11  C   UNL     1       2.616   7.256  18.937  0.00  0.00    +0.000 C 
BRANCH  11  12
ATOM     12  C   UNL     1       1.953   8.092  17.842  0.00  0.00    +0.000 C 
BRANCH  12  13
ATOM     13  C   UNL     1       2.128   9.586  18.093  0.00  0.00    +0.000 C 
BRANCH  13  14
ATOM     14  N   UNL     1       0.946  10.200  18.663  0.00  0.00    +0.000 N 
ATOM     15  C   UNL     1       0.917  11.052  19.730  0.00  0.00    +0.000 A 
ATOM     16  C   UNL     1      -0.402  11.425  19.843  0.00  0.00    +0.000 A 
ATOM     17  N   UNL     1      -1.165  10.819  18.878  0.00  0.00    +0.000 NA
ATOM     18  C   UNL     1      -0.325  10.084  18.184  0.00  0.00    +0.000 A 
ENDBRANCH  13  14
ENDBRANCH  12  13
ENDBRANCH  11  12
ENDBRANCH   9  11
ENDBRANCH   1   8
BRANCH   5  19
ATOM     19  S   UNL     1       3.525   2.784  17.547  0.00  0.00    +0.000 S 
ATOM     20  O   UNL     1       4.051   1.436  17.641  0.00  0.00    +0.000 OA
ATOM     21  O   UNL     1       2.550   3.130  16.538  0.00  0.00    +0.000 OA
BRANCH  19  22
ATOM     22  C   UNL     1       4.894   3.899  17.316  0.00  0.00    +0.000 A 
ATOM     23  C   UNL     1       5.192   4.355  16.026  0.00  0.00    +0.000 A 
ATOM     24  C   UNL     1       6.145   5.359  15.850  0.00  0.00    +0.000 A 
ATOM     25  C   UNL     1       6.789   5.895  16.961  0.00  0.00    +0.000 A 
ATOM     26  F   UNL     1       7.683   6.878  16.788  0.00  0.00    +0.000 F 
ATOM     27  C   UNL     1       6.503   5.444  18.246  0.00  0.00    +0.000 A 
ATOM     28  C   UNL     1       5.547   4.441  18.432  0.00  0.00    +0.000 A 
ENDBRANCH  19  22
ENDBRANCH   5  19
TORSDOF 7
ENDMDL
MODEL 2
REMARK VINA RESULT:      -7.2      4.757      6.750
REMARK  Name = 
REMARK  7 active torsions:
REMARK  status: ('A' for Active; 'I' for Inactive)
REMARK    1  A    between atoms: C_2  and  C_12
REMARK    2  A    between atoms: N_3  and  C_4
REMARK    3  A    between atoms: C_4  and  C_5
REMARK    4  A    between atoms: C_5  and  C_6
REMARK    5  A    between atoms: C_6  and  N_7
REMARK    6  A    between atoms: N_16  and  S_17
REMARK    7  A    between atoms: S_17  and  C_20
REMARK                            x       y       z     vdW  Elec       q    Type
REMARK                         _______ _______ _______ _____ _____    ______ ____
ROOT
ATOM      1  C   UNL     1       7.113   5.201  17.553  0.00  0.00    +0.000 C 
ATOM      2  C   UNL     1       7.152   4.317  16.302  0.00  0.00    +0.000 C 
ATOM      3  C   UNL     1       5.806   4.250  15.578  0.00  0.00    +0.000 C 
ATOM      4  C   UNL     1       4.625   3.970  16.515  0.00  0.00    +0.000 C 
ATOM      5  N   UNL     1       4.660   4.915  17.661  0.00  0.00    +0.000 NA
ATOM      6  C   UNL     1       5.939   4.766  18.432  0.00  0.00    +0.000 C 
ENDROOT
BRANCH   1   8
ATOM      7  O   UNL     1       6.125   7.243  16.695  0.00  0.00    +0.000 OA
ATOM      8  C   UNL     1       7.033   6.715  17.335  0.00  0.00    +0.000 C 
ATOM      9  N   UNL     1       7.951   7.482  18.016  0.00  0.00    +0.000 N 
ATOM     10  H   UNL     1       8.697   7.044  18.536  0.00  0.00    +0.000 HD
BRANCH   9  11
ATOM     11  C   UNL     1       7.935   8.930  17.918  0.00  0.00    +0.000 C 
BRANCH  11  12
ATOM     12  C   UNL     1       8.951   9.606  18.838  0.00  0.00    +0.000 C 
BRANCH  12  13
ATOM     13  C   UNL     1       9.228  11.043  18.409  0.00  0.00    +0.000 C 
BRANCH  13  14
ATOM     14  N   UNL     1       9.480  11.924  19.530  0.00  0.00    +0.000 N 
ATOM     15  C   UNL     1       9.400  11.590  20.851  0.00  0.00    +0.000 A 
ATOM     16  C   UNL     1       9.800  12.721  21.524  0.00  0.00    +0.000 A 
ATOM     17  N   UNL     1      10.112  13.726  20.645  0.00  0.00    +0.000 NA
ATOM     18  C   UNL     1       9.906  13.217  19.450  0.00  0.00    +0.000 A 
ENDBRANCH  13  14
ENDBRANCH  12  13
ENDBRANCH  11  12
ENDBRANCH   9  11
ENDBRANCH   1   8
BRANCH   5  19
ATOM     19  S   UNL     1       3.299   4.902  18.701  0.00  0.00    +0.000 S 
ATOM     20  O   UNL     1       2.260   4.164  18.007  0.00  0.00    +0.000 OA
ATOM     21  O   UNL     1       3.728   4.509  20.023  0.00  0.00    +0.000 OA
BRANCH  19  22
ATOM     22  C   UNL     1       2.779   6.600  18.832  0.00  0.00    +0.000 A 
ATOM     23  C   UNL     1       2.844   7.423  17.701  0.00  0.00    +0.000 A 
ATOM     24  C   UNL     1       2.280   8.698  17.740  0.00  0.00    +0.000 A 
ATOM     25  C   UNL     1       1.659   9.138  18.905  0.00  0.00    +0.000 A 
ATOM     26  F   UNL     1       1.094  10.353  18.927  0.00  0.00    +0.000 F 
ATOM     27  C   UNL     1       1.595   8.329  20.036  0.00  0.00    +0.000 A 
ATOM     28  C   UNL     1       2.154   7.048  20.005  0.00  0.00    +0.000 A 
ENDBRANCH  19  22
ENDBRANCH   5  19
TORSDOF 7
ENDMDL
MODEL 3
REMARK VINA RESULT:      -7.1      4.709      6.918
REMARK  Name = 
REMARK  7 active torsions:
REMARK  status: ('A' for Active; 'I' for Inactive)
REMARK    1  A    between atoms: C_2  and  C_12
REMARK    2  A    between atoms: N_3  and  C_4
REMARK    3  A    between atoms: C_4  and  C_5
REMARK    4  A    between atoms: C_5  and  C_6
REMARK    5  A    between atoms: C_6  and  N_7
REMARK    6  A    between atoms: N_16  and  S_17
REMARK    7  A    between atoms: S_17  and  C_20
REMARK                            x       y       z     vdW  Elec       q    Type
REMARK                         _______ _______ _______ _____ _____    ______ ____
ROOT
ATOM      1  C   UNL     1       6.991   4.634  17.820  0.00  0.00    +0.000 C 
ATOM      2  C   UNL     1       7.017   4.943  16.319  0.00  0.00    +0.000 C 
ATOM      3  C   UNL     1       5.939   5.944  15.898  0.00  0.00    +0.000 C 
ATOM      4  C   UNL     1       4.549   5.608  16.452  0.00  0.00    +0.000 C 
ATOM      5  N   UNL     1       4.635   5.379  17.917  0.00  0.00    +0.000 NA
ATOM      6  C   UNL     1       5.567   4.242  18.222  0.00  0.00    +0.000 C 
ENDROOT
BRANCH   1   8
ATOM      7  O   UNL     1       7.576   5.564  19.981  0.00  0.00    +0.000 OA
ATOM      8  C   UNL     1       7.486   5.731  18.766  0.00  0.00    +0.000 C 
ATOM      9  N   UNL     1       7.971   6.877  18.177  0.00  0.00    +0.000 N 
ATOM     10  H   UNL     1       7.891   7.012  17.181  0.00  0.00    +0.000 HD
BRANCH   9  11
ATOM     11  C   UNL     1       8.509   7.960  18.980  0.00  0.00    +0.000 C 
BRANCH  11  12
ATOM     12  C   UNL     1       8.514   9.304  18.250  0.00  0.00    +0.000 C 
BRANCH  12  13
ATOM     13  C   UNL     1       9.045  10.423  19.139  0.00  0.00    +0.000 C 
BRANCH  13  14
ATOM     14  N   UNL     1       9.576  11.537  18.381  0.00  0.00    +0.000 N 
ATOM     15  C   UNL     1       9.000  12.768  18.248  0.00  0.00    +0.000 A 
ATOM     16  C   UNL     1       9.903  13.499  17.513  0.00  0.00    +0.000 A 
ATOM     17  N   UNL     1      11.002  12.742  17.197  0.00  0.00    +0.000 NA
ATOM     18  C   UNL     1      10.774  11.562  17.731  0.00  0.00    +0.000 A 
ENDBRANCH  13  14
ENDBRANCH  12  13
ENDBRANCH  11  12
ENDBRANCH   9  11
ENDBRANCH   1   8
BRANCH   5  19
ATOM     19  S   UNL     1       3.149   5.207  18.750  0.00  0.00    +0.000 S 
ATOM     20  O   UNL     1       2.239   4.548  17.832  0.00  0.00    +0.000 OA
ATOM     21  O   UNL     1       3.410   4.652  20.059  0.00  0.00    +0.000 OA
BRANCH  19  22
ATOM     22  C   UNL     1       2.557   6.864  19.023  0.00  0.00    +0.000 A 
ATOM     23  C   UNL     1       2.485   7.749  17.941  0.00  0.00    +0.000 A 
ATOM     24  C   UNL     1       1.863   8.988  18.101  0.00  0.00    +0.000 A 
ATOM     25  C   UNL     1       1.320   9.328  19.336  0.00  0.00    +0.000 A 
ATOM     26  F   UNL     1       0.699  10.507  19.477  0.00  0.00    +0.000 F 
ATOM     27  C   UNL     1       1.393   8.456  20.419  0.00  0.00    +0.000 A 
ATOM     28  C   UNL     1       2.011   7.212  20.267  0.00  0.00    +0.000 A 
ENDBRANCH  19  22
ENDBRANCH   5  19
TORSDOF 7
ENDMDL
MODEL 4
REMARK VINA RESULT:      -7.1      4.810      7.070
REMARK  Name = 
REMARK  7 active torsions:
REMARK  status: ('A' for Active; 'I' for Inactive)
REMARK    1  A    between atoms: C_2  and  C_12
REMARK    2  A    between atoms: N_3  and  C_4
REMARK    3  A    between atoms: C_4  and  C_5
REMARK    4  A    between atoms: C_5  and  C_6
REMARK    5  A    between atoms: C_6  and  N_7
REMARK    6  A    between atoms: N_16  and  S_17
REMARK    7  A    between atoms: S_17  and  C_20
REMARK                            x       y       z     vdW  Elec       q    Type
REMARK                         _______ _______ _______ _____ _____    ______ ____
ROOT
ATOM      1  C   UNL     1       7.350   5.427  16.541  0.00  0.00    +0.000 C 
ATOM      2  C   UNL     1       6.945   5.171  15.086  0.00  0.00    +0.000 C 
ATOM      3  C   UNL     1       5.432   5.033  14.905  0.00  0.00    +0.000 C 
ATOM      4  C   UNL     1       4.783   4.084  15.920  0.00  0.00    +0.000 C 
ATOM      5  N   UNL     1       5.205   4.456  17.295  0.00  0.00    +0.000 NA
ATOM      6  C   UNL     1       6.697   4.369  17.433  0.00  0.00    +0.000 C 
ENDROOT
BRANCH   1   8
ATOM      7  O   UNL     1       5.958   7.097  17.615  0.00  0.00    +0.000 OA
ATOM      8  C   UNL     1       7.045   6.814  17.116  0.00  0.00    +0.000 C 
ATOM      9  N   UNL     1       8.100   7.696  17.184  0.00  0.00    +0.000 N 
ATOM     10  H   UNL     1       8.990   7.461  16.768  0.00  0.00    +0.000 HD
BRANCH   9  11
ATOM     11  C   UNL     1       7.933   9.020  17.754  0.00  0.00    +0.000 C 
BRANCH  11  12
ATOM     12  C   UNL     1       8.965   9.343  18.835  0.00  0.00    +0.000 C 
BRANCH  12  13
ATOM     13  C   UNL     1       8.931  10.818  19.219  0.00  0.00    +0.000 C 
BRANCH  13  14
ATOM     14  N   UNL     1       9.864  11.618  18.452  0.00  0.00    +0.000 N 
ATOM     15  C   UNL     1       9.543  12.649  17.616  0.00  0.00    +0.000 A 
ATOM     16  C   UNL     1      10.754  13.141  17.187  0.00  0.00    +0.000 A 
ATOM     17  N   UNL     1      11.791  12.433  17.738  0.00  0.00    +0.000 NA
ATOM     18  C   UNL     1      11.223  11.519  18.493  0.00  0.00    +0.000 A 
ENDBRANCH  13  14
ENDBRANCH  12  13
ENDBRANCH  11  12
ENDBRANCH   9  11
ENDBRANCH   1   8
BRANCH   5  19
ATOM     19  S   UNL     1       4.412   3.650  18.580  0.00  0.00    +0.000 S 
ATOM     20  O   UNL     1       3.677   2.550  17.983  0.00  0.00    +0.000 OA
ATOM     21  O   UNL     1       5.365   3.412  19.640  0.00  0.00    +0.000 OA
BRANCH  19  22
ATOM     22  C   UNL     1       3.233   4.818  19.226  0.00  0.00    +0.000 A 
ATOM     23  C   UNL     1       2.453   4.459  20.332  0.00  0.00    +0.000 A 
ATOM     24  C   UNL     1       1.655   5.419  20.956  0.00  0.00    +0.000 A 
ATOM     25  C   UNL     1       1.644   6.723  20.470  0.00  0.00    +0.000 A 
ATOM     26  F   UNL     1       0.897   7.646  21.090  0.00  0.00    +0.000 F 
ATOM     27  C   UNL     1       2.412   7.086  19.367  0.00  0.00    +0.000 A 
ATOM     28  C   UNL     1       3.217   6.133  18.738  0.00  0.00    +0.000 A 
ENDBRANCH  19  22
ENDBRANCH   5  19
TORSDOF 7
ENDMDL
MODEL 5
REMARK VINA RESULT:      -7.1      5.017      7.135
REMARK  Name = 
REMARK  7 active torsions:
REMARK  status: ('A' for Active; 'I' for Inactive)
REMARK    1  A    between atoms: C_2  and  C_12
REMARK    2  A    between atoms: N_3  and  C_4
REMARK    3  A    between atoms: C_4  and  C_5
REMARK    4  A    between atoms: C_5  and  C_6
REMARK    5  A    between atoms: C_6  and  N_7
REMARK    6  A    between atoms: N_16  and  S_17
REMARK    7  A    between atoms: S_17  and  C_20
REMARK                            x       y       z     vdW  Elec       q    Type
REMARK                         _______ _______ _______ _____ _____    ______ ____
ROOT
ATOM      1  C   UNL     1       7.163   5.320  17.882  0.00  0.00    +0.000 C 
ATOM      2  C   UNL     1       7.388   4.436  16.651  0.00  0.00    +0.000 C 
ATOM      3  C   UNL     1       6.147   4.320  15.766  0.00  0.00    +0.000 C 
ATOM      4  C   UNL     1       4.869   4.000  16.551  0.00  0.00    +0.000 C 
ATOM      5  N   UNL     1       4.727   4.948  17.686  0.00  0.00    +0.000 NA
ATOM      6  C   UNL     1       5.905   4.845  18.612  0.00  0.00    +0.000 C 
ENDROOT
BRANCH   1   8
ATOM      7  O   UNL     1       6.059   7.353  17.158  0.00  0.00    +0.000 OA
ATOM      8  C   UNL     1       7.058   6.829  17.647  0.00  0.00    +0.000 C 
ATOM      9  N   UNL     1       8.083   7.602  18.146  0.00  0.00    +0.000 N 
ATOM     10  H   UNL     1       8.904   7.167  18.542  0.00  0.00    +0.000 HD
BRANCH   9  11
ATOM     11  C   UNL     1       8.060   9.047  18.020  0.00  0.00    +0.000 C 
BRANCH  11  12
ATOM     12  C   UNL     1       9.138   9.741  18.852  0.00  0.00    +0.000 C 
BRANCH  12  13
ATOM     13  C   UNL     1       8.957  11.254  18.856  0.00  0.00    +0.000 C 
BRANCH  13  14
ATOM     14  N   UNL     1      10.217  11.969  18.851  0.00  0.00    +0.000 N 
ATOM     15  C   UNL     1      10.717  12.727  19.870  0.00  0.00    +0.000 A 
ATOM     16  C   UNL     1      11.957  13.130  19.432  0.00  0.00    +0.000 A 
ATOM     17  N   UNL     1      12.213  12.640  18.176  0.00  0.00    +0.000 NA
ATOM     18  C   UNL     1      11.144  11.947  17.851  0.00  0.00    +0.000 A 
ENDBRANCH  13  14
ENDBRANCH  12  13
ENDBRANCH  11  12
ENDBRANCH   9  11
ENDBRANCH   1   8
BRANCH   5  19
ATOM     19  S   UNL     1       3.249   4.888  18.550  0.00  0.00    +0.000 S 
ATOM     20  O   UNL     1       2.287   4.251  17.670  0.00  0.00    +0.000 OA
ATOM     21  O   UNL     1       3.503   4.364  19.872  0.00  0.00    +0.000 OA
BRANCH  19  22
ATOM     22  C   UNL     1       2.756   6.584  18.775  0.00  0.00    +0.000 A 
ATOM     23  C   UNL     1       2.770   7.450  17.674  0.00  0.00    +0.000 A 
ATOM     24  C   UNL     1       2.224   8.728  17.793  0.00  0.00    +0.000 A 
ATOM     25  C   UNL     1       1.670   9.127  19.006  0.00  0.00    +0.000 A 
ATOM     26  F   UNL     1       1.121  10.345  19.106  0.00  0.00    +0.000 F 
ATOM     27  C   UNL     1       1.657   8.275  20.106  0.00  0.00    +0.000 A 
ATOM     28  C   UNL     1       2.199   6.991  19.996  0.00  0.00    +0.000 A 
ENDBRANCH  19  22
ENDBRANCH   5  19
TORSDOF 7
ENDMDL
MODEL 6
REMARK VINA RESULT:      -7.0      4.678      6.744
REMARK  Name = 
REMARK  7 active torsions:
REMARK  status: ('A' for Active; 'I' for Inactive)
REMARK    1  A    between atoms: C_2  and  C_12
REMARK    2  A    between atoms: N_3  and  C_4
REMARK    3  A    between atoms: C_4  and  C_5
REMARK    4  A    between atoms: C_5  and  C_6
REMARK    5  A    between atoms: C_6  and  N_7
REMARK    6  A    between atoms: N_16  and  S_17
REMARK    7  A    between atoms: S_17  and  C_20
REMARK                            x       y       z     vdW  Elec       q    Type
REMARK                         _______ _______ _______ _____ _____    ______ ____
ROOT
ATOM      1  C   UNL     1       7.194   5.179  17.031  0.00  0.00    +0.000 C 
ATOM      2  C   UNL     1       7.031   4.402  15.721  0.00  0.00    +0.000 C 
ATOM      3  C   UNL     1       5.584   4.366  15.226  0.00  0.00    +0.000 C 
ATOM      4  C   UNL     1       4.577   3.987  16.318  0.00  0.00    +0.000 C 
ATOM      5  N   UNL     1       4.795   4.835  17.517  0.00  0.00    +0.000 NA
ATOM      6  C   UNL     1       6.185   4.650  18.053  0.00  0.00    +0.000 C 
ENDROOT
BRANCH   1   8
ATOM      7  O   UNL     1       6.180   7.263  16.317  0.00  0.00    +0.000 OA
ATOM      8  C   UNL     1       7.069   6.704  16.957  0.00  0.00    +0.000 C 
ATOM      9  N   UNL     1       7.916   7.429  17.765  0.00  0.00    +0.000 N 
ATOM     10  H   UNL     1       8.647   6.966  18.284  0.00  0.00    +0.000 HD
BRANCH   9  11
ATOM     11  C   UNL     1       7.850   8.878  17.808  0.00  0.00    +0.000 C 
BRANCH  11  12
ATOM     12  C   UNL     1       8.857   9.498  18.777  0.00  0.00    +0.000 C 
BRANCH  12  13
ATOM     13  C   UNL     1       9.304  10.880  18.313  0.00  0.00    +0.000 C 
BRANCH  13  14
ATOM     14  N   UNL     1       9.429  11.823  19.405  0.00  0.00    +0.000 N 
ATOM     15  C   UNL     1       9.117  13.151  19.361  0.00  0.00    +0.000 A 
ATOM     16  C   UNL     1       9.326  13.603  20.643  0.00  0.00    +0.000 A 
ATOM     17  N   UNL     1       9.759  12.585  21.454  0.00  0.00    +0.000 NA
ATOM     18  C   UNL     1       9.815  11.525  20.678  0.00  0.00    +0.000 A 
ENDBRANCH  13  14
ENDBRANCH  12  13
ENDBRANCH  11  12
ENDBRANCH   9  11
ENDBRANCH   1   8
BRANCH   5  19
ATOM     19  S   UNL     1       3.626   4.710  18.763  0.00  0.00    +0.000 S 
ATOM     20  O   UNL     1       2.672   3.706  18.329  0.00  0.00    +0.000 OA
ATOM     21  O   UNL     1       4.308   4.583  20.030  0.00  0.00    +0.000 OA
BRANCH  19  22
ATOM     22  C   UNL     1       2.795   6.284  18.802  0.00  0.00    +0.000 A 
ATOM     23  C   UNL     1       2.161   6.691  19.983  0.00  0.00    +0.000 A 
ATOM     24  C   UNL     1       1.659   7.989  20.085  0.00  0.00    +0.000 A 
ATOM     25  C   UNL     1       1.794   8.864  19.012  0.00  0.00    +0.000 A 
ATOM     26  F   UNL     1       1.335  10.117  19.127  0.00  0.00    +0.000 F 
ATOM     27  C   UNL     1       2.418   8.465  17.833  0.00  0.00    +0.000 A 
ATOM     28  C   UNL     1       2.927   7.168  17.722  0.00  0.00    +0.000 A 
ENDBRANCH  19  22
ENDBRANCH   5  19
TORSDOF 7
ENDMDL
MODEL 7
REMARK VINA RESULT:      -7.0      4.528      6.552
REMARK  Name = 
REMARK  7 active torsions:
REMARK  status: ('A' for Active; 'I' for Inactive)
REMARK    1  A    between atoms: C_2  and  C_12
REMARK    2  A    between atoms: N_3  and  C_4
REMARK    3  A    between atoms: C_4  and  C_5
REMARK    4  A    between atoms: C_5  and  C_6
REMARK    5  A    between atoms: C_6  and  N_7
REMARK    6  A    between atoms: N_16  and  S_17
REMARK    7  A    between atoms: S_17  and  C_20
REMARK                            x       y       z     vdW  Elec       q    Type
REMARK                         _______ _______ _______ _____ _____    ______ ____
ROOT
ATOM      1  C   UNL     1       7.213   5.308  17.443  0.00  0.00    +0.000 C 
ATOM      2  C   UNL     1       7.141   4.451  16.175  0.00  0.00    +0.000 C 
ATOM      3  C   UNL     1       5.730   4.369  15.591  0.00  0.00    +0.000 C 
ATOM      4  C   UNL     1       4.657   4.043  16.638  0.00  0.00    +0.000 C 
ATOM      5  N   UNL     1       4.791   4.965  17.795  0.00  0.00    +0.000 NA
ATOM      6  C   UNL     1       6.145   4.829  18.428  0.00  0.00    +0.000 C 
ENDROOT
BRANCH   1   8
ATOM      7  O   UNL     1       6.129   7.340  16.686  0.00  0.00    +0.000 OA
ATOM      8  C   UNL     1       7.081   6.823  17.269  0.00  0.00    +0.000 C 
ATOM      9  N   UNL     1       8.008   7.600  17.926  0.00  0.00    +0.000 N 
ATOM     10  H   UNL     1       8.791   7.172  18.398  0.00  0.00    +0.000 HD
BRANCH   9  11
ATOM     11  C   UNL     1       7.947   9.049  17.867  0.00  0.00    +0.000 C 
BRANCH  11  12
ATOM     12  C   UNL     1       8.951   9.732  18.796  0.00  0.00    +0.000 C 
BRANCH  12  13
ATOM     13  C   UNL     1       9.613  10.929  18.123  0.00  0.00    +0.000 C 
BRANCH  13  14
ATOM     14  N   UNL     1       9.071  12.195  18.571  0.00  0.00    +0.000 N 
ATOM     15  C   UNL     1       9.190  12.723  19.825  0.00  0.00    +0.000 A 
ATOM     16  C   UNL     1       8.589  13.957  19.743  0.00  0.00    +0.000 A 
ATOM     17  N   UNL     1       8.108  14.183  18.478  0.00  0.00    +0.000 NA
ATOM     18  C   UNL     1       8.411  13.101  17.795  0.00  0.00    +0.000 A 
ENDBRANCH  13  14
ENDBRANCH  12  13
ENDBRANCH  11  12
ENDBRANCH   9  11
ENDBRANCH   1   8
BRANCH   5  19
ATOM     19  S   UNL     1       3.545   4.900  18.968  0.00  0.00    +0.000 S 
ATOM     20  O   UNL     1       2.613   3.882  18.521  0.00  0.00    +0.000 OA
ATOM     21  O   UNL     1       4.145   4.828  20.281  0.00  0.00    +0.000 OA
BRANCH  19  22
ATOM     22  C   UNL     1       2.724   6.478  18.885  0.00  0.00    +0.000 A 
ATOM     23  C   UNL     1       2.102   6.985  20.033  0.00  0.00    +0.000 A 
ATOM     24  C   UNL     1       1.609   8.290  20.033  0.00  0.00    +0.000 A 
ATOM     25  C   UNL     1       1.742   9.074  18.891  0.00  0.00    +0.000 A 
ATOM     26  F   UNL     1       1.292  10.336  18.906  0.00  0.00    +0.000 F 
ATOM     27  C   UNL     1       2.354   8.576  17.744  0.00  0.00    +0.000 A 
ATOM     28  C   UNL     1       2.854   7.270  17.735  0.00  0.00    +0.000 A 
ENDBRANCH  19  22
ENDBRANCH   5  19
TORSDOF 7
ENDMDL
MODEL 8
REMARK VINA RESULT:      -7.0      4.831      7.059
REMARK  Name = 
REMARK  7 active torsions:
REMARK  status: ('A' for Active; 'I' for Inactive)
REMARK    1  A    between atoms: C_2  and  C_12
REMARK    2  A    between atoms: N_3  and  C_4
REMARK    3  A    between atoms: C_4  and  C_5
REMARK    4  A    between atoms: C_5  and  C_6
REMARK    5  A    between atoms: C_6  and  N_7
REMARK    6  A    between atoms: N_16  and  S_17
REMARK    7  A    between atoms: S_17  and  C_20
REMARK                            x       y       z     vdW  Elec       q    Type
REMARK                         _______ _______ _______ _____ _____    ______ ____
ROOT
ATOM      1  C   UNL     1       7.341   5.279  16.516  0.00  0.00    +0.000 C 
ATOM      2  C   UNL     1       7.085   4.725  15.110  0.00  0.00    +0.000 C 
ATOM      3  C   UNL     1       5.599   4.509  14.817  0.00  0.00    +0.000 C 
ATOM      4  C   UNL     1       4.860   3.765  15.936  0.00  0.00    +0.000 C 
ATOM      5  N   UNL     1       5.140   4.418  17.241  0.00  0.00    +0.000 NA
ATOM      6  C   UNL     1       6.612   4.403  17.537  0.00  0.00    +0.000 C 
ENDROOT
BRANCH   1   8
ATOM      7  O   UNL     1       5.907   7.230  16.379  0.00  0.00    +0.000 OA
ATOM      8  C   UNL     1       6.968   6.743  16.766  0.00  0.00    +0.000 C 
ATOM      9  N   UNL     1       7.816   7.463  17.577  0.00  0.00    +0.000 N 
ATOM     10  H   UNL     1       8.688   7.061  17.888  0.00  0.00    +0.000 HD
BRANCH   9  11
ATOM     11  C   UNL     1       7.533   8.845  17.918  0.00  0.00    +0.000 C 
BRANCH  11  12
ATOM     12  C   UNL     1       8.777   9.732  17.917  0.00  0.00    +0.000 C 
BRANCH  12  13
ATOM     13  C   UNL     1       9.212  10.090  19.334  0.00  0.00    +0.000 C 
BRANCH  13  14
ATOM     14  N   UNL     1      10.196  11.152  19.367  0.00  0.00    +0.000 N 
ATOM     15  C   UNL     1      10.545  11.893  20.459  0.00  0.00    +0.000 A 
ATOM     16  C   UNL     1      11.561  12.709  20.019  0.00  0.00    +0.000 A 
ATOM     17  N   UNL     1      11.829  12.482  18.693  0.00  0.00    +0.000 NA
ATOM     18  C   UNL     1      10.987  11.540  18.327  0.00  0.00    +0.000 A 
ENDBRANCH  13  14
ENDBRANCH  12  13
ENDBRANCH  11  12
ENDBRANCH   9  11
ENDBRANCH   1   8
BRANCH   5  19
ATOM     19  S   UNL     1       4.230   3.863  18.582  0.00  0.00    +0.000 S 
ATOM     20  O   UNL     1       3.245   2.938  18.053  0.00  0.00    +0.000 OA
ATOM     21  O   UNL     1       5.141   3.455  19.626  0.00  0.00    +0.000 OA
BRANCH  19  22
ATOM     22  C   UNL     1       3.371   5.293  19.203  0.00  0.00    +0.000 A 
ATOM     23  C   UNL     1       3.322   6.453  18.420  0.00  0.00    +0.000 A 
ATOM     24  C   UNL     1       2.510   7.518  18.812  0.00  0.00    +0.000 A 
ATOM     25  C   UNL     1       1.756   7.414  19.977  0.00  0.00    +0.000 A 
ATOM     26  F   UNL     1       0.957   8.428  20.333  0.00  0.00    +0.000 F 
ATOM     27  C   UNL     1       1.803   6.267  20.764  0.00  0.00    +0.000 A 
ATOM     28  C   UNL     1       2.612   5.193  20.378  0.00  0.00    +0.000 A 
ENDBRANCH  19  22
ENDBRANCH   5  19
TORSDOF 7
ENDMDL
MODEL 9
REMARK VINA RESULT:      -7.0      4.578      6.614
REMARK  Name = 
REMARK  7 active torsions:
REMARK  status: ('A' for Active; 'I' for Inactive)
REMARK    1  A    between atoms: C_2  and  C_12
REMARK    2  A    between atoms: N_3  and  C_4
REMARK    3  A    between atoms: C_4  and  C_5
REMARK    4  A    between atoms: C_5  and  C_6
REMARK    5  A    between atoms: C_6  and  N_7
REMARK    6  A    between atoms: N_16  and  S_17
REMARK    7  A    between atoms: S_17  and  C_20
REMARK                            x       y       z     vdW  Elec       q    Type
REMARK                         _______ _______ _______ _____ _____    ______ ____
ROOT
ATOM      1  C   UNL     1       7.501   5.172  16.912  0.00  0.00    +0.000 C 
ATOM      2  C   UNL     1       7.124   5.220  15.428  0.00  0.00    +0.000 C 
ATOM      3  C   UNL     1       5.617   5.344  15.200  0.00  0.00    +0.000 C 
ATOM      4  C   UNL     1       4.793   4.354  16.031  0.00  0.00    +0.000 C 
ATOM      5  N   UNL     1       5.207   4.430  17.456  0.00  0.00    +0.000 NA
ATOM      6  C   UNL     1       6.663   4.095  17.604  0.00  0.00    +0.000 C 
ENDROOT
BRANCH   1   8
ATOM      7  O   UNL     1       7.240   6.497  18.926  0.00  0.00    +0.000 OA
ATOM      8  C   UNL     1       7.380   6.477  17.705  0.00  0.00    +0.000 C 
ATOM      9  N   UNL     1       7.582   7.644  17.002  0.00  0.00    +0.000 N 
ATOM     10  H   UNL     1       7.691   7.623  15.999  0.00  0.00    +0.000 HD
BRANCH   9  11
ATOM     11  C   UNL     1       7.536   8.934  17.664  0.00  0.00    +0.000 C 
BRANCH  11  12
ATOM     12  C   UNL     1       8.808   9.252  18.450  0.00  0.00    +0.000 C 
BRANCH  12  13
ATOM     13  C   UNL     1       9.281  10.679  18.199  0.00  0.00    +0.000 C 
BRANCH  13  14
ATOM     14  N   UNL     1       9.277  11.490  19.399  0.00  0.00    +0.000 N 
ATOM     15  C   UNL     1       9.148  12.848  19.452  0.00  0.00    +0.000 A 
ATOM     16  C   UNL     1       9.122  13.145  20.795  0.00  0.00    +0.000 A 
ATOM     17  N   UNL     1       9.236  12.005  21.549  0.00  0.00    +0.000 NA
ATOM     18  C   UNL     1       9.332  11.024  20.678  0.00  0.00    +0.000 A 
ENDBRANCH  13  14
ENDBRANCH  12  13
ENDBRANCH  11  12
ENDBRANCH   9  11
ENDBRANCH   1   8
BRANCH   5  19
ATOM     19  S   UNL     1       4.250   3.555  18.575  0.00  0.00    +0.000 S 
ATOM     20  O   UNL     1       3.333   2.751  17.790  0.00  0.00    +0.000 OA
ATOM     21  O   UNL     1       5.120   2.943  19.553  0.00  0.00    +0.000 OA
BRANCH  19  22
ATOM     22  C   UNL     1       3.300   4.779  19.454  0.00  0.00    +0.000 A 
ATOM     23  C   UNL     1       3.361   6.116  19.040  0.00  0.00    +0.000 A 
ATOM     24  C   UNL     1       2.494   7.053  19.601  0.00  0.00    +0.000 A 
ATOM     25  C   UNL     1       1.578   6.648  20.567  0.00  0.00    +0.000 A 
ATOM     26  F   UNL     1       0.729   7.547  21.083  0.00  0.00    +0.000 F 
ATOM     27  C   UNL     1       1.515   5.323  20.988  0.00  0.00    +0.000 A 
ATOM     28  C   UNL     1       2.377   4.375  20.429  0.00  0.00    +0.000 A 
ENDBRANCH  19  22
ENDBRANCH   5  19
TORSDOF 7
ENDMDL
