MODEL 1
REMARK VINA RESULT:      -8.4      0.000      0.000
REMARK  Name = 
REMARK  8 active torsions:
REMARK  status: ('A' for Active; 'I' for Inactive)
REMARK    1  A    between atoms: C_1  and  C_2
REMARK    2  A    between atoms: C_5  and  C_6
REMARK    3  A    between atoms: C_6  and  O_7
REMARK    4  A    between atoms: C_6  and  C_8
REMARK    5  A    between atoms: C_6  and  C_16
REMARK    6  A    between atoms: C_11  and  C_12
REMARK    7  A    between atoms: C_13  and  C_14
REMARK    8  A    between atoms: C_25  and  C_26
REMARK                            x       y       z     vdW  Elec       q    Type
REMARK                         _______ _______ _______ _____ _____    ______ ____
ROOT
ATOM      1  C   UNL     1       2.493   5.359  18.403  0.00  0.00    +0.000 C 
ENDROOT
BRANCH   1   6
ATOM      2  C   UNL     1       1.313  11.055  19.346  0.00  0.00    +0.000 C 
ATOM      3  C   UNL     1       1.528   9.588  19.137  0.00  0.00    +0.000 A 
ATOM      4  C   UNL     1       1.748   9.119  17.840  0.00  0.00    +0.000 A 
ATOM      5  C   UNL     1       2.001   7.771  17.595  0.00  0.00    +0.000 A 
ATOM      6  C   UNL     1       2.074   6.834  18.650  0.00  0.00    +0.000 A 
ATOM      7  C   UNL     1       1.796   7.315  19.940  0.00  0.00    +0.000 A 
ATOM      8  C   UNL     1       1.518   8.672  20.201  0.00  0.00    +0.000 A 
ATOM      9  C   UNL     1       1.213   9.101  21.604  0.00  0.00    +0.000 C 
ENDBRANCH   1   6
BRANCH   1  10
ATOM     10  C   UNL     1       3.810   5.320  17.596  0.00  0.00    +0.000 A 
ATOM     11  C   UNL     1       3.960   4.445  16.505  0.00  0.00    +0.000 A 
ATOM     12  C   UNL     1       5.166   4.359  15.807  0.00  0.00    +0.000 A 
ATOM     13  C   UNL     1       6.270   5.145  16.167  0.00  0.00    +0.000 A 
ATOM     14  C   UNL     1       7.556   4.985  15.406  0.00  0.00    +0.000 C 
ATOM     15  C   UNL     1       6.138   6.049  17.232  0.00  0.00    +0.000 A 
ATOM     16  C   UNL     1       7.260   6.942  17.698  0.00  0.00    +0.000 C 
ATOM     17  C   UNL     1       4.912   6.130  17.922  0.00  0.00    +0.000 A 
ENDBRANCH   1  10
BRANCH   1  18
ATOM     18  C   UNL     1       2.601   4.534  19.739  0.00  0.00    +0.000 C 
ATOM     19  C   UNL     1       1.185   4.230  20.312  0.00  0.00    +0.000 C 
ATOM     20  N   UNL     1       0.990   2.796  20.622  0.00  0.00    +0.000 NA
ATOM     21  C   UNL     1       1.201   2.026  19.372  0.00  0.00    +0.000 C 
ATOM     22  C   UNL     1       2.644   2.143  18.856  0.00  0.00    +0.000 C 
ATOM     23  C   UNL     1       3.388   3.189  19.689  0.00  0.00    +0.000 C 
ATOM     24  C   UNL     1       3.422   2.637  21.135  0.00  0.00    +0.000 C 
ATOM     25  C   UNL     1       1.986   2.398  21.630  0.00  0.00    +0.000 C 
ENDBRANCH   1  18
BRANCH   1  26
ATOM     26  O   UNL     1       1.455   4.738  17.627  0.00  0.00    +0.000 OA
ATOM     27  H   UNL     1       0.634   4.807  18.125  0.00  0.00    +0.000 HD
ENDBRANCH   1  26
TORSDOF 4
ENDMDL
MODEL 2
REMARK VINA RESULT:      -8.4      1.061      5.239
REMARK  Name = 
REMARK  8 active torsions:
REMARK  status: ('A' for Active; 'I' for Inactive)
REMARK    1  A    between atoms: C_1  and  C_2
REMARK    2  A    between atoms: C_5  and  C_6
REMARK    3  A    between atoms: C_6  and  O_7
REMARK    4  A    between atoms: C_6  and  C_8
REMARK    5  A    between atoms: C_6  and  C_16
REMARK    6  A    between atoms: C_11  and  C_12
REMARK    7  A    between atoms: C_13  and  C_14
REMARK    8  A    between atoms: C_25  and  C_26
REMARK                            x       y       z     vdW  Elec       q    Type
REMARK                         _______ _______ _______ _____ _____    ______ ____
ROOT
ATOM      1  C   UNL     1       3.303   5.629  18.975  0.00  0.00    +0.000 C 
ENDROOT
BRANCH   1   6
ATOM      2  C   UNL     1       7.528   5.410  14.873  0.00  0.00    +0.000 C 
ATOM      3  C   UNL     1       6.441   5.554  15.894  0.00  0.00    +0.000 A 
ATOM      4  C   UNL     1       5.275   4.801  15.745  0.00  0.00    +0.000 A 
ATOM      5  C   UNL     1       4.254   4.861  16.691  0.00  0.00    +0.000 A 
ATOM      6  C   UNL     1       4.371   5.663  17.849  0.00  0.00    +0.000 A 
ATOM      7  C   UNL     1       5.527   6.454  17.952  0.00  0.00    +0.000 A 
ATOM      8  C   UNL     1       6.559   6.420  16.993  0.00  0.00    +0.000 A 
ATOM      9  C   UNL     1       7.751   7.311  17.167  0.00  0.00    +0.000 C 
ENDBRANCH   1   6
BRANCH   1  10
ATOM     10  C   UNL     1       2.522   6.963  18.994  0.00  0.00    +0.000 A 
ATOM     11  C   UNL     1       2.336   7.704  17.814  0.00  0.00    +0.000 A 
ATOM     12  C   UNL     1       1.685   8.939  17.830  0.00  0.00    +0.000 A 
ATOM     13  C   UNL     1       1.189   9.482  19.024  0.00  0.00    +0.000 A 
ATOM     14  C   UNL     1       0.530  10.831  18.991  0.00  0.00    +0.000 C 
ATOM     15  C   UNL     1       1.332   8.747  20.211  0.00  0.00    +0.000 A 
ATOM     16  C   UNL     1       0.833   9.236  21.548  0.00  0.00    +0.000 C 
ATOM     17  C   UNL     1       1.986   7.499  20.178  0.00  0.00    +0.000 A 
ENDBRANCH   1  10
BRANCH   1  18
ATOM     18  C   UNL     1       2.341   4.390  18.852  0.00  0.00    +0.000 C 
ATOM     19  C   UNL     1       3.155   3.062  18.847  0.00  0.00    +0.000 C 
ATOM     20  N   UNL     1       2.654   2.081  19.836  0.00  0.00    +0.000 NA
ATOM     21  C   UNL     1       2.726   2.708  21.178  0.00  0.00    +0.000 C 
ATOM     22  C   UNL     1       1.796   3.926  21.300  0.00  0.00    +0.000 C 
ATOM     23  C   UNL     1       1.215   4.247  19.921  0.00  0.00    +0.000 C 
ATOM     24  C   UNL     1       0.368   3.016  19.518  0.00  0.00    +0.000 C 
ATOM     25  C   UNL     1       1.255   1.760  19.507  0.00  0.00    +0.000 C 
ENDBRANCH   1  18
BRANCH   1  26
ATOM     26  O   UNL     1       3.996   5.480  20.225  0.00  0.00    +0.000 OA
ATOM     27  H   UNL     1       3.433   4.969  20.815  0.00  0.00    +0.000 HD
ENDBRANCH   1  26
TORSDOF 4
ENDMDL
MODEL 3
REMARK VINA RESULT:      -8.3      1.226      5.334
REMARK  Name = 
REMARK  8 active torsions:
REMARK  status: ('A' for Active; 'I' for Inactive)
REMARK    1  A    between atoms: C_1  and  C_2
REMARK    2  A    between atoms: C_5  and  C_6
REMARK    3  A    between atoms: C_6  and  O_7
REMARK    4  A    between atoms: C_6  and  C_8
REMARK    5  A    between atoms: C_6  and  C_16
REMARK    6  A    between atoms: C_11  and  C_12
REMARK    7  A    between atoms: C_13  and  C_14
REMARK    8  A    between atoms: C_25  and  C_26
REMARK                            x       y       z     vdW  Elec       q    Type
REMARK                         _______ _______ _______ _____ _____    ______ ____
ROOT
ATOM      1  C   UNL     1       3.853   5.235  18.833  0.00  0.00    +0.000 C 
ENDROOT
BRANCH   1   6
ATOM      2  C   UNL     1       7.823   5.658  14.498  0.00  0.00    +0.000 C 
ATOM      3  C   UNL     1       6.830   5.460  15.603  0.00  0.00    +0.000 A 
ATOM      4  C   UNL     1       7.065   6.073  16.835  0.00  0.00    +0.000 A 
ATOM      5  C   UNL     1       6.150   5.961  17.880  0.00  0.00    +0.000 A 
ATOM      6  C   UNL     1       4.940   5.248  17.724  0.00  0.00    +0.000 A 
ATOM      7  C   UNL     1       4.748   4.594  16.497  0.00  0.00    +0.000 A 
ATOM      8  C   UNL     1       5.674   4.680  15.437  0.00  0.00    +0.000 A 
ATOM      9  C   UNL     1       5.404   3.935  14.165  0.00  0.00    +0.000 C 
ENDBRANCH   1   6
BRANCH   1  10
ATOM     10  C   UNL     1       3.041   6.550  18.783  0.00  0.00    +0.000 A 
ATOM     11  C   UNL     1       2.937   7.286  17.590  0.00  0.00    +0.000 A 
ATOM     12  C   UNL     1       2.258   8.505  17.549  0.00  0.00    +0.000 A 
ATOM     13  C   UNL     1       1.651   9.036  18.696  0.00  0.00    +0.000 A 
ATOM     14  C   UNL     1       0.964  10.369  18.605  0.00  0.00    +0.000 C 
ATOM     15  C   UNL     1       1.712   8.305  19.893  0.00  0.00    +0.000 A 
ATOM     16  C   UNL     1       1.091   8.783  21.182  0.00  0.00    +0.000 C 
ATOM     17  C   UNL     1       2.395   7.074  19.917  0.00  0.00    +0.000 A 
ENDBRANCH   1  10
BRANCH   1  18
ATOM     18  C   UNL     1       2.921   3.969  18.745  0.00  0.00    +0.000 C 
ATOM     19  C   UNL     1       3.464   2.825  19.653  0.00  0.00    +0.000 C 
ATOM     20  N   UNL     1       2.431   2.278  20.561  0.00  0.00    +0.000 NA
ATOM     21  C   UNL     1       1.928   3.389  21.403  0.00  0.00    +0.000 C 
ATOM     22  C   UNL     1       1.215   4.469  20.573  0.00  0.00    +0.000 C 
ATOM     23  C   UNL     1       1.412   4.164  19.086  0.00  0.00    +0.000 C 
ATOM     24  C   UNL     1       0.717   2.805  18.832  0.00  0.00    +0.000 C 
ATOM     25  C   UNL     1       1.335   1.731  19.743  0.00  0.00    +0.000 C 
ENDBRANCH   1  18
BRANCH   1  26
ATOM     26  O   UNL     1       4.527   5.154  20.100  0.00  0.00    +0.000 OA
ATOM     27  H   UNL     1       4.328   5.958  20.591  0.00  0.00    +0.000 HD
ENDBRANCH   1  26
TORSDOF 4
ENDMDL
MODEL 4
REMARK VINA RESULT:      -8.2      1.355      5.290
REMARK  Name = 
REMARK  8 active torsions:
REMARK  status: ('A' for Active; 'I' for Inactive)
REMARK    1  A    between atoms: C_1  and  C_2
REMARK    2  A    between atoms: C_5  and  C_6
REMARK    3  A    between atoms: C_6  and  O_7
REMARK    4  A    between atoms: C_6  and  C_8
REMARK    5  A    between atoms: C_6  and  C_16
REMARK    6  A    between atoms: C_11  and  C_12
REMARK    7  A    between atoms: C_13  and  C_14
REMARK    8  A    between atoms: C_25  and  C_26
REMARK                            x       y       z     vdW  Elec       q    Type
REMARK                         _______ _______ _______ _____ _____    ______ ____
ROOT
ATOM      1  C   UNL     1       3.093   5.897  19.129  0.00  0.00    +0.000 C 
ENDROOT
BRANCH   1   6
ATOM      2  C   UNL     1       7.311   5.173  15.078  0.00  0.00    +0.000 C 
ATOM      3  C   UNL     1       6.294   5.417  16.150  0.00  0.00    +0.000 A 
ATOM      4  C   UNL     1       5.071   5.990  15.799  0.00  0.00    +0.000 A 
ATOM      5  C   UNL     1       4.072   6.194  16.748  0.00  0.00    +0.000 A 
ATOM      6  C   UNL     1       4.248   5.803  18.095  0.00  0.00    +0.000 A 
ATOM      7  C   UNL     1       5.505   5.279  18.440  0.00  0.00    +0.000 A 
ATOM      8  C   UNL     1       6.532   5.086  17.494  0.00  0.00    +0.000 A 
ATOM      9  C   UNL     1       7.852   4.540  17.947  0.00  0.00    +0.000 C 
ENDBRANCH   1   6
BRANCH   1  10
ATOM     10  C   UNL     1       2.431   7.291  19.046  0.00  0.00    +0.000 A 
ATOM     11  C   UNL     1       2.535   8.069  17.880  0.00  0.00    +0.000 A 
ATOM     12  C   UNL     1       1.992   9.354  17.816  0.00  0.00    +0.000 A 
ATOM     13  C   UNL     1       1.320   9.912  18.912  0.00  0.00    +0.000 A 
ATOM     14  C   UNL     1       0.788  11.313  18.803  0.00  0.00    +0.000 C 
ATOM     15  C   UNL     1       1.174   9.145  20.078  0.00  0.00    +0.000 A 
ATOM     16  C   UNL     1       0.467   9.648  21.312  0.00  0.00    +0.000 C 
ATOM     17  C   UNL     1       1.721   7.847  20.125  0.00  0.00    +0.000 A 
ENDBRANCH   1  10
BRANCH   1  18
ATOM     18  C   UNL     1       2.041   4.739  18.959  0.00  0.00    +0.000 C 
ATOM     19  C   UNL     1       2.384   3.864  17.716  0.00  0.00    +0.000 C 
ATOM     20  N   UNL     1       2.427   2.418  18.030  0.00  0.00    +0.000 NA
ATOM     21  C   UNL     1       3.447   2.211  19.086  0.00  0.00    +0.000 C 
ATOM     22  C   UNL     1       3.067   2.906  20.404  0.00  0.00    +0.000 C 
ATOM     23  C   UNL     1       1.831   3.777  20.168  0.00  0.00    +0.000 C 
ATOM     24  C   UNL     1       0.693   2.805  19.775  0.00  0.00    +0.000 C 
ATOM     25  C   UNL     1       1.102   2.009  18.525  0.00  0.00    +0.000 C 
ENDBRANCH   1  18
BRANCH   1  26
ATOM     26  O   UNL     1       3.667   5.733  20.436  0.00  0.00    +0.000 OA
ATOM     27  H   UNL     1       3.160   5.057  20.897  0.00  0.00    +0.000 HD
ENDBRANCH   1  26
TORSDOF 4
ENDMDL
MODEL 5
REMARK VINA RESULT:      -8.1      0.440      1.332
REMARK  Name = 
REMARK  8 active torsions:
REMARK  status: ('A' for Active; 'I' for Inactive)
REMARK    1  A    between atoms: C_1  and  C_2
REMARK    2  A    between atoms: C_5  and  C_6
REMARK    3  A    between atoms: C_6  and  O_7
REMARK    4  A    between atoms: C_6  and  C_8
REMARK    5  A    between atoms: C_6  and  C_16
REMARK    6  A    between atoms: C_11  and  C_12
REMARK    7  A    between atoms: C_13  and  C_14
REMARK    8  A    between atoms: C_25  and  C_26
REMARK                            x       y       z     vdW  Elec       q    Type
REMARK                         _______ _______ _______ _____ _____    ______ ____
ROOT
ATOM      1  C   UNL     1       2.448   5.444  18.531  0.00  0.00    +0.000 C 
ENDROOT
BRANCH   1   6
ATOM      2  C   UNL     1       1.284  11.162  19.354  0.00  0.00    +0.000 C 
ATOM      3  C   UNL     1       1.494   9.690  19.172  0.00  0.00    +0.000 A 
ATOM      4  C   UNL     1       1.752   9.201  17.890  0.00  0.00    +0.000 A 
ATOM      5  C   UNL     1       2.002   7.848  17.673  0.00  0.00    +0.000 A 
ATOM      6  C   UNL     1       2.032   6.925  18.743  0.00  0.00    +0.000 A 
ATOM      7  C   UNL     1       1.716   7.427  20.016  0.00  0.00    +0.000 A 
ATOM      8  C   UNL     1       1.440   8.790  20.248  0.00  0.00    +0.000 A 
ATOM      9  C   UNL     1       1.092   9.241  21.634  0.00  0.00    +0.000 C 
ENDBRANCH   1   6
BRANCH   1  10
ATOM     10  C   UNL     1       3.846   5.383  17.875  0.00  0.00    +0.000 A 
ATOM     11  C   UNL     1       4.957   5.982  18.494  0.00  0.00    +0.000 A 
ATOM     12  C   UNL     1       6.212   5.986  17.882  0.00  0.00    +0.000 A 
ATOM     13  C   UNL     1       6.409   5.387  16.629  0.00  0.00    +0.000 A 
ATOM     14  C   UNL     1       7.771   5.452  15.998  0.00  0.00    +0.000 C 
ATOM     15  C   UNL     1       5.323   4.753  16.004  0.00  0.00    +0.000 A 
ATOM     16  C   UNL     1       5.427   4.077  14.660  0.00  0.00    +0.000 C 
ATOM     17  C   UNL     1       4.065   4.752  16.638  0.00  0.00    +0.000 A 
ENDBRANCH   1  10
BRANCH   1  18
ATOM     18  C   UNL     1       2.389   4.608  19.863  0.00  0.00    +0.000 C 
ATOM     19  C   UNL     1       0.921   4.207  20.195  0.00  0.00    +0.000 C 
ATOM     20  N   UNL     1       0.771   2.758  20.462  0.00  0.00    +0.000 NA
ATOM     21  C   UNL     1       1.232   2.022  19.261  0.00  0.00    +0.000 C 
ATOM     22  C   UNL     1       2.730   2.237  18.988  0.00  0.00    +0.000 C 
ATOM     23  C   UNL     1       3.258   3.315  19.937  0.00  0.00    +0.000 C 
ATOM     24  C   UNL     1       3.092   2.746  21.366  0.00  0.00    +0.000 C 
ATOM     25  C   UNL     1       1.613   2.409  21.619  0.00  0.00    +0.000 C 
ENDBRANCH   1  18
BRANCH   1  26
ATOM     26  O   UNL     1       1.491   4.849  17.638  0.00  0.00    +0.000 OA
ATOM     27  H   UNL     1       1.873   4.849  16.755  0.00  0.00    +0.000 HD
ENDBRANCH   1  26
TORSDOF 4
ENDMDL
MODEL 6
REMARK VINA RESULT:      -7.8      1.794      5.911
REMARK  Name = 
REMARK  8 active torsions:
REMARK  status: ('A' for Active; 'I' for Inactive)
REMARK    1  A    between atoms: C_1  and  C_2
REMARK    2  A    between atoms: C_5  and  C_6
REMARK    3  A    between atoms: C_6  and  O_7
REMARK    4  A    between atoms: C_6  and  C_8
REMARK    5  A    between atoms: C_6  and  C_16
REMARK    6  A    between atoms: C_11  and  C_12
REMARK    7  A    between atoms: C_13  and  C_14
REMARK    8  A    between atoms: C_25  and  C_26
REMARK                            x       y       z     vdW  Elec       q    Type
REMARK                         _______ _______ _______ _____ _____    ______ ____
ROOT
ATOM      1  C   UNL     1       3.833   6.398  17.832  0.00  0.00    +0.000 C 
ENDROOT
BRANCH   1   6
ATOM      2  C   UNL     1       1.115   1.265  18.832  0.00  0.00    +0.000 C 
ATOM      3  C   UNL     1       1.864   2.550  18.647  0.00  0.00    +0.000 A 
ATOM      4  C   UNL     1       2.539   2.766  17.445  0.00  0.00    +0.000 A 
ATOM      5  C   UNL     1       3.210   3.963  17.201  0.00  0.00    +0.000 A 
ATOM      6  C   UNL     1       3.209   5.011  18.149  0.00  0.00    +0.000 A 
ATOM      7  C   UNL     1       2.571   4.753  19.373  0.00  0.00    +0.000 A 
ATOM      8  C   UNL     1       1.905   3.540  19.641  0.00  0.00    +0.000 A 
ATOM      9  C   UNL     1       1.266   3.336  20.981  0.00  0.00    +0.000 C 
ENDBRANCH   1   6
BRANCH   1  10
ATOM     10  C   UNL     1       2.889   7.519  18.321  0.00  0.00    +0.000 A 
ATOM     11  C   UNL     1       2.584   8.615  17.494  0.00  0.00    +0.000 A 
ATOM     12  C   UNL     1       1.781   9.663  17.947  0.00  0.00    +0.000 A 
ATOM     13  C   UNL     1       1.247   9.658  19.244  0.00  0.00    +0.000 A 
ATOM     14  C   UNL     1       0.420  10.829  19.694  0.00  0.00    +0.000 C 
ATOM     15  C   UNL     1       1.509   8.561  20.079  0.00  0.00    +0.000 A 
ATOM     16  C   UNL     1       0.982   8.454  21.488  0.00  0.00    +0.000 C 
ATOM     17  C   UNL     1       2.315   7.508  19.605  0.00  0.00    +0.000 A 
ENDBRANCH   1  10
BRANCH   1  18
ATOM     18  C   UNL     1       5.282   6.553  18.425  0.00  0.00    +0.000 C 
ATOM     19  C   UNL     1       5.693   5.273  19.212  0.00  0.00    +0.000 C 
ATOM     20  N   UNL     1       7.009   4.742  18.791  0.00  0.00    +0.000 NA
ATOM     21  C   UNL     1       6.937   4.438  17.342  0.00  0.00    +0.000 C 
ATOM     22  C   UNL     1       6.714   5.701  16.495  0.00  0.00    +0.000 C 
ATOM     23  C   UNL     1       6.434   6.882  17.428  0.00  0.00    +0.000 C 
ATOM     24  C   UNL     1       7.717   7.072  18.272  0.00  0.00    +0.000 C 
ATOM     25  C   UNL     1       8.028   5.775  19.037  0.00  0.00    +0.000 C 
ENDBRANCH   1  18
BRANCH   1  26
ATOM     26  O   UNL     1       3.968   6.495  16.404  0.00  0.00    +0.000 OA
ATOM     27  H   UNL     1       4.890   6.330  16.184  0.00  0.00    +0.000 HD
ENDBRANCH   1  26
TORSDOF 4
ENDMDL
MODEL 7
REMARK VINA RESULT:      -7.8      0.597      1.371
REMARK  Name = 
REMARK  8 active torsions:
REMARK  status: ('A' for Active; 'I' for Inactive)
REMARK    1  A    between atoms: C_1  and  C_2
REMARK    2  A    between atoms: C_5  and  C_6
REMARK    3  A    between atoms: C_6  and  O_7
REMARK    4  A    between atoms: C_6  and  C_8
REMARK    5  A    between atoms: C_6  and  C_16
REMARK    6  A    between atoms: C_11  and  C_12
REMARK    7  A    between atoms: C_13  and  C_14
REMARK    8  A    between atoms: C_25  and  C_26
REMARK                            x       y       z     vdW  Elec       q    Type
REMARK                         _______ _______ _______ _____ _____    ______ ____
ROOT
ATOM      1  C   UNL     1       2.554   5.377  18.819  0.00  0.00    +0.000 C 
ENDROOT
BRANCH   1   6
ATOM      2  C   UNL     1       0.832  10.808  20.328  0.00  0.00    +0.000 C 
ATOM      3  C   UNL     1       1.354   9.462  19.928  0.00  0.00    +0.000 A 
ATOM      4  C   UNL     1       1.379   8.441  20.880  0.00  0.00    +0.000 A 
ATOM      5  C   UNL     1       1.808   7.158  20.548  0.00  0.00    +0.000 A 
ATOM      6  C   UNL     1       2.208   6.834  19.231  0.00  0.00    +0.000 A 
ATOM      7  C   UNL     1       2.227   7.887  18.303  0.00  0.00    +0.000 A 
ATOM      8  C   UNL     1       1.815   9.195  18.629  0.00  0.00    +0.000 A 
ATOM      9  C   UNL     1       1.885  10.268  17.584  0.00  0.00    +0.000 C 
ENDBRANCH   1   6
BRANCH   1  10
ATOM     10  C   UNL     1       3.868   5.363  18.007  0.00  0.00    +0.000 A 
ATOM     11  C   UNL     1       3.910   4.810  16.715  0.00  0.00    +0.000 A 
ATOM     12  C   UNL     1       5.105   4.738  15.997  0.00  0.00    +0.000 A 
ATOM     13  C   UNL     1       6.306   5.218  16.538  0.00  0.00    +0.000 A 
ATOM     14  C   UNL     1       7.571   5.081  15.738  0.00  0.00    +0.000 C 
ATOM     15  C   UNL     1       6.287   5.804  17.813  0.00  0.00    +0.000 A 
ATOM     16  C   UNL     1       7.520   6.353  18.486  0.00  0.00    +0.000 C 
ATOM     17  C   UNL     1       5.072   5.876  18.523  0.00  0.00    +0.000 A 
ENDBRANCH   1  10
BRANCH   1  18
ATOM     18  C   UNL     1       2.619   4.404  20.055  0.00  0.00    +0.000 C 
ATOM     19  C   UNL     1       1.185   4.015  20.523  0.00  0.00    +0.000 C 
ATOM     20  N   UNL     1       1.006   2.551  20.655  0.00  0.00    +0.000 NA
ATOM     21  C   UNL     1       1.287   1.936  19.336  0.00  0.00    +0.000 C 
ATOM     22  C   UNL     1       2.749   2.133  18.904  0.00  0.00    +0.000 C 
ATOM     23  C   UNL     1       3.434   3.086  19.887  0.00  0.00    +0.000 C 
ATOM     24  C   UNL     1       3.415   2.370  21.258  0.00  0.00    +0.000 C 
ATOM     25  C   UNL     1       1.964   2.053  21.656  0.00  0.00    +0.000 C 
ENDBRANCH   1  18
BRANCH   1  26
ATOM     26  O   UNL     1       1.487   4.899  17.984  0.00  0.00    +0.000 OA
ATOM     27  H   UNL     1       1.562   3.941  17.931  0.00  0.00    +0.000 HD
ENDBRANCH   1  26
TORSDOF 4
ENDMDL
MODEL 8
REMARK VINA RESULT:      -7.5      1.998      4.719
REMARK  Name = 
REMARK  8 active torsions:
REMARK  status: ('A' for Active; 'I' for Inactive)
REMARK    1  A    between atoms: C_1  and  C_2
REMARK    2  A    between atoms: C_5  and  C_6
REMARK    3  A    between atoms: C_6  and  O_7
REMARK    4  A    between atoms: C_6  and  C_8
REMARK    5  A    between atoms: C_6  and  C_16
REMARK    6  A    between atoms: C_11  and  C_12
REMARK    7  A    between atoms: C_13  and  C_14
REMARK    8  A    between atoms: C_25  and  C_26
REMARK                            x       y       z     vdW  Elec       q    Type
REMARK                         _______ _______ _______ _____ _____    ______ ____
ROOT
ATOM      1  C   UNL     1       3.712   6.298  18.556  0.00  0.00    +0.000 C 
ENDROOT
BRANCH   1   6
ATOM      2  C   UNL     1       0.401  11.148  19.057  0.00  0.00    +0.000 C 
ATOM      3  C   UNL     1       1.166   9.865  18.936  0.00  0.00    +0.000 A 
ATOM      4  C   UNL     1       1.862   9.606  17.754  0.00  0.00    +0.000 A 
ATOM      5  C   UNL     1       2.628   8.452  17.607  0.00  0.00    +0.000 A 
ATOM      6  C   UNL     1       2.752   7.514  18.658  0.00  0.00    +0.000 A 
ATOM      7  C   UNL     1       2.000   7.765  19.817  0.00  0.00    +0.000 A 
ATOM      8  C   UNL     1       1.205   8.918  19.972  0.00  0.00    +0.000 A 
ATOM      9  C   UNL     1       0.418   9.102  21.234  0.00  0.00    +0.000 C 
ENDBRANCH   1   6
BRANCH   1  10
ATOM     10  C   UNL     1       2.917   4.987  18.749  0.00  0.00    +0.000 A 
ATOM     11  C   UNL     1       2.068   4.505  17.738  0.00  0.00    +0.000 A 
ATOM     12  C   UNL     1       1.299   3.355  17.926  0.00  0.00    +0.000 A 
ATOM     13  C   UNL     1       1.350   2.637  19.129  0.00  0.00    +0.000 A 
ATOM     14  C   UNL     1       0.473   1.428  19.293  0.00  0.00    +0.000 C 
ATOM     15  C   UNL     1       2.214   3.079  20.144  0.00  0.00    +0.000 A 
ATOM     16  C   UNL     1       2.347   2.380  21.474  0.00  0.00    +0.000 C 
ATOM     17  C   UNL     1       2.988   4.237  19.937  0.00  0.00    +0.000 A 
ENDBRANCH   1  10
BRANCH   1  18
ATOM     18  C   UNL     1       4.532   6.292  17.212  0.00  0.00    +0.000 C 
ATOM     19  C   UNL     1       5.928   6.952  17.417  0.00  0.00    +0.000 C 
ATOM     20  N   UNL     1       7.037   6.105  16.925  0.00  0.00    +0.000 NA
ATOM     21  C   UNL     1       6.982   4.813  17.651  0.00  0.00    +0.000 C 
ATOM     22  C   UNL     1       5.698   4.028  17.340  0.00  0.00    +0.000 C 
ATOM     23  C   UNL     1       4.760   4.915  16.517  0.00  0.00    +0.000 C 
ATOM     24  C   UNL     1       5.499   5.201  15.188  0.00  0.00    +0.000 C 
ATOM     25  C   UNL     1       6.847   5.880  15.483  0.00  0.00    +0.000 C 
ENDBRANCH   1  18
BRANCH   1  26
ATOM     26  O   UNL     1       4.675   6.417  19.616  0.00  0.00    +0.000 OA
ATOM     27  H   UNL     1       5.086   5.555  19.738  0.00  0.00    +0.000 HD
ENDBRANCH   1  26
TORSDOF 4
ENDMDL
MODEL 9
REMARK VINA RESULT:      -7.5      1.423      5.269
REMARK  Name = 
REMARK  8 active torsions:
REMARK  status: ('A' for Active; 'I' for Inactive)
REMARK    1  A    between atoms: C_1  and  C_2
REMARK    2  A    between atoms: C_5  and  C_6
REMARK    3  A    between atoms: C_6  and  O_7
REMARK    4  A    between atoms: C_6  and  C_8
REMARK    5  A    between atoms: C_6  and  C_16
REMARK    6  A    between atoms: C_11  and  C_12
REMARK    7  A    between atoms: C_13  and  C_14
REMARK    8  A    between atoms: C_25  and  C_26
REMARK                            x       y       z     vdW  Elec       q    Type
REMARK                         _______ _______ _______ _____ _____    ______ ____
ROOT
ATOM      1  C   UNL     1       2.638   5.927  19.658  0.00  0.00    +0.000 C 
ENDROOT
BRANCH   1   6
ATOM      2  C   UNL     1       7.700   5.800  16.643  0.00  0.00    +0.000 C 
ATOM      3  C   UNL     1       6.380   5.770  17.350  0.00  0.00    +0.000 A 
ATOM      4  C   UNL     1       6.333   5.313  18.668  0.00  0.00    +0.000 A 
ATOM      5  C   UNL     1       5.140   5.310  19.388  0.00  0.00    +0.000 A 
ATOM      6  C   UNL     1       3.940   5.795  18.821  0.00  0.00    +0.000 A 
ATOM      7  C   UNL     1       3.996   6.199  17.477  0.00  0.00    +0.000 A 
ATOM      8  C   UNL     1       5.191   6.188  16.731  0.00  0.00    +0.000 A 
ATOM      9  C   UNL     1       5.163   6.617  15.295  0.00  0.00    +0.000 C 
ENDBRANCH   1   6
BRANCH   1  10
ATOM     10  C   UNL     1       2.025   7.330  19.451  0.00  0.00    +0.000 A 
ATOM     11  C   UNL     1       2.030   7.938  18.184  0.00  0.00    +0.000 A 
ATOM     12  C   UNL     1       1.533   9.230  17.999  0.00  0.00    +0.000 A 
ATOM     13  C   UNL     1       1.007   9.965  19.071  0.00  0.00    +0.000 A 
ATOM     14  C   UNL     1       0.520  11.365  18.824  0.00  0.00    +0.000 C 
ATOM     15  C   UNL     1       0.961   9.369  20.341  0.00  0.00    +0.000 A 
ATOM     16  C   UNL     1       0.413  10.070  21.559  0.00  0.00    +0.000 C 
ATOM     17  C   UNL     1       1.459   8.063  20.510  0.00  0.00    +0.000 A 
ENDBRANCH   1  10
BRANCH   1  18
ATOM     18  C   UNL     1       1.603   4.784  19.341  0.00  0.00    +0.000 C 
ATOM     19  C   UNL     1       1.965   4.071  18.003  0.00  0.00    +0.000 C 
ATOM     20  N   UNL     1       2.027   2.599  18.139  0.00  0.00    +0.000 NA
ATOM     21  C   UNL     1       3.045   2.278  19.169  0.00  0.00    +0.000 C 
ATOM     22  C   UNL     1       2.648   2.803  20.559  0.00  0.00    +0.000 C 
ATOM     23  C   UNL     1       1.401   3.679  20.422  0.00  0.00    +0.000 C 
ATOM     24  C   UNL     1       0.279   2.748  19.906  0.00  0.00    +0.000 C 
ATOM     25  C   UNL     1       0.705   2.115  18.572  0.00  0.00    +0.000 C 
ENDBRANCH   1  18
BRANCH   1  26
ATOM     26  O   UNL     1       2.996   5.776  21.041  0.00  0.00    +0.000 OA
ATOM     27  H   UNL     1       2.754   4.885  21.312  0.00  0.00    +0.000 HD
ENDBRANCH   1  26
TORSDOF 4
ENDMDL
