MODEL 1
REMARK VINA RESULT:      -7.8      0.000      0.000
REMARK  Name = 
REMARK  6 active torsions:
REMARK  status: ('A' for Active; 'I' for Inactive)
REMARK    1  A    between atoms: C_1  and  C_2
REMARK    2  A    between atoms: C_2  and  C_3
REMARK    3  A    between atoms: C_3  and  C_4
REMARK    4  A    between atoms: C_3  and  C_20
REMARK    5  A    between atoms: N_6  and  C_7
REMARK    6  A    between atoms: C_12  and  N_13
REMARK                            x       y       z     vdW  Elec       q    Type
REMARK                         _______ _______ _______ _____ _____    ______ ____
ROOT
ATOM      1  C   UNL     1       3.534   4.727  17.424  0.00  0.00    +0.000 C 
ATOM      2  O   UNL     1       3.755   3.515  17.510  0.00  0.00    +0.000 OA
ATOM      3  N   UNL     1       4.285   5.614  16.663  0.00  0.00    +0.000 N 
ATOM      4  H   UNL     1       4.116   6.609  16.788  0.00  0.00    +0.000 HD
ENDROOT
BRANCH   3   5
ATOM      5  C   UNL     1       5.306   5.263  15.738  0.00  0.00    +0.000 A 
ATOM      6  C   UNL     1       4.956   4.732  14.484  0.00  0.00    +0.000 A 
ATOM      7  C   UNL     1       5.921   4.355  13.548  0.00  0.00    +0.000 A 
ATOM      8  C   UNL     1       7.265   4.496  13.849  0.00  0.00    +0.000 A 
ATOM      9  C   UNL     1       7.640   5.005  15.090  0.00  0.00    +0.000 A 
ATOM     10  C   UNL     1       6.681   5.403  16.049  0.00  0.00    +0.000 A 
BRANCH  10  11
ATOM     11  N   UNL     1       7.174   5.870  17.300  0.00  0.00    +0.000 N 
ATOM     12  C   UNL     1       7.677   7.120  17.527  0.00  0.00    +0.000 C 
ATOM     13  O   UNL     1       7.713   8.070  16.754  0.00  0.00    +0.000 OA
ATOM     14  C   UNL     1       8.218   7.191  18.924  0.00  0.00    +0.000 C 
ATOM     15  C   UNL     1       7.881   5.851  19.534  0.00  0.00    +0.000 C 
ATOM     16  C   UNL     1       7.250   5.073  18.419  0.00  0.00    +0.000 C 
ATOM     17  O   UNL     1       6.844   3.929  18.568  0.00  0.00    +0.000 OA
ENDBRANCH  10  11
ENDBRANCH   3   5
BRANCH   1  18
ATOM     18  C   UNL     1       2.415   5.371  18.253  0.00  0.00    +0.000 C 
BRANCH  18  19
ATOM     19  C   UNL     1       1.996   4.480  19.424  0.00  0.00    +0.000 A 
ATOM     20  C   UNL     1       2.587   4.630  20.687  0.00  0.00    +0.000 A 
ATOM     21  C   UNL     1       2.263   3.759  21.732  0.00  0.00    +0.000 A 
ATOM     22  C   UNL     1       1.345   2.727  21.532  0.00  0.00    +0.000 A 
ATOM     23  C   UNL     1       0.731   2.582  20.292  0.00  0.00    +0.000 A 
ATOM     24  C   UNL     1       1.049   3.453  19.251  0.00  0.00    +0.000 A 
ENDBRANCH  18  19
BRANCH  18  26
ATOM     25  C   UNL     1       2.202   7.931  18.118  0.00  0.00    +0.000 C 
ATOM     26  C   UNL     1       2.873   6.746  18.798  0.00  0.00    +0.000 C 
ENDBRANCH  18  26
ENDBRANCH   1  18
TORSDOF 5
ENDMDL
MODEL 2
REMARK VINA RESULT:      -7.5      2.450      4.718
REMARK  Name = 
REMARK  6 active torsions:
REMARK  status: ('A' for Active; 'I' for Inactive)
REMARK    1  A    between atoms: C_1  and  C_2
REMARK    2  A    between atoms: C_2  and  C_3
REMARK    3  A    between atoms: C_3  and  C_4
REMARK    4  A    between atoms: C_3  and  C_20
REMARK    5  A    between atoms: N_6  and  C_7
REMARK    6  A    between atoms: C_12  and  N_13
REMARK                            x       y       z     vdW  Elec       q    Type
REMARK                         _______ _______ _______ _____ _____    ______ ____
ROOT
ATOM      1  C   UNL     1       2.617   6.545  18.603  0.00  0.00    +0.000 C 
ATOM      2  O   UNL     1       1.722   5.997  17.953  0.00  0.00    +0.000 OA
ATOM      3  N   UNL     1       3.973   6.446  18.317  0.00  0.00    +0.000 N 
ATOM      4  H   UNL     1       4.632   6.803  19.005  0.00  0.00    +0.000 HD
ENDROOT
BRANCH   3   5
ATOM      5  C   UNL     1       4.540   5.854  17.155  0.00  0.00    +0.000 A 
ATOM      6  C   UNL     1       5.022   6.675  16.120  0.00  0.00    +0.000 A 
ATOM      7  C   UNL     1       5.570   6.143  14.952  0.00  0.00    +0.000 A 
ATOM      8  C   UNL     1       5.646   4.770  14.790  0.00  0.00    +0.000 A 
ATOM      9  C   UNL     1       5.163   3.933  15.793  0.00  0.00    +0.000 A 
ATOM     10  C   UNL     1       4.612   4.449  16.988  0.00  0.00    +0.000 A 
BRANCH  10  11
ATOM     11  N   UNL     1       4.110   3.505  17.927  0.00  0.00    +0.000 N 
ATOM     12  C   UNL     1       4.693   3.207  19.127  0.00  0.00    +0.000 C 
ATOM     13  O   UNL     1       5.668   3.739  19.644  0.00  0.00    +0.000 OA
ATOM     14  C   UNL     1       3.951   2.074  19.771  0.00  0.00    +0.000 C 
ATOM     15  C   UNL     1       2.788   1.803  18.847  0.00  0.00    +0.000 C 
ATOM     16  C   UNL     1       2.994   2.737  17.693  0.00  0.00    +0.000 C 
ATOM     17  O   UNL     1       2.219   2.788  16.747  0.00  0.00    +0.000 OA
ENDBRANCH  10  11
ENDBRANCH   3   5
BRANCH   1  18
ATOM     18  C   UNL     1       2.279   7.340  19.871  0.00  0.00    +0.000 C 
BRANCH  18  19
ATOM     19  C   UNL     1       1.453   8.588  19.551  0.00  0.00    +0.000 A 
ATOM     20  C   UNL     1       0.626   9.168  20.522  0.00  0.00    +0.000 A 
ATOM     21  C   UNL     1      -0.192  10.256  20.202  0.00  0.00    +0.000 A 
ATOM     22  C   UNL     1      -0.195  10.781  18.909  0.00  0.00    +0.000 A 
ATOM     23  C   UNL     1       0.641  10.232  17.942  0.00  0.00    +0.000 A 
ATOM     24  C   UNL     1       1.460   9.150  18.261  0.00  0.00    +0.000 A 
ENDBRANCH  18  19
BRANCH  18  26
ATOM     25  C   UNL     1       1.991   5.015  20.933  0.00  0.00    +0.000 C 
ATOM     26  C   UNL     1       1.496   6.453  20.869  0.00  0.00    +0.000 C 
ENDBRANCH  18  26
ENDBRANCH   1  18
TORSDOF 5
ENDMDL
MODEL 3
REMARK VINA RESULT:      -7.4      2.761      5.607
REMARK  Name = 
REMARK  6 active torsions:
REMARK  status: ('A' for Active; 'I' for Inactive)
REMARK    1  A    between atoms: C_1  and  C_2
REMARK    2  A    between atoms: C_2  and  C_3
REMARK    3  A    between atoms: C_3  and  C_4
REMARK    4  A    between atoms: C_3  and  C_20
REMARK    5  A    between atoms: N_6  and  C_7
REMARK    6  A    between atoms: C_12  and  N_13
REMARK                            x       y       z     vdW  Elec       q    Type
REMARK                         _______ _______ _______ _____ _____    ______ ____
ROOT
ATOM      1  C   UNL     1       2.572   8.138  18.173  0.00  0.00    +0.000 C 
ATOM      2  O   UNL     1       2.442   8.589  17.031  0.00  0.00    +0.000 OA
ATOM      3  N   UNL     1       3.181   6.927  18.478  0.00  0.00    +0.000 N 
ATOM      4  H   UNL     1       3.093   6.576  19.429  0.00  0.00    +0.000 HD
ENDROOT
BRANCH   3   5
ATOM      5  C   UNL     1       3.894   6.099  17.569  0.00  0.00    +0.000 A 
ATOM      6  C   UNL     1       4.767   6.682  16.634  0.00  0.00    +0.000 A 
ATOM      7  C   UNL     1       5.476   5.915  15.708  0.00  0.00    +0.000 A 
ATOM      8  C   UNL     1       5.324   4.538  15.694  0.00  0.00    +0.000 A 
ATOM      9  C   UNL     1       4.454   3.935  16.599  0.00  0.00    +0.000 A 
ATOM     10  C   UNL     1       3.734   4.691  17.551  0.00  0.00    +0.000 A 
BRANCH  10  11
ATOM     11  N   UNL     1       2.842   3.977  18.401  0.00  0.00    +0.000 N 
ATOM     12  C   UNL     1       1.500   3.835  18.185  0.00  0.00    +0.000 C 
ATOM     13  O   UNL     1       0.850   4.199  17.212  0.00  0.00    +0.000 OA
ATOM     14  C   UNL     1       0.879   3.140  19.360  0.00  0.00    +0.000 C 
ATOM     15  C   UNL     1       2.043   2.796  20.260  0.00  0.00    +0.000 C 
ATOM     16  C   UNL     1       3.237   3.395  19.582  0.00  0.00    +0.000 C 
ATOM     17  O   UNL     1       4.367   3.298  20.042  0.00  0.00    +0.000 OA
ENDBRANCH  10  11
ENDBRANCH   3   5
BRANCH   1  18
ATOM     18  C   UNL     1       1.973   8.882  19.373  0.00  0.00    +0.000 C 
BRANCH  18  19
ATOM     19  C   UNL     1       0.925   9.907  18.935  0.00  0.00    +0.000 A 
ATOM     20  C   UNL     1       1.121  11.276  19.165  0.00  0.00    +0.000 A 
ATOM     21  C   UNL     1       0.124  12.202  18.841  0.00  0.00    +0.000 A 
ATOM     22  C   UNL     1      -1.081  11.775  18.282  0.00  0.00    +0.000 A 
ATOM     23  C   UNL     1      -1.280  10.422  18.024  0.00  0.00    +0.000 A 
ATOM     24  C   UNL     1      -0.285   9.499  18.343  0.00  0.00    +0.000 A 
ENDBRANCH  18  19
BRANCH  18  26
ATOM     25  C   UNL     1       0.879   8.507  21.671  0.00  0.00    +0.000 C 
ATOM     26  C   UNL     1       1.324   7.879  20.358  0.00  0.00    +0.000 C 
ENDBRANCH  18  26
ENDBRANCH   1  18
TORSDOF 5
ENDMDL
MODEL 4
REMARK VINA RESULT:      -7.4      2.438      4.808
REMARK  Name = 
REMARK  6 active torsions:
REMARK  status: ('A' for Active; 'I' for Inactive)
REMARK    1  A    between atoms: C_1  and  C_2
REMARK    2  A    between atoms: C_2  and  C_3
REMARK    3  A    between atoms: C_3  and  C_4
REMARK    4  A    between atoms: C_3  and  C_20
REMARK    5  A    between atoms: N_6  and  C_7
REMARK    6  A    between atoms: C_12  and  N_13
REMARK                            x       y       z     vdW  Elec       q    Type
REMARK                         _______ _______ _______ _____ _____    ______ ____
ROOT
ATOM      1  C   UNL     1       2.562   6.600  18.627  0.00  0.00    +0.000 C 
ATOM      2  O   UNL     1       1.665   6.147  17.911  0.00  0.00    +0.000 OA
ATOM      3  N   UNL     1       3.921   6.419  18.400  0.00  0.00    +0.000 N 
ATOM      4  H   UNL     1       4.567   6.696  19.135  0.00  0.00    +0.000 HD
ENDROOT
BRANCH   3   5
ATOM      5  C   UNL     1       4.503   5.842  17.239  0.00  0.00    +0.000 A 
ATOM      6  C   UNL     1       5.031   6.676  16.237  0.00  0.00    +0.000 A 
ATOM      7  C   UNL     1       5.596   6.160  15.070  0.00  0.00    +0.000 A 
ATOM      8  C   UNL     1       5.643   4.789  14.875  0.00  0.00    +0.000 A 
ATOM      9  C   UNL     1       5.114   3.940  15.844  0.00  0.00    +0.000 A 
ATOM     10  C   UNL     1       4.546   4.440  17.037  0.00  0.00    +0.000 A 
BRANCH  10  11
ATOM     11  N   UNL     1       3.997   3.486  17.940  0.00  0.00    +0.000 N 
ATOM     12  C   UNL     1       2.811   2.831  17.762  0.00  0.00    +0.000 C 
ATOM     13  O   UNL     1       2.067   2.867  16.789  0.00  0.00    +0.000 OA
ATOM     14  C   UNL     1       2.507   2.015  18.984  0.00  0.00    +0.000 C 
ATOM     15  C   UNL     1       3.717   2.189  19.871  0.00  0.00    +0.000 C 
ATOM     16  C   UNL     1       4.589   3.162  19.138  0.00  0.00    +0.000 C 
ATOM     17  O   UNL     1       5.672   3.529  19.576  0.00  0.00    +0.000 OA
ENDBRANCH  10  11
ENDBRANCH   3   5
BRANCH   1  18
ATOM     18  C   UNL     1       2.217   7.358  19.916  0.00  0.00    +0.000 C 
BRANCH  18  19
ATOM     19  C   UNL     1       1.448   8.648  19.622  0.00  0.00    +0.000 A 
ATOM     20  C   UNL     1       0.539   9.169  20.554  0.00  0.00    +0.000 A 
ATOM     21  C   UNL     1      -0.224  10.300  20.247  0.00  0.00    +0.000 A 
ATOM     22  C   UNL     1      -0.089  10.928  19.009  0.00  0.00    +0.000 A 
ATOM     23  C   UNL     1       0.828  10.438  18.084  0.00  0.00    +0.000 A 
ATOM     24  C   UNL     1       1.593   9.313  18.390  0.00  0.00    +0.000 A 
ENDBRANCH  18  19
BRANCH  18  26
ATOM     25  C   UNL     1       1.910   5.049  21.007  0.00  0.00    +0.000 C 
ATOM     26  C   UNL     1       1.371   6.464  20.855  0.00  0.00    +0.000 C 
ENDBRANCH  18  26
ENDBRANCH   1  18
TORSDOF 5
ENDMDL
MODEL 5
REMARK VINA RESULT:      -7.4      0.228      1.517
REMARK  Name = 
REMARK  6 active torsions:
REMARK  status: ('A' for Active; 'I' for Inactive)
REMARK    1  A    between atoms: C_1  and  C_2
REMARK    2  A    between atoms: C_2  and  C_3
REMARK    3  A    between atoms: C_3  and  C_4
REMARK    4  A    between atoms: C_3  and  C_20
REMARK    5  A    between atoms: N_6  and  C_7
REMARK    6  A    between atoms: C_12  and  N_13
REMARK                            x       y       z     vdW  Elec       q    Type
REMARK                         _______ _______ _______ _____ _____    ______ ____
ROOT
ATOM      1  C   UNL     1       3.342   4.653  17.333  0.00  0.00    +0.000 C 
ATOM      2  O   UNL     1       3.405   3.422  17.261  0.00  0.00    +0.000 OA
ATOM      3  N   UNL     1       4.225   5.526  16.711  0.00  0.00    +0.000 N 
ATOM      4  H   UNL     1       4.179   6.510  16.964  0.00  0.00    +0.000 HD
ENDROOT
BRANCH   3   5
ATOM      5  C   UNL     1       5.226   5.168  15.767  0.00  0.00    +0.000 A 
ATOM      6  C   UNL     1       4.849   4.682  14.503  0.00  0.00    +0.000 A 
ATOM      7  C   UNL     1       5.793   4.300  13.548  0.00  0.00    +0.000 A 
ATOM      8  C   UNL     1       7.144   4.392  13.840  0.00  0.00    +0.000 A 
ATOM      9  C   UNL     1       7.545   4.856  15.090  0.00  0.00    +0.000 A 
ATOM     10  C   UNL     1       6.608   5.258  16.068  0.00  0.00    +0.000 A 
BRANCH  10  11
ATOM     11  N   UNL     1       7.126   5.676  17.326  0.00  0.00    +0.000 N 
ATOM     12  C   UNL     1       6.982   4.991  18.500  0.00  0.00    +0.000 C 
ATOM     13  O   UNL     1       6.481   3.887  18.672  0.00  0.00    +0.000 OA
ATOM     14  C   UNL     1       7.543   5.811  19.625  0.00  0.00    +0.000 C 
ATOM     15  C   UNL     1       8.132   7.030  18.953  0.00  0.00    +0.000 C 
ATOM     16  C   UNL     1       7.789   6.868  17.504  0.00  0.00    +0.000 C 
ATOM     17  O   UNL     1       8.125   7.686  16.657  0.00  0.00    +0.000 OA
ENDBRANCH  10  11
ENDBRANCH   3   5
BRANCH   1  18
ATOM     18  C   UNL     1       2.283   5.324  18.219  0.00  0.00    +0.000 C 
BRANCH  18  19
ATOM     19  C   UNL     1       1.918   4.451  19.421  0.00  0.00    +0.000 A 
ATOM     20  C   UNL     1       2.553   4.630  20.657  0.00  0.00    +0.000 A 
ATOM     21  C   UNL     1       2.278   3.775  21.729  0.00  0.00    +0.000 A 
ATOM     22  C   UNL     1       1.365   2.731  21.583  0.00  0.00    +0.000 A 
ATOM     23  C   UNL     1       0.706   2.557  20.370  0.00  0.00    +0.000 A 
ATOM     24  C   UNL     1       0.976   3.411  19.302  0.00  0.00    +0.000 A 
ENDBRANCH  18  19
BRANCH  18  26
ATOM     25  C   UNL     1       2.123   7.886  18.056  0.00  0.00    +0.000 C 
ATOM     26  C   UNL     1       2.796   6.695  18.723  0.00  0.00    +0.000 C 
ENDBRANCH  18  26
ENDBRANCH   1  18
TORSDOF 5
ENDMDL
MODEL 6
REMARK VINA RESULT:      -7.4      2.768      5.691
REMARK  Name = 
REMARK  6 active torsions:
REMARK  status: ('A' for Active; 'I' for Inactive)
REMARK    1  A    between atoms: C_1  and  C_2
REMARK    2  A    between atoms: C_2  and  C_3
REMARK    3  A    between atoms: C_3  and  C_4
REMARK    4  A    between atoms: C_3  and  C_20
REMARK    5  A    between atoms: N_6  and  C_7
REMARK    6  A    between atoms: C_12  and  N_13
REMARK                            x       y       z     vdW  Elec       q    Type
REMARK                         _______ _______ _______ _____ _____    ______ ____
ROOT
ATOM      1  C   UNL     1       2.575   8.152  18.171  0.00  0.00    +0.000 C 
ATOM      2  O   UNL     1       2.468   8.607  17.028  0.00  0.00    +0.000 OA
ATOM      3  N   UNL     1       3.162   6.933  18.483  0.00  0.00    +0.000 N 
ATOM      4  H   UNL     1       3.055   6.582  19.432  0.00  0.00    +0.000 HD
ENDROOT
BRANCH   3   5
ATOM      5  C   UNL     1       3.877   6.095  17.584  0.00  0.00    +0.000 A 
ATOM      6  C   UNL     1       4.759   6.669  16.652  0.00  0.00    +0.000 A 
ATOM      7  C   UNL     1       5.470   5.893  15.735  0.00  0.00    +0.000 A 
ATOM      8  C   UNL     1       5.310   4.517  15.727  0.00  0.00    +0.000 A 
ATOM      9  C   UNL     1       4.431   3.924  16.629  0.00  0.00    +0.000 A 
ATOM     10  C   UNL     1       3.708   4.688  17.572  0.00  0.00    +0.000 A 
BRANCH  10  11
ATOM     11  N   UNL     1       2.805   3.985  18.419  0.00  0.00    +0.000 N 
ATOM     12  C   UNL     1       3.149   3.364  19.587  0.00  0.00    +0.000 C 
ATOM     13  O   UNL     1       4.235   3.372  20.154  0.00  0.00    +0.000 OA
ATOM     14  C   UNL     1       1.961   2.620  20.121  0.00  0.00    +0.000 C 
ATOM     15  C   UNL     1       0.836   2.962  19.172  0.00  0.00    +0.000 C 
ATOM     16  C   UNL     1       1.477   3.804  18.111  0.00  0.00    +0.000 C 
ATOM     17  O   UNL     1       0.843   4.267  17.172  0.00  0.00    +0.000 OA
ENDBRANCH  10  11
ENDBRANCH   3   5
BRANCH   1  18
ATOM     18  C   UNL     1       1.969   8.904  19.364  0.00  0.00    +0.000 C 
BRANCH  18  19
ATOM     19  C   UNL     1       0.905   9.908  18.916  0.00  0.00    +0.000 A 
ATOM     20  C   UNL     1       1.083  11.283  19.127  0.00  0.00    +0.000 A 
ATOM     21  C   UNL     1       0.072  12.190  18.794  0.00  0.00    +0.000 A 
ATOM     22  C   UNL     1      -1.129  11.740  18.245  0.00  0.00    +0.000 A 
ATOM     23  C   UNL     1      -1.309  10.381  18.004  0.00  0.00    +0.000 A 
ATOM     24  C   UNL     1      -0.301   9.476  18.332  0.00  0.00    +0.000 A 
ENDBRANCH  18  19
BRANCH  18  26
ATOM     25  C   UNL     1       0.909   8.539  21.678  0.00  0.00    +0.000 C 
ATOM     26  C   UNL     1       1.336   7.904  20.363  0.00  0.00    +0.000 C 
ENDBRANCH  18  26
ENDBRANCH   1  18
TORSDOF 5
ENDMDL
MODEL 7
REMARK VINA RESULT:      -7.4      2.528      5.118
REMARK  Name = 
REMARK  6 active torsions:
REMARK  status: ('A' for Active; 'I' for Inactive)
REMARK    1  A    between atoms: C_1  and  C_2
REMARK    2  A    between atoms: C_2  and  C_3
REMARK    3  A    between atoms: C_3  and  C_4
REMARK    4  A    between atoms: C_3  and  C_20
REMARK    5  A    between atoms: N_6  and  C_7
REMARK    6  A    between atoms: C_12  and  N_13
REMARK                            x       y       z     vdW  Elec       q    Type
REMARK                         _______ _______ _______ _____ _____    ______ ____
ROOT
ATOM      1  C   UNL     1       2.452   7.034  18.612  0.00  0.00    +0.000 C 
ATOM      2  O   UNL     1       1.590   6.852  17.747  0.00  0.00    +0.000 OA
ATOM      3  N   UNL     1       3.751   6.546  18.546  0.00  0.00    +0.000 N 
ATOM      4  H   UNL     1       4.329   6.617  19.380  0.00  0.00    +0.000 HD
ENDROOT
BRANCH   3   5
ATOM      5  C   UNL     1       4.349   5.914  17.422  0.00  0.00    +0.000 A 
ATOM      6  C   UNL     1       4.998   6.694  16.449  0.00  0.00    +0.000 A 
ATOM      7  C   UNL     1       5.585   6.124  15.318  0.00  0.00    +0.000 A 
ATOM      8  C   UNL     1       5.531   4.753  15.130  0.00  0.00    +0.000 A 
ATOM      9  C   UNL     1       4.880   3.957  16.070  0.00  0.00    +0.000 A 
ATOM     10  C   UNL     1       4.288   4.511  17.228  0.00  0.00    +0.000 A 
BRANCH  10  11
ATOM     11  N   UNL     1       3.613   3.613  18.101  0.00  0.00    +0.000 N 
ATOM     12  C   UNL     1       4.179   2.997  19.182  0.00  0.00    +0.000 C 
ATOM     13  O   UNL     1       5.301   3.165  19.644  0.00  0.00    +0.000 OA
ATOM     14  C   UNL     1       3.197   2.026  19.769  0.00  0.00    +0.000 C 
ATOM     15  C   UNL     1       1.937   2.217  18.958  0.00  0.00    +0.000 C 
ATOM     16  C   UNL     1       2.310   3.217  17.907  0.00  0.00    +0.000 C 
ATOM     17  O   UNL     1       1.511   3.613  17.069  0.00  0.00    +0.000 OA
ENDBRANCH  10  11
ENDBRANCH   3   5
BRANCH   1  18
ATOM     18  C   UNL     1       2.105   7.777  19.908  0.00  0.00    +0.000 C 
BRANCH  18  19
ATOM     19  C   UNL     1       1.286   9.040  19.633  0.00  0.00    +0.000 A 
ATOM     20  C   UNL     1       1.655   9.926  18.611  0.00  0.00    +0.000 A 
ATOM     21  C   UNL     1       0.955  11.121  18.418  0.00  0.00    +0.000 A 
ATOM     22  C   UNL     1      -0.124  11.448  19.239  0.00  0.00    +0.000 A 
ATOM     23  C   UNL     1      -0.520  10.565  20.240  0.00  0.00    +0.000 A 
ATOM     24  C   UNL     1       0.175   9.372  20.431  0.00  0.00    +0.000 A 
ENDBRANCH  18  19
BRANCH  18  26
ATOM     25  C   UNL     1       1.761   5.400  20.827  0.00  0.00    +0.000 C 
ATOM     26  C   UNL     1       1.310   6.852  20.862  0.00  0.00    +0.000 C 
ENDBRANCH  18  26
ENDBRANCH   1  18
TORSDOF 5
ENDMDL
MODEL 8
REMARK VINA RESULT:      -7.3      1.917      6.292
REMARK  Name = 
REMARK  6 active torsions:
REMARK  status: ('A' for Active; 'I' for Inactive)
REMARK    1  A    between atoms: C_1  and  C_2
REMARK    2  A    between atoms: C_2  and  C_3
REMARK    3  A    between atoms: C_3  and  C_4
REMARK    4  A    between atoms: C_3  and  C_20
REMARK    5  A    between atoms: N_6  and  C_7
REMARK    6  A    between atoms: C_12  and  N_13
REMARK                            x       y       z     vdW  Elec       q    Type
REMARK                         _______ _______ _______ _____ _____    ______ ____
ROOT
ATOM      1  C   UNL     1       5.952   5.669  18.650  0.00  0.00    +0.000 C 
ATOM      2  O   UNL     1       6.278   5.247  19.763  0.00  0.00    +0.000 OA
ATOM      3  N   UNL     1       4.643   5.893  18.243  0.00  0.00    +0.000 N 
ATOM      4  H   UNL     1       4.477   6.088  17.258  0.00  0.00    +0.000 HD
ENDROOT
BRANCH   3   5
ATOM      5  C   UNL     1       3.490   5.841  19.073  0.00  0.00    +0.000 A 
ATOM      6  C   UNL     1       2.999   7.022  19.656  0.00  0.00    +0.000 A 
ATOM      7  C   UNL     1       1.882   7.021  20.494  0.00  0.00    +0.000 A 
ATOM      8  C   UNL     1       1.230   5.831  20.772  0.00  0.00    +0.000 A 
ATOM      9  C   UNL     1       1.705   4.644  20.220  0.00  0.00    +0.000 A 
ATOM     10  C   UNL     1       2.828   4.622  19.362  0.00  0.00    +0.000 A 
BRANCH  10  11
ATOM     11  N   UNL     1       3.253   3.349  18.888  0.00  0.00    +0.000 N 
ATOM     12  C   UNL     1       2.861   2.782  17.707  0.00  0.00    +0.000 C 
ATOM     13  O   UNL     1       2.172   3.278  16.824  0.00  0.00    +0.000 OA
ATOM     14  C   UNL     1       3.409   1.388  17.621  0.00  0.00    +0.000 C 
ATOM     15  C   UNL     1       4.262   1.234  18.859  0.00  0.00    +0.000 C 
ATOM     16  C   UNL     1       4.073   2.516  19.612  0.00  0.00    +0.000 C 
ATOM     17  O   UNL     1       4.634   2.737  20.677  0.00  0.00    +0.000 OA
ENDBRANCH  10  11
ENDBRANCH   3   5
BRANCH   1  18
ATOM     18  C   UNL     1       7.016   5.908  17.570  0.00  0.00    +0.000 C 
BRANCH  18  19
ATOM     19  C   UNL     1       6.673   5.178  16.269  0.00  0.00    +0.000 A 
ATOM     20  C   UNL     1       5.859   4.037  16.281  0.00  0.00    +0.000 A 
ATOM     21  C   UNL     1       5.618   3.323  15.103  0.00  0.00    +0.000 A 
ATOM     22  C   UNL     1       6.184   3.738  13.897  0.00  0.00    +0.000 A 
ATOM     23  C   UNL     1       6.973   4.884  13.866  0.00  0.00    +0.000 A 
ATOM     24  C   UNL     1       7.211   5.599  15.038  0.00  0.00    +0.000 A 
ENDBRANCH  18  19
BRANCH  18  26
ATOM     25  C   UNL     1       8.196   8.119  18.148  0.00  0.00    +0.000 C 
ATOM     26  C   UNL     1       7.157   7.423  17.281  0.00  0.00    +0.000 C 
ENDBRANCH  18  26
ENDBRANCH   1  18
TORSDOF 5
ENDMDL
MODEL 9
REMARK VINA RESULT:      -7.2      1.921      6.355
REMARK  Name = 
REMARK  6 active torsions:
REMARK  status: ('A' for Active; 'I' for Inactive)
REMARK    1  A    between atoms: C_1  and  C_2
REMARK    2  A    between atoms: C_2  and  C_3
REMARK    3  A    between atoms: C_3  and  C_4
REMARK    4  A    between atoms: C_3  and  C_20
REMARK    5  A    between atoms: N_6  and  C_7
REMARK    6  A    between atoms: C_12  and  N_13
REMARK                            x       y       z     vdW  Elec       q    Type
REMARK                         _______ _______ _______ _____ _____    ______ ____
ROOT
ATOM      1  C   UNL     1       5.928   5.510  18.716  0.00  0.00    +0.000 C 
ATOM      2  O   UNL     1       6.202   5.089  19.843  0.00  0.00    +0.000 OA
ATOM      3  N   UNL     1       4.645   5.806  18.274  0.00  0.00    +0.000 N 
ATOM      4  H   UNL     1       4.514   5.992  17.282  0.00  0.00    +0.000 HD
ENDROOT
BRANCH   3   5
ATOM      5  C   UNL     1       3.472   5.837  19.077  0.00  0.00    +0.000 A 
ATOM      6  C   UNL     1       3.005   7.065  19.578  0.00  0.00    +0.000 A 
ATOM      7  C   UNL     1       1.870   7.148  20.385  0.00  0.00    +0.000 A 
ATOM      8  C   UNL     1       1.174   5.996  20.716  0.00  0.00    +0.000 A 
ATOM      9  C   UNL     1       1.624   4.765  20.247  0.00  0.00    +0.000 A 
ATOM     10  C   UNL     1       2.765   4.658  19.420  0.00  0.00    +0.000 A 
BRANCH  10  11
ATOM     11  N   UNL     1       3.160   3.347  19.031  0.00  0.00    +0.000 N 
ATOM     12  C   UNL     1       3.902   2.493  19.797  0.00  0.00    +0.000 C 
ATOM     13  O   UNL     1       4.275   2.648  20.954  0.00  0.00    +0.000 OA
ATOM     14  C   UNL     1       4.230   1.267  18.997  0.00  0.00    +0.000 C 
ATOM     15  C   UNL     1       3.500   1.457  17.688  0.00  0.00    +0.000 C 
ATOM     16  C   UNL     1       2.880   2.817  17.793  0.00  0.00    +0.000 C 
ATOM     17  O   UNL     1       2.199   3.296  16.896  0.00  0.00    +0.000 OA
ENDBRANCH  10  11
ENDBRANCH   3   5
BRANCH   1  18
ATOM     18  C   UNL     1       7.029   5.666  17.658  0.00  0.00    +0.000 C 
BRANCH  18  19
ATOM     19  C   UNL     1       6.630   5.020  16.330  0.00  0.00    +0.000 A 
ATOM     20  C   UNL     1       5.771   3.912  16.300  0.00  0.00    +0.000 A 
ATOM     21  C   UNL     1       5.477   3.273  15.092  0.00  0.00    +0.000 A 
ATOM     22  C   UNL     1       6.034   3.729  13.897  0.00  0.00    +0.000 A 
ATOM     23  C   UNL     1       6.867   4.843  13.907  0.00  0.00    +0.000 A 
ATOM     24  C   UNL     1       7.158   5.485  15.110  0.00  0.00    +0.000 A 
ENDBRANCH  18  19
BRANCH  18  26
ATOM     25  C   UNL     1       8.274   7.769  18.461  0.00  0.00    +0.000 C 
ATOM     26  C   UNL     1       7.340   7.165  17.423  0.00  0.00    +0.000 C 
ENDBRANCH  18  26
ENDBRANCH   1  18
TORSDOF 5
ENDMDL
