MODEL 1
REMARK VINA RESULT:      -7.7      0.000      0.000
REMARK  Name = 
REMARK  10 active torsions:
REMARK  status: ('A' for Active; 'I' for Inactive)
REMARK    1  A    between atoms: C_1  and  C_2
REMARK    2  A    between atoms: C_5  and  C_6
REMARK    3  A    between atoms: C_9  and  C_10
REMARK    4  A    between atoms: C_10  and  C_11
REMARK    5  A    between atoms: C_10  and  C_12
REMARK    6  A    between atoms: C_10  and  C_13
REMARK    7  A    between atoms: C_16  and  N_17
REMARK    8  A    between atoms: C_18  and  C_20
REMARK    9  A    between atoms: C_20  and  O_21
REMARK   10  A    between atoms: O_21  and  C_22
REMARK                            x       y       z     vdW  Elec       q    Type
REMARK                         _______ _______ _______ _____ _____    ______ ____
ROOT
ATOM      1  C   UNL     1       4.546   2.418  19.577  0.00  0.00    +0.000 C 
ATOM      2  C   UNL     1       3.625   3.573  19.648  0.00  0.00    +0.000 A 
ATOM      3  N   UNL     1       2.294   3.428  19.904  0.00  0.00    +0.000 N 
ATOM      4  N   UNL     1       1.609   4.579  19.892  0.00  0.00    +0.000 NA
ATOM      5  C   UNL     1       2.527   5.530  19.640  0.00  0.00    +0.000 A 
ATOM      6  C   UNL     1       3.818   4.924  19.471  0.00  0.00    +0.000 A 
ATOM      7  H   UNL     1       1.783   2.572  20.085  0.00  0.00    +0.000 HD
ENDROOT
BRANCH   5   8
ATOM      8  C   UNL     1       2.113   6.935  19.546  0.00  0.00    +0.000 A 
ATOM      9  C   UNL     1       1.554   7.619  20.626  0.00  0.00    +0.000 A 
ATOM     10  C   UNL     1       1.184   8.967  20.510  0.00  0.00    +0.000 A 
ATOM     11  C   UNL     1       1.357   9.683  19.314  0.00  0.00    +0.000 A 
ATOM     12  C   UNL     1       1.899   8.979  18.224  0.00  0.00    +0.000 A 
ATOM     13  C   UNL     1       2.269   7.633  18.340  0.00  0.00    +0.000 A 
BRANCH  11  14
ATOM     14  C   UNL     1       1.004  11.174  19.181  0.00  0.00    +0.000 C 
ATOM     15  C   UNL     1      -0.391  11.420  18.564  0.00  0.00    +0.000 C 
ATOM     16  C   UNL     1       1.011  11.830  20.580  0.00  0.00    +0.000 C 
ATOM     17  C   UNL     1       2.032  11.899  18.286  0.00  0.00    +0.000 C 
ENDBRANCH  11  14
ENDBRANCH   5   8
BRANCH   6  18
ATOM     18  N   UNL     1       5.055   5.467  19.178  0.00  0.00    +0.000 N 
ATOM     19  C   UNL     1       5.438   5.838  17.909  0.00  0.00    +0.000 C 
ATOM     20  O   UNL     1       6.360   6.646  17.772  0.00  0.00    +0.000 OA
ATOM     21  H   UNL     1       5.479   6.043  19.894  0.00  0.00    +0.000 HD
BRANCH  19  22
ATOM     22  C   UNL     1       4.752   5.180  16.718  0.00  0.00    +0.000 C 
BRANCH  22  23
ATOM     23  O   UNL     1       5.632   4.158  16.265  0.00  0.00    +0.000 OA
BRANCH  23  24
ATOM     24  C   UNL     1       6.008   4.195  14.953  0.00  0.00    +0.000 A 
ATOM     25  C   UNL     1       7.139   4.971  14.697  0.00  0.00    +0.000 A 
ATOM     26  C   UNL     1       7.662   5.058  13.406  0.00  0.00    +0.000 A 
ATOM     27  C   UNL     1       7.058   4.356  12.367  0.00  0.00    +0.000 A 
ATOM     28  C   UNL     1       5.933   3.572  12.621  0.00  0.00    +0.000 A 
ATOM     29  C   UNL     1       5.404   3.490  13.913  0.00  0.00    +0.000 A 
ENDBRANCH  23  24
ENDBRANCH  22  23
ENDBRANCH  19  22
ENDBRANCH   6  18
TORSDOF 6
ENDMDL
MODEL 2
REMARK VINA RESULT:      -7.6      0.531      1.353
REMARK  Name = 
REMARK  10 active torsions:
REMARK  status: ('A' for Active; 'I' for Inactive)
REMARK    1  A    between atoms: C_1  and  C_2
REMARK    2  A    between atoms: C_5  and  C_6
REMARK    3  A    between atoms: C_9  and  C_10
REMARK    4  A    between atoms: C_10  and  C_11
REMARK    5  A    between atoms: C_10  and  C_12
REMARK    6  A    between atoms: C_10  and  C_13
REMARK    7  A    between atoms: C_16  and  N_17
REMARK    8  A    between atoms: C_18  and  C_20
REMARK    9  A    between atoms: C_20  and  O_21
REMARK   10  A    between atoms: O_21  and  C_22
REMARK                            x       y       z     vdW  Elec       q    Type
REMARK                         _______ _______ _______ _____ _____    ______ ____
ROOT
ATOM      1  C   UNL     1       4.238   1.821  19.080  0.00  0.00    +0.000 C 
ATOM      2  C   UNL     1       3.392   3.032  19.154  0.00  0.00    +0.000 A 
ATOM      3  N   UNL     1       2.034   2.966  19.262  0.00  0.00    +0.000 N 
ATOM      4  N   UNL     1       1.431   4.161  19.278  0.00  0.00    +0.000 NA
ATOM      5  C   UNL     1       2.431   5.059  19.199  0.00  0.00    +0.000 A 
ATOM      6  C   UNL     1       3.691   4.374  19.109  0.00  0.00    +0.000 A 
ATOM      7  H   UNL     1       1.453   2.138  19.320  0.00  0.00    +0.000 HD
ENDROOT
BRANCH   5   8
ATOM      8  C   UNL     1       2.122   6.494  19.180  0.00  0.00    +0.000 A 
ATOM      9  C   UNL     1       2.178   7.251  18.010  0.00  0.00    +0.000 A 
ATOM     10  C   UNL     1       1.861   8.617  18.021  0.00  0.00    +0.000 A 
ATOM     11  C   UNL     1       1.474   9.279  19.198  0.00  0.00    +0.000 A 
ATOM     12  C   UNL     1       1.443   8.512  20.378  0.00  0.00    +0.000 A 
ATOM     13  C   UNL     1       1.759   7.148  20.367  0.00  0.00    +0.000 A 
BRANCH  11  14
ATOM     14  C   UNL     1       1.074  10.763  19.223  0.00  0.00    +0.000 C 
ATOM     15  C   UNL     1       1.126  11.388  20.636  0.00  0.00    +0.000 C 
ATOM     16  C   UNL     1       2.041  11.570  18.328  0.00  0.00    +0.000 C 
ATOM     17  C   UNL     1      -0.366  10.949  18.695  0.00  0.00    +0.000 C 
ENDBRANCH  11  14
ENDBRANCH   5   8
BRANCH   6  18
ATOM     18  N   UNL     1       4.984   4.846  18.988  0.00  0.00    +0.000 N 
ATOM     19  C   UNL     1       5.491   5.373  17.822  0.00  0.00    +0.000 C 
ATOM     20  O   UNL     1       6.480   6.109  17.876  0.00  0.00    +0.000 OA
ATOM     21  H   UNL     1       5.394   5.264  19.812  0.00  0.00    +0.000 HD
BRANCH  19  22
ATOM     22  C   UNL     1       4.851   4.970  16.499  0.00  0.00    +0.000 C 
BRANCH  22  23
ATOM     23  O   UNL     1       5.663   3.931  15.964  0.00  0.00    +0.000 OA
BRANCH  23  24
ATOM     24  C   UNL     1       6.114   4.089  14.685  0.00  0.00    +0.000 A 
ATOM     25  C   UNL     1       7.183   4.976  14.553  0.00  0.00    +0.000 A 
ATOM     26  C   UNL     1       7.774   5.196  13.308  0.00  0.00    +0.000 A 
ATOM     27  C   UNL     1       7.302   4.514  12.189  0.00  0.00    +0.000 A 
ATOM     28  C   UNL     1       6.240   3.620  12.318  0.00  0.00    +0.000 A 
ATOM     29  C   UNL     1       5.643   3.406  13.565  0.00  0.00    +0.000 A 
ENDBRANCH  23  24
ENDBRANCH  22  23
ENDBRANCH  19  22
ENDBRANCH   6  18
TORSDOF 6
ENDMDL
MODEL 3
REMARK VINA RESULT:      -7.6      1.208      1.784
REMARK  Name = 
REMARK  10 active torsions:
REMARK  status: ('A' for Active; 'I' for Inactive)
REMARK    1  A    between atoms: C_1  and  C_2
REMARK    2  A    between atoms: C_5  and  C_6
REMARK    3  A    between atoms: C_9  and  C_10
REMARK    4  A    between atoms: C_10  and  C_11
REMARK    5  A    between atoms: C_10  and  C_12
REMARK    6  A    between atoms: C_10  and  C_13
REMARK    7  A    between atoms: C_16  and  N_17
REMARK    8  A    between atoms: C_18  and  C_20
REMARK    9  A    between atoms: C_20  and  O_21
REMARK   10  A    between atoms: O_21  and  C_22
REMARK                            x       y       z     vdW  Elec       q    Type
REMARK                         _______ _______ _______ _____ _____    ______ ____
ROOT
ATOM      1  C   UNL     1       4.724   2.919  17.493  0.00  0.00    +0.000 C 
ATOM      2  C   UNL     1       3.779   4.027  17.749  0.00  0.00    +0.000 A 
ATOM      3  N   UNL     1       2.431   3.881  17.610  0.00  0.00    +0.000 N 
ATOM      4  N   UNL     1       1.735   4.999  17.846  0.00  0.00    +0.000 NA
ATOM      5  C   UNL     1       2.657   5.922  18.178  0.00  0.00    +0.000 A 
ATOM      6  C   UNL     1       3.969   5.339  18.118  0.00  0.00    +0.000 A 
ATOM      7  H   UNL     1       1.918   3.047  17.345  0.00  0.00    +0.000 HD
ENDROOT
BRANCH   5   8
ATOM      8  C   UNL     1       2.236   7.291  18.496  0.00  0.00    +0.000 A 
ATOM      9  C   UNL     1       2.267   8.317  17.551  0.00  0.00    +0.000 A 
ATOM     10  C   UNL     1       1.842   9.612  17.879  0.00  0.00    +0.000 A 
ATOM     11  C   UNL     1       1.369   9.934  19.162  0.00  0.00    +0.000 A 
ATOM     12  C   UNL     1       1.364   8.899  20.116  0.00  0.00    +0.000 A 
ATOM     13  C   UNL     1       1.788   7.605  19.787  0.00  0.00    +0.000 A 
BRANCH  11  14
ATOM     14  C   UNL     1       0.852  11.334  19.529  0.00  0.00    +0.000 C 
ATOM     15  C   UNL     1      -0.540  11.648  18.937  0.00  0.00    +0.000 C 
ATOM     16  C   UNL     1       0.735  11.451  21.066  0.00  0.00    +0.000 C 
ATOM     17  C   UNL     1       1.820  12.424  19.019  0.00  0.00    +0.000 C 
ENDBRANCH  11  14
ENDBRANCH   5   8
BRANCH   6  18
ATOM     18  N   UNL     1       5.222   5.875  18.343  0.00  0.00    +0.000 N 
ATOM     19  C   UNL     1       5.942   6.548  17.383  0.00  0.00    +0.000 C 
ATOM     20  O   UNL     1       6.843   7.315  17.733  0.00  0.00    +0.000 OA
ATOM     21  H   UNL     1       5.408   6.219  19.277  0.00  0.00    +0.000 HD
BRANCH  19  22
ATOM     22  C   UNL     1       5.644   6.264  15.914  0.00  0.00    +0.000 C 
BRANCH  22  23
ATOM     23  O   UNL     1       6.858   5.788  15.346  0.00  0.00    +0.000 OA
BRANCH  23  24
ATOM     24  C   UNL     1       6.760   5.019  14.222  0.00  0.00    +0.000 A 
ATOM     25  C   UNL     1       5.655   4.166  14.197  0.00  0.00    +0.000 A 
ATOM     26  C   UNL     1       5.406   3.358  13.087  0.00  0.00    +0.000 A 
ATOM     27  C   UNL     1       6.259   3.412  11.988  0.00  0.00    +0.000 A 
ATOM     28  C   UNL     1       7.359   4.270  12.005  0.00  0.00    +0.000 A 
ATOM     29  C   UNL     1       7.613   5.074  13.121  0.00  0.00    +0.000 A 
ENDBRANCH  23  24
ENDBRANCH  22  23
ENDBRANCH  19  22
ENDBRANCH   6  18
TORSDOF 6
ENDMDL
MODEL 4
REMARK VINA RESULT:      -7.5      0.821      1.521
REMARK  Name = 
REMARK  10 active torsions:
REMARK  status: ('A' for Active; 'I' for Inactive)
REMARK    1  A    between atoms: C_1  and  C_2
REMARK    2  A    between atoms: C_5  and  C_6
REMARK    3  A    between atoms: C_9  and  C_10
REMARK    4  A    between atoms: C_10  and  C_11
REMARK    5  A    between atoms: C_10  and  C_12
REMARK    6  A    between atoms: C_10  and  C_13
REMARK    7  A    between atoms: C_16  and  N_17
REMARK    8  A    between atoms: C_18  and  C_20
REMARK    9  A    between atoms: C_20  and  O_21
REMARK   10  A    between atoms: O_21  and  C_22
REMARK                            x       y       z     vdW  Elec       q    Type
REMARK                         _______ _______ _______ _____ _____    ______ ____
ROOT
ATOM      1  C   UNL     1       4.721   1.693  19.375  0.00  0.00    +0.000 C 
ATOM      2  C   UNL     1       3.805   2.854  19.347  0.00  0.00    +0.000 A 
ATOM      3  N   UNL     1       2.451   2.711  19.297  0.00  0.00    +0.000 N 
ATOM      4  N   UNL     1       1.783   3.871  19.239  0.00  0.00    +0.000 NA
ATOM      5  C   UNL     1       2.733   4.823  19.275  0.00  0.00    +0.000 A 
ATOM      6  C   UNL     1       4.032   4.211  19.335  0.00  0.00    +0.000 A 
ATOM      7  H   UNL     1       1.914   1.852  19.288  0.00  0.00    +0.000 HD
ENDROOT
BRANCH   5   8
ATOM      8  C   UNL     1       2.348   6.239  19.217  0.00  0.00    +0.000 A 
ATOM      9  C   UNL     1       2.513   7.008  18.065  0.00  0.00    +0.000 A 
ATOM     10  C   UNL     1       2.119   8.353  18.036  0.00  0.00    +0.000 A 
ATOM     11  C   UNL     1       1.547   8.983  19.153  0.00  0.00    +0.000 A 
ATOM     12  C   UNL     1       1.407   8.207  20.318  0.00  0.00    +0.000 A 
ATOM     13  C   UNL     1       1.799   6.862  20.347  0.00  0.00    +0.000 A 
BRANCH  11  14
ATOM     14  C   UNL     1       1.063  10.442  19.126  0.00  0.00    +0.000 C 
ATOM     15  C   UNL     1      -0.340  10.611  18.501  0.00  0.00    +0.000 C 
ATOM     16  C   UNL     1       0.990  10.984  20.571  0.00  0.00    +0.000 C 
ATOM     17  C   UNL     1       2.034  11.324  18.312  0.00  0.00    +0.000 C 
ENDBRANCH  11  14
ENDBRANCH   5   8
BRANCH   6  18
ATOM     18  N   UNL     1       5.301   4.755  19.363  0.00  0.00    +0.000 N 
ATOM     19  C   UNL     1       5.919   5.297  18.259  0.00  0.00    +0.000 C 
ATOM     20  O   UNL     1       6.851   6.089  18.419  0.00  0.00    +0.000 OA
ATOM     21  H   UNL     1       5.583   5.206  20.224  0.00  0.00    +0.000 HD
BRANCH  19  22
ATOM     22  C   UNL     1       5.471   4.840  16.875  0.00  0.00    +0.000 C 
BRANCH  22  23
ATOM     23  O   UNL     1       6.236   5.591  15.940  0.00  0.00    +0.000 OA
BRANCH  23  24
ATOM     24  C   UNL     1       6.457   5.025  14.718  0.00  0.00    +0.000 A 
ATOM     25  C   UNL     1       5.461   4.141  14.299  0.00  0.00    +0.000 A 
ATOM     26  C   UNL     1       5.537   3.527  13.049  0.00  0.00    +0.000 A 
ATOM     27  C   UNL     1       6.607   3.808  12.204  0.00  0.00    +0.000 A 
ATOM     28  C   UNL     1       7.600   4.698  12.615  0.00  0.00    +0.000 A 
ATOM     29  C   UNL     1       7.528   5.307  13.872  0.00  0.00    +0.000 A 
ENDBRANCH  23  24
ENDBRANCH  22  23
ENDBRANCH  19  22
ENDBRANCH   6  18
TORSDOF 6
ENDMDL
MODEL 5
REMARK VINA RESULT:      -7.5      0.506      1.623
REMARK  Name = 
REMARK  10 active torsions:
REMARK  status: ('A' for Active; 'I' for Inactive)
REMARK    1  A    between atoms: C_1  and  C_2
REMARK    2  A    between atoms: C_5  and  C_6
REMARK    3  A    between atoms: C_9  and  C_10
REMARK    4  A    between atoms: C_10  and  C_11
REMARK    5  A    between atoms: C_10  and  C_12
REMARK    6  A    between atoms: C_10  and  C_13
REMARK    7  A    between atoms: C_16  and  N_17
REMARK    8  A    between atoms: C_18  and  C_20
REMARK    9  A    between atoms: C_20  and  O_21
REMARK   10  A    between atoms: O_21  and  C_22
REMARK                            x       y       z     vdW  Elec       q    Type
REMARK                         _______ _______ _______ _____ _____    ______ ____
ROOT
ATOM      1  C   UNL     1       4.498   2.117  19.781  0.00  0.00    +0.000 C 
ATOM      2  C   UNL     1       3.604   3.295  19.784  0.00  0.00    +0.000 A 
ATOM      3  N   UNL     1       2.257   3.187  19.966  0.00  0.00    +0.000 N 
ATOM      4  N   UNL     1       1.604   4.354  19.899  0.00  0.00    +0.000 NA
ATOM      5  C   UNL     1       2.559   5.278  19.686  0.00  0.00    +0.000 A 
ATOM      6  C   UNL     1       3.842   4.638  19.599  0.00  0.00    +0.000 A 
ATOM      7  H   UNL     1       1.716   2.346  20.130  0.00  0.00    +0.000 HD
ENDROOT
BRANCH   5   8
ATOM      8  C   UNL     1       2.187   6.691  19.549  0.00  0.00    +0.000 A 
ATOM      9  C   UNL     1       2.382   7.400  18.363  0.00  0.00    +0.000 A 
ATOM     10  C   UNL     1       2.001   8.745  18.257  0.00  0.00    +0.000 A 
ATOM     11  C   UNL     1       1.410   9.434  19.328  0.00  0.00    +0.000 A 
ATOM     12  C   UNL     1       1.238   8.719  20.527  0.00  0.00    +0.000 A 
ATOM     13  C   UNL     1       1.618   7.375  20.633  0.00  0.00    +0.000 A 
BRANCH  11  14
ATOM     14  C   UNL     1       0.939  10.894  19.217  0.00  0.00    +0.000 C 
ATOM     15  C   UNL     1       1.869  11.773  18.351  0.00  0.00    +0.000 C 
ATOM     16  C   UNL     1      -0.464  10.933  18.571  0.00  0.00    +0.000 C 
ATOM     17  C   UNL     1       0.862  11.549  20.613  0.00  0.00    +0.000 C 
ENDBRANCH  11  14
ENDBRANCH   5   8
BRANCH   6  18
ATOM     18  N   UNL     1       5.106   5.146  19.369  0.00  0.00    +0.000 N 
ATOM     19  C   UNL     1       5.589   5.436  18.113  0.00  0.00    +0.000 C 
ATOM     20  O   UNL     1       6.533   6.222  17.999  0.00  0.00    +0.000 OA
ATOM     21  H   UNL     1       5.486   5.756  20.080  0.00  0.00    +0.000 HD
BRANCH  19  22
ATOM     22  C   UNL     1       4.981   4.719  16.913  0.00  0.00    +0.000 C 
BRANCH  22  23
ATOM     23  O   UNL     1       5.197   5.566  15.790  0.00  0.00    +0.000 OA
BRANCH  23  24
ATOM     24  C   UNL     1       5.841   5.023  14.716  0.00  0.00    +0.000 A 
ATOM     25  C   UNL     1       5.087   4.095  13.997  0.00  0.00    +0.000 A 
ATOM     26  C   UNL     1       5.606   3.498  12.847  0.00  0.00    +0.000 A 
ATOM     27  C   UNL     1       6.880   3.841  12.404  0.00  0.00    +0.000 A 
ATOM     28  C   UNL     1       7.633   4.775  13.115  0.00  0.00    +0.000 A 
ATOM     29  C   UNL     1       7.117   5.368  14.272  0.00  0.00    +0.000 A 
ENDBRANCH  23  24
ENDBRANCH  22  23
ENDBRANCH  19  22
ENDBRANCH   6  18
TORSDOF 6
ENDMDL
MODEL 6
REMARK VINA RESULT:      -7.5      0.823      1.494
REMARK  Name = 
REMARK  10 active torsions:
REMARK  status: ('A' for Active; 'I' for Inactive)
REMARK    1  A    between atoms: C_1  and  C_2
REMARK    2  A    between atoms: C_5  and  C_6
REMARK    3  A    between atoms: C_9  and  C_10
REMARK    4  A    between atoms: C_10  and  C_11
REMARK    5  A    between atoms: C_10  and  C_12
REMARK    6  A    between atoms: C_10  and  C_13
REMARK    7  A    between atoms: C_16  and  N_17
REMARK    8  A    between atoms: C_18  and  C_20
REMARK    9  A    between atoms: C_20  and  O_21
REMARK   10  A    between atoms: O_21  and  C_22
REMARK                            x       y       z     vdW  Elec       q    Type
REMARK                         _______ _______ _______ _____ _____    ______ ____
ROOT
ATOM      1  C   UNL     1       4.631   2.766  18.231  0.00  0.00    +0.000 C 
ATOM      2  C   UNL     1       3.708   3.907  18.417  0.00  0.00    +0.000 A 
ATOM      3  N   UNL     1       2.355   3.746  18.475  0.00  0.00    +0.000 N 
ATOM      4  N   UNL     1       1.676   4.893  18.607  0.00  0.00    +0.000 NA
ATOM      5  C   UNL     1       2.618   5.853  18.662  0.00  0.00    +0.000 A 
ATOM      6  C   UNL     1       3.921   5.261  18.534  0.00  0.00    +0.000 A 
ATOM      7  H   UNL     1       1.827   2.883  18.420  0.00  0.00    +0.000 HD
ENDROOT
BRANCH   5   8
ATOM      8  C   UNL     1       2.218   7.258  18.797  0.00  0.00    +0.000 A 
ATOM      9  C   UNL     1       2.327   8.167  17.744  0.00  0.00    +0.000 A 
ATOM     10  C   UNL     1       1.921   9.500  17.899  0.00  0.00    +0.000 A 
ATOM     11  C   UNL     1       1.390   9.978  19.108  0.00  0.00    +0.000 A 
ATOM     12  C   UNL     1       1.306   9.060  20.172  0.00  0.00    +0.000 A 
ATOM     13  C   UNL     1       1.711   7.729  20.017  0.00  0.00    +0.000 A 
BRANCH  11  14
ATOM     14  C   UNL     1       0.892  11.422  19.284  0.00  0.00    +0.000 C 
ATOM     15  C   UNL     1       1.789  12.468  18.584  0.00  0.00    +0.000 C 
ATOM     16  C   UNL     1      -0.524  11.553  18.681  0.00  0.00    +0.000 C 
ATOM     17  C   UNL     1       0.834  11.800  20.780  0.00  0.00    +0.000 C 
ENDBRANCH  11  14
ENDBRANCH   5   8
BRANCH   6  18
ATOM     18  N   UNL     1       5.184   5.821  18.507  0.00  0.00    +0.000 N 
ATOM     19  C   UNL     1       5.737   6.390  17.382  0.00  0.00    +0.000 C 
ATOM     20  O   UNL     1       6.666   7.191  17.508  0.00  0.00    +0.000 OA
ATOM     21  H   UNL     1       5.503   6.262  19.360  0.00  0.00    +0.000 HD
BRANCH  19  22
ATOM     22  C   UNL     1       5.223   5.950  16.015  0.00  0.00    +0.000 C 
BRANCH  22  23
ATOM     23  O   UNL     1       5.887   4.729  15.713  0.00  0.00    +0.000 OA
BRANCH  23  24
ATOM     24  C   UNL     1       6.216   4.504  14.407  0.00  0.00    +0.000 A 
ATOM     25  C   UNL     1       7.320   5.228  13.955  0.00  0.00    +0.000 A 
ATOM     26  C   UNL     1       7.794   5.059  12.653  0.00  0.00    +0.000 A 
ATOM     27  C   UNL     1       7.170   4.152  11.802  0.00  0.00    +0.000 A 
ATOM     28  C   UNL     1       6.072   3.420  12.254  0.00  0.00    +0.000 A 
ATOM     29  C   UNL     1       5.592   3.594  13.556  0.00  0.00    +0.000 A 
ENDBRANCH  23  24
ENDBRANCH  22  23
ENDBRANCH  19  22
ENDBRANCH   6  18
TORSDOF 6
ENDMDL
MODEL 7
REMARK VINA RESULT:      -7.4      0.450      1.580
REMARK  Name = 
REMARK  10 active torsions:
REMARK  status: ('A' for Active; 'I' for Inactive)
REMARK    1  A    between atoms: C_1  and  C_2
REMARK    2  A    between atoms: C_5  and  C_6
REMARK    3  A    between atoms: C_9  and  C_10
REMARK    4  A    between atoms: C_10  and  C_11
REMARK    5  A    between atoms: C_10  and  C_12
REMARK    6  A    between atoms: C_10  and  C_13
REMARK    7  A    between atoms: C_16  and  N_17
REMARK    8  A    between atoms: C_18  and  C_20
REMARK    9  A    between atoms: C_20  and  O_21
REMARK   10  A    between atoms: O_21  and  C_22
REMARK                            x       y       z     vdW  Elec       q    Type
REMARK                         _______ _______ _______ _____ _____    ______ ____
ROOT
ATOM      1  C   UNL     1       4.657   2.484  19.160  0.00  0.00    +0.000 C 
ATOM      2  C   UNL     1       3.724   3.630  19.205  0.00  0.00    +0.000 A 
ATOM      3  N   UNL     1       2.374   3.467  19.308  0.00  0.00    +0.000 N 
ATOM      4  N   UNL     1       1.685   4.615  19.296  0.00  0.00    +0.000 NA
ATOM      5  C   UNL     1       2.616   5.582  19.204  0.00  0.00    +0.000 A 
ATOM      6  C   UNL     1       3.924   4.990  19.135  0.00  0.00    +0.000 A 
ATOM      7  H   UNL     1       1.855   2.600  19.380  0.00  0.00    +0.000 HD
ENDROOT
BRANCH   5   8
ATOM      8  C   UNL     1       2.202   6.989  19.155  0.00  0.00    +0.000 A 
ATOM      9  C   UNL     1       2.302   7.753  17.991  0.00  0.00    +0.000 A 
ATOM     10  C   UNL     1       1.883   9.091  17.971  0.00  0.00    +0.000 A 
ATOM     11  C   UNL     1       1.348   9.718  19.108  0.00  0.00    +0.000 A 
ATOM     12  C   UNL     1       1.273   8.947  20.283  0.00  0.00    +0.000 A 
ATOM     13  C   UNL     1       1.691   7.610  20.303  0.00  0.00    +0.000 A 
BRANCH  11  14
ATOM     14  C   UNL     1       0.836  11.167  19.094  0.00  0.00    +0.000 C 
ATOM     15  C   UNL     1       0.575  11.739  20.506  0.00  0.00    +0.000 C 
ATOM     16  C   UNL     1       1.887  12.076  18.418  0.00  0.00    +0.000 C 
ATOM     17  C   UNL     1      -0.490  11.270  18.309  0.00  0.00    +0.000 C 
ENDBRANCH  11  14
ENDBRANCH   5   8
BRANCH   6  18
ATOM     18  N   UNL     1       5.179   5.553  19.010  0.00  0.00    +0.000 N 
ATOM     19  C   UNL     1       5.745   5.882  17.799  0.00  0.00    +0.000 C 
ATOM     20  O   UNL     1       6.661   6.708  17.768  0.00  0.00    +0.000 OA
ATOM     21  H   UNL     1       5.477   6.168  19.756  0.00  0.00    +0.000 HD
BRANCH  19  22
ATOM     22  C   UNL     1       5.262   5.158  16.547  0.00  0.00    +0.000 C 
BRANCH  22  23
ATOM     23  O   UNL     1       6.354   4.362  16.101  0.00  0.00    +0.000 OA
BRANCH  23  24
ATOM     24  C   UNL     1       6.637   4.385  14.765  0.00  0.00    +0.000 A 
ATOM     25  C   UNL     1       5.860   3.520  13.994  0.00  0.00    +0.000 A 
ATOM     26  C   UNL     1       6.011   3.476  12.607  0.00  0.00    +0.000 A 
ATOM     27  C   UNL     1       6.935   4.312  11.986  0.00  0.00    +0.000 A 
ATOM     28  C   UNL     1       7.708   5.184  12.753  0.00  0.00    +0.000 A 
ATOM     29  C   UNL     1       7.561   5.223  14.143  0.00  0.00    +0.000 A 
ENDBRANCH  23  24
ENDBRANCH  22  23
ENDBRANCH  19  22
ENDBRANCH   6  18
TORSDOF 6
ENDMDL
MODEL 8
REMARK VINA RESULT:      -7.4      3.895      6.619
REMARK  Name = 
REMARK  10 active torsions:
REMARK  status: ('A' for Active; 'I' for Inactive)
REMARK    1  A    between atoms: C_1  and  C_2
REMARK    2  A    between atoms: C_5  and  C_6
REMARK    3  A    between atoms: C_9  and  C_10
REMARK    4  A    between atoms: C_10  and  C_11
REMARK    5  A    between atoms: C_10  and  C_12
REMARK    6  A    between atoms: C_10  and  C_13
REMARK    7  A    between atoms: C_16  and  N_17
REMARK    8  A    between atoms: C_18  and  C_20
REMARK    9  A    between atoms: C_20  and  O_21
REMARK   10  A    between atoms: O_21  and  C_22
REMARK                            x       y       z     vdW  Elec       q    Type
REMARK                         _______ _______ _______ _____ _____    ______ ____
ROOT
ATOM      1  C   UNL     1       4.521   3.388  17.200  0.00  0.00    +0.000 C 
ATOM      2  C   UNL     1       5.583   4.371  17.504  0.00  0.00    +0.000 A 
ATOM      3  N   UNL     1       6.803   3.999  17.986  0.00  0.00    +0.000 N 
ATOM      4  N   UNL     1       7.624   5.026  18.239  0.00  0.00    +0.000 NA
ATOM      5  C   UNL     1       6.929   6.124  17.889  0.00  0.00    +0.000 A 
ATOM      6  C   UNL     1       5.623   5.744  17.426  0.00  0.00    +0.000 A 
ATOM      7  H   UNL     1       7.139   3.062  18.176  0.00  0.00    +0.000 HD
ENDROOT
BRANCH   5   8
ATOM      8  C   UNL     1       7.536   7.451  18.048  0.00  0.00    +0.000 A 
ATOM      9  C   UNL     1       8.538   7.703  18.986  0.00  0.00    +0.000 A 
ATOM     10  C   UNL     1       9.110   8.978  19.103  0.00  0.00    +0.000 A 
ATOM     11  C   UNL     1       8.706  10.049  18.290  0.00  0.00    +0.000 A 
ATOM     12  C   UNL     1       7.678   9.792  17.364  0.00  0.00    +0.000 A 
ATOM     13  C   UNL     1       7.107   8.519  17.246  0.00  0.00    +0.000 A 
BRANCH  11  14
ATOM     14  C   UNL     1       9.354  11.441  18.368  0.00  0.00    +0.000 C 
ATOM     15  C   UNL     1      10.796  11.477  17.812  0.00  0.00    +0.000 C 
ATOM     16  C   UNL     1       8.518  12.443  17.541  0.00  0.00    +0.000 C 
ATOM     17  C   UNL     1       9.418  11.932  19.830  0.00  0.00    +0.000 C 
ENDBRANCH  11  14
ENDBRANCH   5   8
BRANCH   6  18
ATOM     18  N   UNL     1       4.551   6.497  16.987  0.00  0.00    +0.000 N 
ATOM     19  C   UNL     1       3.661   7.115  17.835  0.00  0.00    +0.000 C 
ATOM     20  O   UNL     1       2.985   8.057  17.414  0.00  0.00    +0.000 OA
ATOM     21  H   UNL     1       4.678   7.006  16.122  0.00  0.00    +0.000 HD
BRANCH  19  22
ATOM     22  C   UNL     1       3.494   6.563  19.246  0.00  0.00    +0.000 C 
BRANCH  22  23
ATOM     23  O   UNL     1       2.130   6.177  19.365  0.00  0.00    +0.000 OA
BRANCH  23  24
ATOM     24  C   UNL     1       1.878   4.907  19.799  0.00  0.00    +0.000 A 
ATOM     25  C   UNL     1       1.398   4.043  18.813  0.00  0.00    +0.000 A 
ATOM     26  C   UNL     1       1.143   2.703  19.107  0.00  0.00    +0.000 A 
ATOM     27  C   UNL     1       1.381   2.219  20.391  0.00  0.00    +0.000 A 
ATOM     28  C   UNL     1       1.869   3.077  21.376  0.00  0.00    +0.000 A 
ATOM     29  C   UNL     1       2.117   4.422  21.083  0.00  0.00    +0.000 A 
ENDBRANCH  23  24
ENDBRANCH  22  23
ENDBRANCH  19  22
ENDBRANCH   6  18
TORSDOF 6
ENDMDL
MODEL 9
REMARK VINA RESULT:      -7.4      2.429      4.728
REMARK  Name = 
REMARK  10 active torsions:
REMARK  status: ('A' for Active; 'I' for Inactive)
REMARK    1  A    between atoms: C_1  and  C_2
REMARK    2  A    between atoms: C_5  and  C_6
REMARK    3  A    between atoms: C_9  and  C_10
REMARK    4  A    between atoms: C_10  and  C_11
REMARK    5  A    between atoms: C_10  and  C_12
REMARK    6  A    between atoms: C_10  and  C_13
REMARK    7  A    between atoms: C_16  and  N_17
REMARK    8  A    between atoms: C_18  and  C_20
REMARK    9  A    between atoms: C_20  and  O_21
REMARK   10  A    between atoms: O_21  and  C_22
REMARK                            x       y       z     vdW  Elec       q    Type
REMARK                         _______ _______ _______ _____ _____    ______ ____
ROOT
ATOM      1  C   UNL     1       7.391   5.446  15.935  0.00  0.00    +0.000 C 
ATOM      2  C   UNL     1       6.101   6.099  16.246  0.00  0.00    +0.000 A 
ATOM      3  N   UNL     1       5.218   6.467  15.274  0.00  0.00    +0.000 N 
ATOM      4  N   UNL     1       4.121   7.078  15.738  0.00  0.00    +0.000 NA
ATOM      5  C   UNL     1       4.271   7.098  17.075  0.00  0.00    +0.000 A 
ATOM      6  C   UNL     1       5.524   6.491  17.432  0.00  0.00    +0.000 A 
ATOM      7  H   UNL     1       5.306   6.340  14.272  0.00  0.00    +0.000 HD
ENDROOT
BRANCH   5   8
ATOM      8  C   UNL     1       3.238   7.716  17.915  0.00  0.00    +0.000 A 
ATOM      9  C   UNL     1       2.795   7.130  19.101  0.00  0.00    +0.000 A 
ATOM     10  C   UNL     1       1.818   7.753  19.891  0.00  0.00    +0.000 A 
ATOM     11  C   UNL     1       1.246   8.983  19.529  0.00  0.00    +0.000 A 
ATOM     12  C   UNL     1       1.681   9.555  18.319  0.00  0.00    +0.000 A 
ATOM     13  C   UNL     1       2.657   8.933  17.530  0.00  0.00    +0.000 A 
BRANCH  11  14
ATOM     14  C   UNL     1       0.210   9.707  20.404  0.00  0.00    +0.000 C 
ATOM     15  C   UNL     1      -1.036  10.175  19.619  0.00  0.00    +0.000 C 
ATOM     16  C   UNL     1      -0.278   8.753  21.517  0.00  0.00    +0.000 C 
ATOM     17  C   UNL     1       0.831  10.960  21.060  0.00  0.00    +0.000 C 
ENDBRANCH  11  14
ENDBRANCH   5   8
BRANCH   6  18
ATOM     18  N   UNL     1       6.132   6.297  18.657  0.00  0.00    +0.000 N 
ATOM     19  C   UNL     1       6.375   5.053  19.193  0.00  0.00    +0.000 C 
ATOM     20  O   UNL     1       7.238   4.933  20.068  0.00  0.00    +0.000 OA
ATOM     21  H   UNL     1       6.827   6.979  18.932  0.00  0.00    +0.000 HD
BRANCH  19  22
ATOM     22  C   UNL     1       5.516   3.880  18.735  0.00  0.00    +0.000 C 
BRANCH  22  23
ATOM     23  O   UNL     1       4.808   3.430  19.884  0.00  0.00    +0.000 OA
BRANCH  23  24
ATOM     24  C   UNL     1       3.452   3.316  19.775  0.00  0.00    +0.000 A 
ATOM     25  C   UNL     1       2.796   3.034  20.975  0.00  0.00    +0.000 A 
ATOM     26  C   UNL     1       1.405   2.937  21.017  0.00  0.00    +0.000 A 
ATOM     27  C   UNL     1       0.662   3.137  19.857  0.00  0.00    +0.000 A 
ATOM     28  C   UNL     1       1.313   3.427  18.658  0.00  0.00    +0.000 A 
ATOM     29  C   UNL     1       2.708   3.516  18.613  0.00  0.00    +0.000 A 
ENDBRANCH  23  24
ENDBRANCH  22  23
ENDBRANCH  19  22
ENDBRANCH   6  18
TORSDOF 6
ENDMDL
