MODEL 1
REMARK VINA RESULT:      -7.9      0.000      0.000
REMARK  Name = 
REMARK  10 active torsions:
REMARK  status: ('A' for Active; 'I' for Inactive)
REMARK    1  A    between atoms: N_1  and  C_2
REMARK    2  A    between atoms: C_2  and  C_3
REMARK    3  A    between atoms: C_3  and  C_4
REMARK    4  A    between atoms: C_4  and  O_5
REMARK    5  A    between atoms: O_5  and  C_6
REMARK    6  A    between atoms: C_9  and  C_10
REMARK    7  A    between atoms: C_10  and  N_11
REMARK    8  A    between atoms: N_11  and  C_12
REMARK    9  A    between atoms: C_12  and  C_13
REMARK   10  A    between atoms: C_12  and  C_19
REMARK                            x       y       z     vdW  Elec       q    Type
REMARK                         _______ _______ _______ _____ _____    ______ ____
ROOT
ATOM      1  N   UNL     1       4.343   6.019  19.547  0.00  0.00    +0.000 NA
ATOM      2  H   UNL     1       4.847   6.857  19.262  0.00  0.00    +0.000 HD
ENDROOT
BRANCH   1   3
ATOM      3  C   UNL     1       5.219   4.870  19.344  0.00  0.00    +0.000 C 
BRANCH   3   7
ATOM      4  C   UNL     1       6.402   4.848  15.179  0.00  0.00    +0.000 A 
ATOM      5  C   UNL     1       6.935   5.766  16.082  0.00  0.00    +0.000 A 
ATOM      6  C   UNL     1       6.559   5.749  17.421  0.00  0.00    +0.000 A 
ATOM      7  C   UNL     1       5.623   4.818  17.889  0.00  0.00    +0.000 A 
ATOM      8  C   UNL     1       5.084   3.892  16.987  0.00  0.00    +0.000 A 
ATOM      9  C   UNL     1       5.473   3.910  15.638  0.00  0.00    +0.000 A 
BRANCH   4  10
ATOM     10  O   UNL     1       6.719   4.794  13.841  0.00  0.00    +0.000 OA
BRANCH  10  11
ATOM     11  C   UNL     1       6.366   3.565  13.206  0.00  0.00    +0.000 C 
BRANCH  11  12
ATOM     12  C   UNL     1       5.254   3.770  12.183  0.00  0.00    +0.000 C 
BRANCH  12  13
ATOM     13  C   UNL     1       5.041   2.470  11.409  0.00  0.00    +0.000 C 
BRANCH  13  14
ATOM     14  N   UNL     1       6.153   1.552  11.615  0.00  0.00    +0.000 NA
ATOM     15  H   UNL     1       6.017   0.721  11.040  0.00  0.00    +0.000 HD
ATOM     16  H   UNL     1       6.160   1.232  12.583  0.00  0.00    +0.000 HD
ENDBRANCH  13  14
ENDBRANCH  12  13
ENDBRANCH  11  12
ENDBRANCH  10  11
ENDBRANCH   4  10
ENDBRANCH   3   7
ENDBRANCH   1   3
BRANCH   1  17
ATOM     17  C   UNL     1       3.074   5.970  18.804  0.00  0.00    +0.000 C 
BRANCH  17  18
ATOM     18  C   UNL     1       2.198   4.797  19.229  0.00  0.00    +0.000 A 
ATOM     19  C   UNL     1       2.015   4.462  20.581  0.00  0.00    +0.000 A 
ATOM     20  C   UNL     1       1.288   3.326  20.944  0.00  0.00    +0.000 A 
ATOM     21  C   UNL     1       0.733   2.507  19.964  0.00  0.00    +0.000 A 
ATOM     22  C   UNL     1       0.893   2.830  18.618  0.00  0.00    +0.000 A 
ATOM     23  C   UNL     1       1.617   3.967  18.252  0.00  0.00    +0.000 A 
ENDBRANCH  17  18
BRANCH  17  24
ATOM     24  C   UNL     1       2.363   7.324  18.900  0.00  0.00    +0.000 A 
ATOM     25  C   UNL     1       2.342   8.190  17.793  0.00  0.00    +0.000 A 
ATOM     26  C   UNL     1       1.767   9.460  17.892  0.00  0.00    +0.000 A 
ATOM     27  C   UNL     1       1.195   9.883  19.091  0.00  0.00    +0.000 A 
ATOM     28  C   UNL     1       1.178   9.028  20.190  0.00  0.00    +0.000 A 
ATOM     29  C   UNL     1       1.747   7.758  20.091  0.00  0.00    +0.000 A 
ENDBRANCH  17  24
ENDBRANCH   1  17
TORSDOF 10
ENDMDL
MODEL 2
REMARK VINA RESULT:      -7.9      0.836      3.917
REMARK  Name = 
REMARK  10 active torsions:
REMARK  status: ('A' for Active; 'I' for Inactive)
REMARK    1  A    between atoms: N_1  and  C_2
REMARK    2  A    between atoms: C_2  and  C_3
REMARK    3  A    between atoms: C_3  and  C_4
REMARK    4  A    between atoms: C_4  and  O_5
REMARK    5  A    between atoms: O_5  and  C_6
REMARK    6  A    between atoms: C_9  and  C_10
REMARK    7  A    between atoms: C_10  and  N_11
REMARK    8  A    between atoms: N_11  and  C_12
REMARK    9  A    between atoms: C_12  and  C_13
REMARK   10  A    between atoms: C_12  and  C_19
REMARK                            x       y       z     vdW  Elec       q    Type
REMARK                         _______ _______ _______ _____ _____    ______ ____
ROOT
ATOM      1  N   UNL     1       4.034   6.266  18.345  0.00  0.00    +0.000 NA
ATOM      2  H   UNL     1       3.564   6.250  17.442  0.00  0.00    +0.000 HD
ENDROOT
BRANCH   1   3
ATOM      3  C   UNL     1       4.905   5.099  18.425  0.00  0.00    +0.000 C 
BRANCH   3   7
ATOM      4  C   UNL     1       6.650   4.463  14.514  0.00  0.00    +0.000 A 
ATOM      5  C   UNL     1       7.282   5.254  15.472  0.00  0.00    +0.000 A 
ATOM      6  C   UNL     1       6.717   5.434  16.730  0.00  0.00    +0.000 A 
ATOM      7  C   UNL     1       5.493   4.836  17.057  0.00  0.00    +0.000 A 
ATOM      8  C   UNL     1       4.855   4.040  16.099  0.00  0.00    +0.000 A 
ATOM      9  C   UNL     1       5.432   3.856  14.833  0.00  0.00    +0.000 A 
BRANCH   4  10
ATOM     10  O   UNL     1       7.138   4.231  13.248  0.00  0.00    +0.000 OA
BRANCH  10  11
ATOM     11  C   UNL     1       6.198   3.623  12.362  0.00  0.00    +0.000 C 
BRANCH  11  12
ATOM     12  C   UNL     1       6.827   2.464  11.598  0.00  0.00    +0.000 C 
BRANCH  12  13
ATOM     13  C   UNL     1       5.750   1.425  11.289  0.00  0.00    +0.000 C 
BRANCH  13  14
ATOM     14  N   UNL     1       6.327   0.092  11.177  0.00  0.00    +0.000 NA
ATOM     15  H   UNL     1       5.617  -0.604  11.401  0.00  0.00    +0.000 HD
ATOM     16  H   UNL     1       7.068  -0.021  11.868  0.00  0.00    +0.000 HD
ENDBRANCH  13  14
ENDBRANCH  12  13
ENDBRANCH  11  12
ENDBRANCH  10  11
ENDBRANCH   4  10
ENDBRANCH   3   7
ENDBRANCH   1   3
BRANCH   1  17
ATOM     17  C   UNL     1       3.009   6.348  19.397  0.00  0.00    +0.000 C 
BRANCH  17  18
ATOM     18  C   UNL     1       2.150   7.602  19.274  0.00  0.00    +0.000 A 
ATOM     19  C   UNL     1       1.975   8.261  18.045  0.00  0.00    +0.000 A 
ATOM     20  C   UNL     1       1.265   9.462  17.974  0.00  0.00    +0.000 A 
ATOM     21  C   UNL     1       0.722  10.025  19.126  0.00  0.00    +0.000 A 
ATOM     22  C   UNL     1       0.876   9.380  20.352  0.00  0.00    +0.000 A 
ATOM     23  C   UNL     1       1.582   8.177  20.426  0.00  0.00    +0.000 A 
ENDBRANCH  17  18
BRANCH  17  24
ATOM     24  C   UNL     1       2.190   5.054  19.427  0.00  0.00    +0.000 A 
ATOM     25  C   UNL     1       1.856   4.458  20.656  0.00  0.00    +0.000 A 
ATOM     26  C   UNL     1       1.179   3.236  20.694  0.00  0.00    +0.000 A 
ATOM     27  C   UNL     1       0.814   2.594  19.512  0.00  0.00    +0.000 A 
ATOM     28  C   UNL     1       1.108   3.183  18.285  0.00  0.00    +0.000 A 
ATOM     29  C   UNL     1       1.779   4.406  18.245  0.00  0.00    +0.000 A 
ENDBRANCH  17  24
ENDBRANCH   1  17
TORSDOF 10
ENDMDL
MODEL 3
REMARK VINA RESULT:      -7.8      0.579      1.157
REMARK  Name = 
REMARK  10 active torsions:
REMARK  status: ('A' for Active; 'I' for Inactive)
REMARK    1  A    between atoms: N_1  and  C_2
REMARK    2  A    between atoms: C_2  and  C_3
REMARK    3  A    between atoms: C_3  and  C_4
REMARK    4  A    between atoms: C_4  and  O_5
REMARK    5  A    between atoms: O_5  and  C_6
REMARK    6  A    between atoms: C_9  and  C_10
REMARK    7  A    between atoms: C_10  and  N_11
REMARK    8  A    between atoms: N_11  and  C_12
REMARK    9  A    between atoms: C_12  and  C_13
REMARK   10  A    between atoms: C_12  and  C_19
REMARK                            x       y       z     vdW  Elec       q    Type
REMARK                         _______ _______ _______ _____ _____    ______ ____
ROOT
ATOM      1  N   UNL     1       4.202   6.074  19.692  0.00  0.00    +0.000 NA
ATOM      2  H   UNL     1       4.738   6.914  19.486  0.00  0.00    +0.000 HD
ENDROOT
BRANCH   1   3
ATOM      3  C   UNL     1       5.075   4.920  19.512  0.00  0.00    +0.000 C 
BRANCH   3   7
ATOM      4  C   UNL     1       6.965   5.079  15.620  0.00  0.00    +0.000 A 
ATOM      5  C   UNL     1       6.020   4.102  15.930  0.00  0.00    +0.000 A 
ATOM      6  C   UNL     1       5.409   4.076  17.179  0.00  0.00    +0.000 A 
ATOM      7  C   UNL     1       5.740   5.021  18.158  0.00  0.00    +0.000 A 
ATOM      8  C   UNL     1       6.688   6.004  17.852  0.00  0.00    +0.000 A 
ATOM      9  C   UNL     1       7.297   6.031  16.588  0.00  0.00    +0.000 A 
BRANCH   4  10
ATOM     10  O   UNL     1       7.617   5.180  14.411  0.00  0.00    +0.000 OA
BRANCH  10  11
ATOM     11  C   UNL     1       6.761   5.056  13.275  0.00  0.00    +0.000 C 
BRANCH  11  12
ATOM     12  C   UNL     1       7.038   3.768  12.510  0.00  0.00    +0.000 C 
BRANCH  12  13
ATOM     13  C   UNL     1       5.709   3.109  12.142  0.00  0.00    +0.000 C 
BRANCH  13  14
ATOM     14  N   UNL     1       5.925   1.789  11.563  0.00  0.00    +0.000 NA
ATOM     15  H   UNL     1       6.926   1.624  11.462  0.00  0.00    +0.000 HD
ATOM     16  H   UNL     1       5.533   1.759  10.623  0.00  0.00    +0.000 HD
ENDBRANCH  13  14
ENDBRANCH  12  13
ENDBRANCH  11  12
ENDBRANCH  10  11
ENDBRANCH   4  10
ENDBRANCH   3   7
ENDBRANCH   1   3
BRANCH   1  17
ATOM     17  C   UNL     1       2.997   6.078  18.847  0.00  0.00    +0.000 C 
BRANCH  17  18
ATOM     18  C   UNL     1       2.111   4.862  19.093  0.00  0.00    +0.000 A 
ATOM     19  C   UNL     1       1.681   4.509  20.383  0.00  0.00    +0.000 A 
ATOM     20  C   UNL     1       0.951   3.337  20.597  0.00  0.00    +0.000 A 
ATOM     21  C   UNL     1       0.642   2.499  19.529  0.00  0.00    +0.000 A 
ATOM     22  C   UNL     1       1.050   2.839  18.240  0.00  0.00    +0.000 A 
ATOM     23  C   UNL     1       1.776   4.012  18.023  0.00  0.00    +0.000 A 
ENDBRANCH  17  18
BRANCH  17  24
ATOM     24  C   UNL     1       2.256   7.410  19.005  0.00  0.00    +0.000 A 
ATOM     25  C   UNL     1       2.133   8.283  17.910  0.00  0.00    +0.000 A 
ATOM     26  C   UNL     1       1.530   9.535  18.061  0.00  0.00    +0.000 A 
ATOM     27  C   UNL     1       1.031   9.932  19.300  0.00  0.00    +0.000 A 
ATOM     28  C   UNL     1       1.116   9.069  20.390  0.00  0.00    +0.000 A 
ATOM     29  C   UNL     1       1.713   7.817  20.240  0.00  0.00    +0.000 A 
ENDBRANCH  17  24
ENDBRANCH   1  17
TORSDOF 10
ENDMDL
MODEL 4
REMARK VINA RESULT:      -7.8      3.044      6.359
REMARK  Name = 
REMARK  10 active torsions:
REMARK  status: ('A' for Active; 'I' for Inactive)
REMARK    1  A    between atoms: N_1  and  C_2
REMARK    2  A    between atoms: C_2  and  C_3
REMARK    3  A    between atoms: C_3  and  C_4
REMARK    4  A    between atoms: C_4  and  O_5
REMARK    5  A    between atoms: O_5  and  C_6
REMARK    6  A    between atoms: C_9  and  C_10
REMARK    7  A    between atoms: C_10  and  N_11
REMARK    8  A    between atoms: N_11  and  C_12
REMARK    9  A    between atoms: C_12  and  C_13
REMARK   10  A    between atoms: C_12  and  C_19
REMARK                            x       y       z     vdW  Elec       q    Type
REMARK                         _______ _______ _______ _____ _____    ______ ____
ROOT
ATOM      1  N   UNL     1       3.548   5.372  17.552  0.00  0.00    +0.000 NA
ATOM      2  H   UNL     1       2.826   4.725  17.243  0.00  0.00    +0.000 HD
ENDROOT
BRANCH   1   3
ATOM      3  C   UNL     1       4.839   4.705  17.434  0.00  0.00    +0.000 C 
BRANCH   3   7
ATOM      4  C   UNL     1       7.957   7.575  18.326  0.00  0.00    +0.000 A 
ATOM      5  C   UNL     1       6.996   7.825  17.347  0.00  0.00    +0.000 A 
ATOM      6  C   UNL     1       5.990   6.901  17.085  0.00  0.00    +0.000 A 
ATOM      7  C   UNL     1       5.929   5.691  17.788  0.00  0.00    +0.000 A 
ATOM      8  C   UNL     1       6.891   5.435  18.772  0.00  0.00    +0.000 A 
ATOM      9  C   UNL     1       7.900   6.374  19.038  0.00  0.00    +0.000 A 
BRANCH   4  10
ATOM     10  O   UNL     1       8.983   8.433  18.650  0.00  0.00    +0.000 OA
BRANCH  10  11
ATOM     11  C   UNL     1       8.656   9.815  18.507  0.00  0.00    +0.000 C 
BRANCH  11  12
ATOM     12  C   UNL     1       9.823  10.706  18.915  0.00  0.00    +0.000 C 
BRANCH  12  13
ATOM     13  C   UNL     1       9.334  11.738  19.930  0.00  0.00    +0.000 C 
BRANCH  13  14
ATOM     14  N   UNL     1       9.714  11.359  21.284  0.00  0.00    +0.000 NA
ATOM     15  H   UNL     1       8.874  11.200  21.840  0.00  0.00    +0.000 HD
ATOM     16  H   UNL     1      10.211  12.130  21.730  0.00  0.00    +0.000 HD
ENDBRANCH  13  14
ENDBRANCH  12  13
ENDBRANCH  11  12
ENDBRANCH  10  11
ENDBRANCH   4  10
ENDBRANCH   3   7
ENDBRANCH   1   3
BRANCH   1  17
ATOM     17  C   UNL     1       3.207   5.829  18.909  0.00  0.00    +0.000 C 
BRANCH  17  18
ATOM     18  C   UNL     1       2.479   7.168  18.905  0.00  0.00    +0.000 A 
ATOM     19  C   UNL     1       2.468   8.001  17.773  0.00  0.00    +0.000 A 
ATOM     20  C   UNL     1       1.878   9.266  17.822  0.00  0.00    +0.000 A 
ATOM     21  C   UNL     1       1.293   9.721  19.001  0.00  0.00    +0.000 A 
ATOM     22  C   UNL     1       1.284   8.904  20.131  0.00  0.00    +0.000 A 
ATOM     23  C   UNL     1       1.870   7.637  20.083  0.00  0.00    +0.000 A 
ENDBRANCH  17  18
BRANCH  17  24
ATOM     24  C   UNL     1       2.445   4.727  19.652  0.00  0.00    +0.000 A 
ATOM     25  C   UNL     1       2.775   4.414  20.982  0.00  0.00    +0.000 A 
ATOM     26  C   UNL     1       2.142   3.358  21.644  0.00  0.00    +0.000 A 
ATOM     27  C   UNL     1       1.164   2.605  20.997  0.00  0.00    +0.000 A 
ATOM     28  C   UNL     1       0.801   2.919  19.689  0.00  0.00    +0.000 A 
ATOM     29  C   UNL     1       1.428   3.976  19.029  0.00  0.00    +0.000 A 
ENDBRANCH  17  24
ENDBRANCH   1  17
TORSDOF 10
ENDMDL
MODEL 5
REMARK VINA RESULT:      -7.8      0.257      1.362
REMARK  Name = 
REMARK  10 active torsions:
REMARK  status: ('A' for Active; 'I' for Inactive)
REMARK    1  A    between atoms: N_1  and  C_2
REMARK    2  A    between atoms: C_2  and  C_3
REMARK    3  A    between atoms: C_3  and  C_4
REMARK    4  A    between atoms: C_4  and  O_5
REMARK    5  A    between atoms: O_5  and  C_6
REMARK    6  A    between atoms: C_9  and  C_10
REMARK    7  A    between atoms: C_10  and  N_11
REMARK    8  A    between atoms: N_11  and  C_12
REMARK    9  A    between atoms: C_12  and  C_13
REMARK   10  A    between atoms: C_12  and  C_19
REMARK                            x       y       z     vdW  Elec       q    Type
REMARK                         _______ _______ _______ _____ _____    ______ ____
ROOT
ATOM      1  N   UNL     1       4.516   5.895  19.556  0.00  0.00    +0.000 NA
ATOM      2  H   UNL     1       4.996   6.769  19.351  0.00  0.00    +0.000 HD
ENDROOT
BRANCH   1   3
ATOM      3  C   UNL     1       5.437   4.795  19.293  0.00  0.00    +0.000 C 
BRANCH   3   7
ATOM      4  C   UNL     1       6.397   4.885  15.072  0.00  0.00    +0.000 A 
ATOM      5  C   UNL     1       6.875   5.859  15.948  0.00  0.00    +0.000 A 
ATOM      6  C   UNL     1       6.573   5.806  17.304  0.00  0.00    +0.000 A 
ATOM      7  C   UNL     1       5.768   4.781  17.818  0.00  0.00    +0.000 A 
ATOM      8  C   UNL     1       5.286   3.800  16.944  0.00  0.00    +0.000 A 
ATOM      9  C   UNL     1       5.601   3.854  15.577  0.00  0.00    +0.000 A 
BRANCH   4  10
ATOM     10  O   UNL     1       6.649   4.860  13.719  0.00  0.00    +0.000 OA
BRANCH  10  11
ATOM     11  C   UNL     1       6.553   3.563  13.130  0.00  0.00    +0.000 C 
BRANCH  11  12
ATOM     12  C   UNL     1       5.421   3.498  12.113  0.00  0.00    +0.000 C 
BRANCH  12  13
ATOM     13  C   UNL     1       5.434   2.129  11.435  0.00  0.00    +0.000 C 
BRANCH  13  14
ATOM     14  N   UNL     1       6.781   1.575  11.405  0.00  0.00    +0.000 NA
ATOM     15  H   UNL     1       7.062   1.422  10.437  0.00  0.00    +0.000 HD
ATOM     16  H   UNL     1       6.786   0.660  11.853  0.00  0.00    +0.000 HD
ENDBRANCH  13  14
ENDBRANCH  12  13
ENDBRANCH  11  12
ENDBRANCH  10  11
ENDBRANCH   4  10
ENDBRANCH   3   7
ENDBRANCH   1   3
BRANCH   1  17
ATOM     17  C   UNL     1       3.269   5.860  18.775  0.00  0.00    +0.000 C 
BRANCH  17  18
ATOM     18  C   UNL     1       2.390   4.669  19.137  0.00  0.00    +0.000 A 
ATOM     19  C   UNL     1       1.775   3.876  18.153  0.00  0.00    +0.000 A 
ATOM     20  C   UNL     1       0.896   2.851  18.508  0.00  0.00    +0.000 A 
ATOM     21  C   UNL     1       0.615   2.601  19.849  0.00  0.00    +0.000 A 
ATOM     22  C   UNL     1       1.225   3.369  20.840  0.00  0.00    +0.000 A 
ATOM     23  C   UNL     1       2.107   4.393  20.488  0.00  0.00    +0.000 A 
ENDBRANCH  17  18
BRANCH  17  24
ATOM     24  C   UNL     1       2.545   7.206  18.891  0.00  0.00    +0.000 A 
ATOM     25  C   UNL     1       1.923   7.570  20.097  0.00  0.00    +0.000 A 
ATOM     26  C   UNL     1       1.192   8.758  20.192  0.00  0.00    +0.000 A 
ATOM     27  C   UNL     1       1.079   9.606  19.092  0.00  0.00    +0.000 A 
ATOM     28  C   UNL     1       1.715   9.278  17.897  0.00  0.00    +0.000 A 
ATOM     29  C   UNL     1       2.449   8.096  17.802  0.00  0.00    +0.000 A 
ENDBRANCH  17  24
ENDBRANCH   1  17
TORSDOF 10
ENDMDL
MODEL 6
REMARK VINA RESULT:      -7.8      3.658      8.706
REMARK  Name = 
REMARK  10 active torsions:
REMARK  status: ('A' for Active; 'I' for Inactive)
REMARK    1  A    between atoms: N_1  and  C_2
REMARK    2  A    between atoms: C_2  and  C_3
REMARK    3  A    between atoms: C_3  and  C_4
REMARK    4  A    between atoms: C_4  and  O_5
REMARK    5  A    between atoms: O_5  and  C_6
REMARK    6  A    between atoms: C_9  and  C_10
REMARK    7  A    between atoms: C_10  and  N_11
REMARK    8  A    between atoms: N_11  and  C_12
REMARK    9  A    between atoms: C_12  and  C_13
REMARK   10  A    between atoms: C_12  and  C_19
REMARK                            x       y       z     vdW  Elec       q    Type
REMARK                         _______ _______ _______ _____ _____    ______ ____
ROOT
ATOM      1  N   UNL     1       3.136   7.108  18.457  0.00  0.00    +0.000 NA
ATOM      2  H   UNL     1       3.017   6.971  19.458  0.00  0.00    +0.000 HD
ENDROOT
BRANCH   1   3
ATOM      3  C   UNL     1       2.075   7.993  17.988  0.00  0.00    +0.000 C 
BRANCH   3   7
ATOM      4  C   UNL     1       0.676  10.433  21.279  0.00  0.00    +0.000 A 
ATOM      5  C   UNL     1       0.794  10.950  19.990  0.00  0.00    +0.000 A 
ATOM      6  C   UNL     1       1.228  10.148  18.940  0.00  0.00    +0.000 A 
ATOM      7  C   UNL     1       1.571   8.807  19.158  0.00  0.00    +0.000 A 
ATOM      8  C   UNL     1       1.453   8.283  20.450  0.00  0.00    +0.000 A 
ATOM      9  C   UNL     1       1.007   9.095  21.505  0.00  0.00    +0.000 A 
BRANCH   4  10
ATOM     10  O   UNL     1       0.254  11.154  22.373  0.00  0.00    +0.000 OA
BRANCH  10  11
ATOM     11  C   UNL     1      -0.932  10.647  22.986  0.00  0.00    +0.000 C 
BRANCH  11  12
ATOM     12  C   UNL     1      -2.021  11.710  23.052  0.00  0.00    +0.000 C 
BRANCH  12  13
ATOM     13  C   UNL     1      -1.370  13.088  23.153  0.00  0.00    +0.000 C 
BRANCH  13  14
ATOM     14  N   UNL     1      -1.341  13.748  21.854  0.00  0.00    +0.000 NA
ATOM     15  H   UNL     1      -0.533  13.418  21.326  0.00  0.00    +0.000 HD
ATOM     16  H   UNL     1      -1.211  14.751  21.981  0.00  0.00    +0.000 HD
ENDBRANCH  13  14
ENDBRANCH  12  13
ENDBRANCH  11  12
ENDBRANCH  10  11
ENDBRANCH   4  10
ENDBRANCH   3   7
ENDBRANCH   1   3
BRANCH   1  17
ATOM     17  C   UNL     1       3.170   5.785  17.813  0.00  0.00    +0.000 C 
BRANCH  17  18
ATOM     18  C   UNL     1       4.577   5.385  17.383  0.00  0.00    +0.000 A 
ATOM     19  C   UNL     1       4.802   4.518  16.300  0.00  0.00    +0.000 A 
ATOM     20  C   UNL     1       6.093   4.087  15.986  0.00  0.00    +0.000 A 
ATOM     21  C   UNL     1       7.178   4.513  16.747  0.00  0.00    +0.000 A 
ATOM     22  C   UNL     1       6.976   5.383  17.817  0.00  0.00    +0.000 A 
ATOM     23  C   UNL     1       5.687   5.818  18.132  0.00  0.00    +0.000 A 
ENDBRANCH  17  18
BRANCH  17  24
ATOM     24  C   UNL     1       2.494   4.749  18.717  0.00  0.00    +0.000 A 
ATOM     25  C   UNL     1       1.659   3.765  18.161  0.00  0.00    +0.000 A 
ATOM     26  C   UNL     1       0.975   2.865  18.983  0.00  0.00    +0.000 A 
ATOM     27  C   UNL     1       1.119   2.923  20.368  0.00  0.00    +0.000 A 
ATOM     28  C   UNL     1       1.966   3.872  20.936  0.00  0.00    +0.000 A 
ATOM     29  C   UNL     1       2.654   4.768  20.117  0.00  0.00    +0.000 A 
ENDBRANCH  17  24
ENDBRANCH   1  17
TORSDOF 10
ENDMDL
MODEL 7
REMARK VINA RESULT:      -7.8      2.724      7.988
REMARK  Name = 
REMARK  10 active torsions:
REMARK  status: ('A' for Active; 'I' for Inactive)
REMARK    1  A    between atoms: N_1  and  C_2
REMARK    2  A    between atoms: C_2  and  C_3
REMARK    3  A    between atoms: C_3  and  C_4
REMARK    4  A    between atoms: C_4  and  O_5
REMARK    5  A    between atoms: O_5  and  C_6
REMARK    6  A    between atoms: C_9  and  C_10
REMARK    7  A    between atoms: C_10  and  N_11
REMARK    8  A    between atoms: N_11  and  C_12
REMARK    9  A    between atoms: C_12  and  C_13
REMARK   10  A    between atoms: C_12  and  C_19
REMARK                            x       y       z     vdW  Elec       q    Type
REMARK                         _______ _______ _______ _____ _____    ______ ____
ROOT
ATOM      1  N   UNL     1       4.491   4.450  16.224  0.00  0.00    +0.000 NA
ATOM      2  H   UNL     1       4.301   5.442  16.093  0.00  0.00    +0.000 HD
ENDROOT
BRANCH   1   3
ATOM      3  C   UNL     1       3.887   4.033  17.485  0.00  0.00    +0.000 C 
BRANCH   3   7
ATOM      4  C   UNL     1       2.118   7.431  19.503  0.00  0.00    +0.000 A 
ATOM      5  C   UNL     1       2.167   6.174  20.103  0.00  0.00    +0.000 A 
ATOM      6  C   UNL     1       2.755   5.097  19.449  0.00  0.00    +0.000 A 
ATOM      7  C   UNL     1       3.297   5.247  18.166  0.00  0.00    +0.000 A 
ATOM      8  C   UNL     1       3.252   6.508  17.559  0.00  0.00    +0.000 A 
ATOM      9  C   UNL     1       2.664   7.594  18.227  0.00  0.00    +0.000 A 
BRANCH   4  10
ATOM     10  O   UNL     1       1.558   8.549  20.078  0.00  0.00    +0.000 OA
BRANCH  10  11
ATOM     11  C   UNL     1       1.125   8.359  21.425  0.00  0.00    +0.000 C 
BRANCH  11  12
ATOM     12  C   UNL     1      -0.347   8.715  21.590  0.00  0.00    +0.000 C 
BRANCH  12  13
ATOM     13  C   UNL     1      -0.485   9.786  22.671  0.00  0.00    +0.000 C 
BRANCH  13  14
ATOM     14  N   UNL     1       0.500   9.591  23.727  0.00  0.00    +0.000 NA
ATOM     15  H   UNL     1       0.056   9.132  24.523  0.00  0.00    +0.000 HD
ATOM     16  H   UNL     1       0.826  10.496  24.064  0.00  0.00    +0.000 HD
ENDBRANCH  13  14
ENDBRANCH  12  13
ENDBRANCH  11  12
ENDBRANCH  10  11
ENDBRANCH   4  10
ENDBRANCH   3   7
ENDBRANCH   1   3
BRANCH   1  17
ATOM     17  C   UNL     1       5.945   4.244  16.135  0.00  0.00    +0.000 C 
BRANCH  17  18
ATOM     18  C   UNL     1       6.447   4.262  14.696  0.00  0.00    +0.000 A 
ATOM     19  C   UNL     1       7.503   5.095  14.290  0.00  0.00    +0.000 A 
ATOM     20  C   UNL     1       7.881   5.167  12.948  0.00  0.00    +0.000 A 
ATOM     21  C   UNL     1       7.211   4.411  11.989  0.00  0.00    +0.000 A 
ATOM     22  C   UNL     1       6.168   3.570  12.374  0.00  0.00    +0.000 A 
ATOM     23  C   UNL     1       5.790   3.493  13.717  0.00  0.00    +0.000 A 
ENDBRANCH  17  18
BRANCH  17  24
ATOM     24  C   UNL     1       6.669   5.245  17.042  0.00  0.00    +0.000 A 
ATOM     25  C   UNL     1       6.666   6.614  16.725  0.00  0.00    +0.000 A 
ATOM     26  C   UNL     1       7.388   7.526  17.499  0.00  0.00    +0.000 A 
ATOM     27  C   UNL     1       8.115   7.092  18.606  0.00  0.00    +0.000 A 
ATOM     28  C   UNL     1       8.105   5.743  18.955  0.00  0.00    +0.000 A 
ATOM     29  C   UNL     1       7.380   4.832  18.186  0.00  0.00    +0.000 A 
ENDBRANCH  17  24
ENDBRANCH   1  17
TORSDOF 10
ENDMDL
MODEL 8
REMARK VINA RESULT:      -7.8      3.789      8.913
REMARK  Name = 
REMARK  10 active torsions:
REMARK  status: ('A' for Active; 'I' for Inactive)
REMARK    1  A    between atoms: N_1  and  C_2
REMARK    2  A    between atoms: C_2  and  C_3
REMARK    3  A    between atoms: C_3  and  C_4
REMARK    4  A    between atoms: C_4  and  O_5
REMARK    5  A    between atoms: O_5  and  C_6
REMARK    6  A    between atoms: C_9  and  C_10
REMARK    7  A    between atoms: C_10  and  N_11
REMARK    8  A    between atoms: N_11  and  C_12
REMARK    9  A    between atoms: C_12  and  C_13
REMARK   10  A    between atoms: C_12  and  C_19
REMARK                            x       y       z     vdW  Elec       q    Type
REMARK                         _______ _______ _______ _____ _____    ______ ____
ROOT
ATOM      1  N   UNL     1       2.938   7.328  18.533  0.00  0.00    +0.000 NA
ATOM      2  H   UNL     1       2.656   7.144  19.494  0.00  0.00    +0.000 HD
ENDROOT
BRANCH   1   3
ATOM      3  C   UNL     1       1.982   8.263  17.949  0.00  0.00    +0.000 C 
BRANCH   3   7
ATOM      4  C   UNL     1       0.516  10.832  21.110  0.00  0.00    +0.000 A 
ATOM      5  C   UNL     1       0.779   9.482  21.334  0.00  0.00    +0.000 A 
ATOM      6  C   UNL     1       1.267   8.673  20.313  0.00  0.00    +0.000 A 
ATOM      7  C   UNL     1       1.490   9.195  19.032  0.00  0.00    +0.000 A 
ATOM      8  C   UNL     1       1.229  10.551  18.802  0.00  0.00    +0.000 A 
ATOM      9  C   UNL     1       0.744  11.365  19.838  0.00  0.00    +0.000 A 
BRANCH   4  10
ATOM     10  O   UNL     1       0.035  11.702  22.063  0.00  0.00    +0.000 OA
BRANCH  10  11
ATOM     11  C   UNL     1      -0.890  11.114  22.977  0.00  0.00    +0.000 C 
BRANCH  11  12
ATOM     12  C   UNL     1      -2.210  11.874  22.997  0.00  0.00    +0.000 C 
BRANCH  12  13
ATOM     13  C   UNL     1      -1.933  13.364  22.802  0.00  0.00    +0.000 C 
BRANCH  13  14
ATOM     14  N   UNL     1      -0.924  13.834  23.741  0.00  0.00    +0.000 NA
ATOM     15  H   UNL     1      -1.370  14.073  24.626  0.00  0.00    +0.000 HD
ATOM     16  H   UNL     1      -0.503  14.694  23.391  0.00  0.00    +0.000 HD
ENDBRANCH  13  14
ENDBRANCH  12  13
ENDBRANCH  11  12
ENDBRANCH  10  11
ENDBRANCH   4  10
ENDBRANCH   3   7
ENDBRANCH   1   3
BRANCH   1  17
ATOM     17  C   UNL     1       3.054   6.040  17.832  0.00  0.00    +0.000 C 
BRANCH  17  18
ATOM     18  C   UNL     1       4.505   5.636  17.597  0.00  0.00    +0.000 A 
ATOM     19  C   UNL     1       4.982   5.301  16.318  0.00  0.00    +0.000 A 
ATOM     20  C   UNL     1       6.289   4.840  16.142  0.00  0.00    +0.000 A 
ATOM     21  C   UNL     1       7.138   4.704  17.237  0.00  0.00    +0.000 A 
ATOM     22  C   UNL     1       6.687   5.043  18.511  0.00  0.00    +0.000 A 
ATOM     23  C   UNL     1       5.381   5.508  18.690  0.00  0.00    +0.000 A 
ENDBRANCH  17  18
BRANCH  17  24
ATOM     24  C   UNL     1       2.239   4.972  18.569  0.00  0.00    +0.000 A 
ATOM     25  C   UNL     1       1.980   5.106  19.944  0.00  0.00    +0.000 A 
ATOM     26  C   UNL     1       1.306   4.100  20.643  0.00  0.00    +0.000 A 
ATOM     27  C   UNL     1       0.872   2.952  19.983  0.00  0.00    +0.000 A 
ATOM     28  C   UNL     1       1.091   2.815  18.615  0.00  0.00    +0.000 A 
ATOM     29  C   UNL     1       1.758   3.820  17.914  0.00  0.00    +0.000 A 
ENDBRANCH  17  24
ENDBRANCH   1  17
TORSDOF 10
ENDMDL
MODEL 9
REMARK VINA RESULT:      -7.7      2.761      8.041
REMARK  Name = 
REMARK  10 active torsions:
REMARK  status: ('A' for Active; 'I' for Inactive)
REMARK    1  A    between atoms: N_1  and  C_2
REMARK    2  A    between atoms: C_2  and  C_3
REMARK    3  A    between atoms: C_3  and  C_4
REMARK    4  A    between atoms: C_4  and  O_5
REMARK    5  A    between atoms: O_5  and  C_6
REMARK    6  A    between atoms: C_9  and  C_10
REMARK    7  A    between atoms: C_10  and  N_11
REMARK    8  A    between atoms: N_11  and  C_12
REMARK    9  A    between atoms: C_12  and  C_13
REMARK   10  A    between atoms: C_12  and  C_19
REMARK                            x       y       z     vdW  Elec       q    Type
REMARK                         _______ _______ _______ _____ _____    ______ ____
ROOT
ATOM      1  N   UNL     1       4.553   4.111  16.207  0.00  0.00    +0.000 NA
ATOM      2  H   UNL     1       4.315   5.074  16.435  0.00  0.00    +0.000 HD
ENDROOT
BRANCH   1   3
ATOM      3  C   UNL     1       4.082   3.256  17.290  0.00  0.00    +0.000 C 
BRANCH   3   7
ATOM      4  C   UNL     1       1.954   5.651  20.202  0.00  0.00    +0.000 A 
ATOM      5  C   UNL     1       1.547   4.355  19.889  0.00  0.00    +0.000 A 
ATOM      6  C   UNL     1       2.252   3.592  18.965  0.00  0.00    +0.000 A 
ATOM      7  C   UNL     1       3.378   4.114  18.316  0.00  0.00    +0.000 A 
ATOM      8  C   UNL     1       3.792   5.415  18.626  0.00  0.00    +0.000 A 
ATOM      9  C   UNL     1       3.081   6.179  19.566  0.00  0.00    +0.000 A 
BRANCH   4  10
ATOM     10  O   UNL     1       1.317   6.474  21.103  0.00  0.00    +0.000 OA
BRANCH  10  11
ATOM     11  C   UNL     1       1.324   7.854  20.741  0.00  0.00    +0.000 C 
BRANCH  11  12
ATOM     12  C   UNL     1       0.230   8.625  21.470  0.00  0.00    +0.000 C 
BRANCH  12  13
ATOM     13  C   UNL     1       0.861   9.456  22.586  0.00  0.00    +0.000 C 
BRANCH  13  14
ATOM     14  N   UNL     1      -0.162  10.048  23.438  0.00  0.00    +0.000 NA
ATOM     15  H   UNL     1      -0.887  10.464  22.855  0.00  0.00    +0.000 HD
ATOM     16  H   UNL     1       0.242  10.810  23.981  0.00  0.00    +0.000 HD
ENDBRANCH  13  14
ENDBRANCH  12  13
ENDBRANCH  11  12
ENDBRANCH  10  11
ENDBRANCH   4  10
ENDBRANCH   3   7
ENDBRANCH   1   3
BRANCH   1  17
ATOM     17  C   UNL     1       6.000   4.045  15.948  0.00  0.00    +0.000 C 
BRANCH  17  18
ATOM     18  C   UNL     1       6.331   4.175  14.465  0.00  0.00    +0.000 A 
ATOM     19  C   UNL     1       5.614   3.471  13.483  0.00  0.00    +0.000 A 
ATOM     20  C   UNL     1       5.997   3.529  12.140  0.00  0.00    +0.000 A 
ATOM     21  C   UNL     1       7.100   4.288  11.758  0.00  0.00    +0.000 A 
ATOM     22  C   UNL     1       7.816   5.003  12.717  0.00  0.00    +0.000 A 
ATOM     23  C   UNL     1       7.434   4.949  14.060  0.00  0.00    +0.000 A 
ENDBRANCH  17  18
BRANCH  17  24
ATOM     24  C   UNL     1       6.733   5.066  16.824  0.00  0.00    +0.000 A 
ATOM     25  C   UNL     1       7.490   4.635  17.927  0.00  0.00    +0.000 A 
ATOM     26  C   UNL     1       8.097   5.561  18.781  0.00  0.00    +0.000 A 
ATOM     27  C   UNL     1       7.968   6.928  18.543  0.00  0.00    +0.000 A 
ATOM     28  C   UNL     1       7.248   7.375  17.438  0.00  0.00    +0.000 A 
ATOM     29  C   UNL     1       6.646   6.452  16.582  0.00  0.00    +0.000 A 
ENDBRANCH  17  24
ENDBRANCH   1  17
TORSDOF 10
ENDMDL
