MODEL 1
REMARK VINA RESULT:      -7.4      0.000      0.000
REMARK  Name = 
REMARK  2 active torsions:
REMARK  status: ('A' for Active; 'I' for Inactive)
REMARK    1  A    between atoms: S_2  and  N_4
REMARK    2  A    between atoms: S_2  and  C_15
REMARK                            x       y       z     vdW  Elec       q    Type
REMARK                         _______ _______ _______ _____ _____    ______ ____
ROOT
ATOM      1  N   UNL     1       5.245   5.957  16.412  0.00  0.00    +0.000 N 
ATOM      2  C   UNL     1       4.585   5.193  17.403  0.00  0.00    +0.000 A 
ATOM      3  N   UNL     1       3.765   4.252  17.020  0.00  0.00    +0.000 NA
ATOM      4  C   UNL     1       3.138   3.716  18.131  0.00  0.00    +0.000 A 
ATOM      5  C   UNL     1       2.218   2.648  18.123  0.00  0.00    +0.000 A 
ATOM      6  C   UNL     1       1.605   2.251  19.317  0.00  0.00    +0.000 A 
ATOM      7  C   UNL     1       1.900   2.908  20.507  0.00  0.00    +0.000 A 
ATOM      8 CL   UNL     1       1.102   2.428  21.956  0.00  0.00    +0.000 Cl
ATOM      9  C   UNL     1       2.828   3.951  20.552  0.00  0.00    +0.000 A 
ATOM     10  C   UNL     1       3.445   4.332  19.348  0.00  0.00    +0.000 A 
ATOM     11  S   UNL     1       4.634   5.552  19.066  0.00  0.00    +0.000 S 
ATOM     12  H   UNL     1       4.698   5.905  15.555  0.00  0.00    +0.000 HD
ENDROOT
BRANCH   1  14
ATOM     13  O   UNL     1       7.694   6.372  15.905  0.00  0.00    +0.000 OA
ATOM     14  S   UNL     1       6.753   5.277  16.029  0.00  0.00    +0.000 S 
ATOM     15  O   UNL     1       7.021   4.147  16.891  0.00  0.00    +0.000 OA
BRANCH  14  16
ATOM     16  C   UNL     1       6.635   4.591  14.387  0.00  0.00    +0.000 A 
ATOM     17  C   UNL     1       5.746   3.704  13.810  0.00  0.00    +0.000 A 
ATOM     18  C   UNL     1       6.030   3.474  12.431  0.00  0.00    +0.000 A 
ATOM     19  C   UNL     1       7.130   4.186  12.006  0.00  0.00    +0.000 A 
ATOM     20  S   UNL     1       7.811   5.127  13.262  0.00  0.00    +0.000 S 
ENDBRANCH  14  16
ENDBRANCH   1  14
TORSDOF 2
ENDMDL
MODEL 2
REMARK VINA RESULT:      -6.7      2.133      3.181
REMARK  Name = 
REMARK  2 active torsions:
REMARK  status: ('A' for Active; 'I' for Inactive)
REMARK    1  A    between atoms: S_2  and  N_4
REMARK    2  A    between atoms: S_2  and  C_15
REMARK                            x       y       z     vdW  Elec       q    Type
REMARK                         _______ _______ _______ _____ _____    ______ ____
ROOT
ATOM      1  N   UNL     1       4.860   5.163  15.414  0.00  0.00    +0.000 N 
ATOM      2  C   UNL     1       4.302   4.662  16.613  0.00  0.00    +0.000 A 
ATOM      3  N   UNL     1       3.867   3.430  16.630  0.00  0.00    +0.000 NA
ATOM      4  C   UNL     1       3.254   3.182  17.845  0.00  0.00    +0.000 A 
ATOM      5  C   UNL     1       2.702   1.950  18.254  0.00  0.00    +0.000 A 
ATOM      6  C   UNL     1       2.048   1.858  19.487  0.00  0.00    +0.000 A 
ATOM      7  C   UNL     1       1.941   2.976  20.308  0.00  0.00    +0.000 A 
ATOM      8 CL   UNL     1       1.096   2.846  21.803  0.00  0.00    +0.000 Cl
ATOM      9  C   UNL     1       2.502   4.202  19.945  0.00  0.00    +0.000 A 
ATOM     10  C   UNL     1       3.166   4.278  18.709  0.00  0.00    +0.000 A 
ATOM     11  S   UNL     1       3.975   5.620  17.981  0.00  0.00    +0.000 S 
ATOM     12  H   UNL     1       4.499   4.610  14.641  0.00  0.00    +0.000 HD
ENDROOT
BRANCH   1  14
ATOM     13  O   UNL     1       6.782   3.521  15.611  0.00  0.00    +0.000 OA
ATOM     14  S   UNL     1       6.543   4.934  15.388  0.00  0.00    +0.000 S 
ATOM     15  O   UNL     1       7.121   5.627  14.258  0.00  0.00    +0.000 OA
BRANCH  14  16
ATOM     16  C   UNL     1       7.220   5.742  16.826  0.00  0.00    +0.000 A 
ATOM     17  C   UNL     1       7.455   7.070  17.123  0.00  0.00    +0.000 A 
ATOM     18  C   UNL     1       7.984   7.246  18.436  0.00  0.00    +0.000 A 
ATOM     19  C   UNL     1       8.144   6.045  19.092  0.00  0.00    +0.000 A 
ATOM     20  S   UNL     1       7.655   4.718  18.129  0.00  0.00    +0.000 S 
ENDBRANCH  14  16
ENDBRANCH   1  14
TORSDOF 2
ENDMDL
MODEL 3
REMARK VINA RESULT:      -6.6      4.138      4.989
REMARK  Name = 
REMARK  2 active torsions:
REMARK  status: ('A' for Active; 'I' for Inactive)
REMARK    1  A    between atoms: S_2  and  N_4
REMARK    2  A    between atoms: S_2  and  C_15
REMARK                            x       y       z     vdW  Elec       q    Type
REMARK                         _______ _______ _______ _____ _____    ______ ____
ROOT
ATOM      1  N   UNL     1       3.030   4.614  18.793  0.00  0.00    +0.000 N 
ATOM      2  C   UNL     1       2.652   5.953  19.049  0.00  0.00    +0.000 A 
ATOM      3  N   UNL     1       2.247   6.267  20.251  0.00  0.00    +0.000 NA
ATOM      4  C   UNL     1       1.812   7.580  20.255  0.00  0.00    +0.000 A 
ATOM      5  C   UNL     1       1.346   8.291  21.379  0.00  0.00    +0.000 A 
ATOM      6  C   UNL     1       0.870   9.597  21.227  0.00  0.00    +0.000 A 
ATOM      7  C   UNL     1       0.854  10.195  19.970  0.00  0.00    +0.000 A 
ATOM      8 CL   UNL     1       0.226  11.789  19.801  0.00  0.00    +0.000 Cl
ATOM      9  C   UNL     1       1.336   9.527  18.841  0.00  0.00    +0.000 A 
ATOM     10  C   UNL     1       1.823   8.220  19.011  0.00  0.00    +0.000 A 
ATOM     11  S   UNL     1       2.497   7.142  17.842  0.00  0.00    +0.000 S 
ATOM     12  H   UNL     1       2.577   4.019  19.483  0.00  0.00    +0.000 HD
ENDROOT
BRANCH   1  14
ATOM     13  O   UNL     1       5.194   5.610  19.659  0.00  0.00    +0.000 OA
ATOM     14  S   UNL     1       4.697   4.399  19.036  0.00  0.00    +0.000 S 
ATOM     15  O   UNL     1       4.951   3.097  19.611  0.00  0.00    +0.000 OA
BRANCH  14  16
ATOM     16  C   UNL     1       5.476   4.360  17.432  0.00  0.00    +0.000 A 
ATOM     17  C   UNL     1       5.000   4.045  16.174  0.00  0.00    +0.000 A 
ATOM     18  C   UNL     1       5.997   4.195  15.165  0.00  0.00    +0.000 A 
ATOM     19  C   UNL     1       7.202   4.611  15.690  0.00  0.00    +0.000 A 
ATOM     20  S   UNL     1       7.125   4.820  17.386  0.00  0.00    +0.000 S 
ENDBRANCH  14  16
ENDBRANCH   1  14
TORSDOF 2
ENDMDL
MODEL 4
REMARK VINA RESULT:      -6.5      4.292      6.293
REMARK  Name = 
REMARK  2 active torsions:
REMARK  status: ('A' for Active; 'I' for Inactive)
REMARK    1  A    between atoms: S_2  and  N_4
REMARK    2  A    between atoms: S_2  and  C_15
REMARK                            x       y       z     vdW  Elec       q    Type
REMARK                         _______ _______ _______ _____ _____    ______ ____
ROOT
ATOM      1  N   UNL     1       3.024   5.943  20.365  0.00  0.00    +0.000 N 
ATOM      2  C   UNL     1       3.807   5.687  19.215  0.00  0.00    +0.000 A 
ATOM      3  N   UNL     1       5.005   5.192  19.376  0.00  0.00    +0.000 NA
ATOM      4  C   UNL     1       5.641   5.135  18.148  0.00  0.00    +0.000 A 
ATOM      5  C   UNL     1       6.930   4.616  17.911  0.00  0.00    +0.000 A 
ATOM      6  C   UNL     1       7.481   4.684  16.627  0.00  0.00    +0.000 A 
ATOM      7  C   UNL     1       6.760   5.262  15.586  0.00  0.00    +0.000 A 
ATOM      8 CL   UNL     1       7.476   5.371  14.024  0.00  0.00    +0.000 Cl
ATOM      9  C   UNL     1       5.470   5.759  15.783  0.00  0.00    +0.000 A 
ATOM     10  C   UNL     1       4.925   5.673  17.075  0.00  0.00    +0.000 A 
ATOM     11  S   UNL     1       3.371   6.169  17.642  0.00  0.00    +0.000 S 
ATOM     12  H   UNL     1       3.651   6.051  21.158  0.00  0.00    +0.000 HD
ENDROOT
BRANCH   1  14
ATOM     13  O   UNL     1       2.515   4.079  22.006  0.00  0.00    +0.000 OA
ATOM     14  S   UNL     1       2.046   4.607  20.740  0.00  0.00    +0.000 S 
ATOM     15  O   UNL     1       0.653   4.936  20.531  0.00  0.00    +0.000 OA
BRANCH  14  16
ATOM     16  C   UNL     1       2.405   3.325  19.553  0.00  0.00    +0.000 A 
ATOM     17  C   UNL     1       1.843   3.003  18.333  0.00  0.00    +0.000 A 
ATOM     18  C   UNL     1       2.497   1.898  17.711  0.00  0.00    +0.000 A 
ATOM     19  C   UNL     1       3.529   1.410  18.482  0.00  0.00    +0.000 A 
ATOM     20  S   UNL     1       3.706   2.282  19.944  0.00  0.00    +0.000 S 
ENDBRANCH  14  16
ENDBRANCH   1  14
TORSDOF 2
ENDMDL
MODEL 5
REMARK VINA RESULT:      -6.2      2.703      3.392
REMARK  Name = 
REMARK  2 active torsions:
REMARK  status: ('A' for Active; 'I' for Inactive)
REMARK    1  A    between atoms: S_2  and  N_4
REMARK    2  A    between atoms: S_2  and  C_15
REMARK                            x       y       z     vdW  Elec       q    Type
REMARK                         _______ _______ _______ _____ _____    ______ ____
ROOT
ATOM      1  N   UNL     1       3.752   6.465  16.888  0.00  0.00    +0.000 N 
ATOM      2  C   UNL     1       3.316   5.568  17.891  0.00  0.00    +0.000 A 
ATOM      3  N   UNL     1       2.475   4.625  17.560  0.00  0.00    +0.000 NA
ATOM      4  C   UNL     1       2.084   3.944  18.700  0.00  0.00    +0.000 A 
ATOM      5  C   UNL     1       1.220   2.832  18.740  0.00  0.00    +0.000 A 
ATOM      6  C   UNL     1       0.853   2.281  19.973  0.00  0.00    +0.000 A 
ATOM      7  C   UNL     1       1.338   2.830  21.157  0.00  0.00    +0.000 A 
ATOM      8 CL   UNL     1       0.840   2.161  22.663  0.00  0.00    +0.000 Cl
ATOM      9  C   UNL     1       2.219   3.915  21.149  0.00  0.00    +0.000 A 
ATOM     10  C   UNL     1       2.588   4.450  19.903  0.00  0.00    +0.000 A 
ATOM     11  S   UNL     1       3.657   5.758  19.548  0.00  0.00    +0.000 S 
ATOM     12  H   UNL     1       3.059   6.468  16.143  0.00  0.00    +0.000 HD
ENDROOT
BRANCH   1  14
ATOM     13  O   UNL     1       5.123   4.466  16.145  0.00  0.00    +0.000 OA
ATOM     14  S   UNL     1       5.188   5.914  16.168  0.00  0.00    +0.000 S 
ATOM     15  O   UNL     1       5.467   6.675  14.970  0.00  0.00    +0.000 OA
BRANCH  14  16
ATOM     16  C   UNL     1       6.529   6.290  17.281  0.00  0.00    +0.000 A 
ATOM     17  C   UNL     1       7.234   7.452  17.530  0.00  0.00    +0.000 A 
ATOM     18  C   UNL     1       8.213   7.283  18.553  0.00  0.00    +0.000 A 
ATOM     19  C   UNL     1       8.228   5.995  19.043  0.00  0.00    +0.000 A 
ATOM     20  S   UNL     1       7.066   5.002  18.274  0.00  0.00    +0.000 S 
ENDBRANCH  14  16
ENDBRANCH   1  14
TORSDOF 2
ENDMDL
MODEL 6
REMARK VINA RESULT:      -6.0      5.346      6.777
REMARK  Name = 
REMARK  2 active torsions:
REMARK  status: ('A' for Active; 'I' for Inactive)
REMARK    1  A    between atoms: S_2  and  N_4
REMARK    2  A    between atoms: S_2  and  C_15
REMARK                            x       y       z     vdW  Elec       q    Type
REMARK                         _______ _______ _______ _____ _____    ______ ____
ROOT
ATOM      1  N   UNL     1       2.601   5.294  21.196  0.00  0.00    +0.000 N 
ATOM      2  C   UNL     1       2.106   6.488  20.620  0.00  0.00    +0.000 A 
ATOM      3  N   UNL     1       2.527   6.825  19.430  0.00  0.00    +0.000 NA
ATOM      4  C   UNL     1       2.022   8.073  19.107  0.00  0.00    +0.000 A 
ATOM      5  C   UNL     1       2.219   8.751  17.887  0.00  0.00    +0.000 A 
ATOM      6  C   UNL     1       1.707  10.042  17.720  0.00  0.00    +0.000 A 
ATOM      7  C   UNL     1       1.007  10.657  18.753  0.00  0.00    +0.000 A 
ATOM      8 CL   UNL     1       0.422  12.262  18.538  0.00  0.00    +0.000 Cl
ATOM      9  C   UNL     1       0.771  10.000  19.964  0.00  0.00    +0.000 A 
ATOM     10  C   UNL     1       1.280   8.699  20.113  0.00  0.00    +0.000 A 
ATOM     11  S   UNL     1       1.150   7.621  21.456  0.00  0.00    +0.000 S 
ATOM     12  H   UNL     1       3.490   5.074  20.754  0.00  0.00    +0.000 HD
ENDROOT
BRANCH   1  14
ATOM     13  O   UNL     1       1.708   3.039  21.934  0.00  0.00    +0.000 OA
ATOM     14  S   UNL     1       1.581   3.983  20.841  0.00  0.00    +0.000 S 
ATOM     15  O   UNL     1       0.288   4.463  20.407  0.00  0.00    +0.000 OA
BRANCH  14  16
ATOM     16  C   UNL     1       2.263   3.137  19.428  0.00  0.00    +0.000 A 
ATOM     17  C   UNL     1       1.818   2.989  18.128  0.00  0.00    +0.000 A 
ATOM     18  C   UNL     1       2.733   2.245  17.325  0.00  0.00    +0.000 A 
ATOM     19  C   UNL     1       3.839   1.844  18.041  0.00  0.00    +0.000 A 
ATOM     20  S   UNL     1       3.773   2.365  19.670  0.00  0.00    +0.000 S 
ENDBRANCH  14  16
ENDBRANCH   1  14
TORSDOF 2
ENDMDL
MODEL 7
REMARK VINA RESULT:      -5.9      4.410      4.982
REMARK  Name = 
REMARK  2 active torsions:
REMARK  status: ('A' for Active; 'I' for Inactive)
REMARK    1  A    between atoms: S_2  and  N_4
REMARK    2  A    between atoms: S_2  and  C_15
REMARK                            x       y       z     vdW  Elec       q    Type
REMARK                         _______ _______ _______ _____ _____    ______ ____
ROOT
ATOM      1  N   UNL     1       3.133   5.965  17.928  0.00  0.00    +0.000 N 
ATOM      2  C   UNL     1       2.576   7.086  18.589  0.00  0.00    +0.000 A 
ATOM      3  N   UNL     1       2.253   6.969  19.849  0.00  0.00    +0.000 NA
ATOM      4  C   UNL     1       1.619   8.126  20.265  0.00  0.00    +0.000 A 
ATOM      5  C   UNL     1       1.165   8.393  21.572  0.00  0.00    +0.000 A 
ATOM      6  C   UNL     1       0.474   9.580  21.839  0.00  0.00    +0.000 A 
ATOM      7  C   UNL     1       0.235  10.495  20.818  0.00  0.00    +0.000 A 
ATOM      8 CL   UNL     1      -0.653  11.930  21.162  0.00  0.00    +0.000 Cl
ATOM      9  C   UNL     1       0.697  10.272  19.518  0.00  0.00    +0.000 A 
ATOM     10  C   UNL     1       1.399   9.081  19.268  0.00  0.00    +0.000 A 
ATOM     11  S   UNL     1       2.110   8.519  17.798  0.00  0.00    +0.000 S 
ATOM     12  H   UNL     1       2.853   5.128  18.434  0.00  0.00    +0.000 HD
ENDROOT
BRANCH   1  14
ATOM     13  O   UNL     1       5.235   7.380  17.850  0.00  0.00    +0.000 OA
ATOM     14  S   UNL     1       4.829   5.998  18.009  0.00  0.00    +0.000 S 
ATOM     15  O   UNL     1       5.288   5.200  19.124  0.00  0.00    +0.000 OA
BRANCH  14  16
ATOM     16  C   UNL     1       5.454   5.172  16.557  0.00  0.00    +0.000 A 
ATOM     17  C   UNL     1       4.862   4.321  15.643  0.00  0.00    +0.000 A 
ATOM     18  C   UNL     1       5.761   3.933  14.605  0.00  0.00    +0.000 A 
ATOM     19  C   UNL     1       7.008   4.493  14.768  0.00  0.00    +0.000 A 
ATOM     20  S   UNL     1       7.091   5.482  16.162  0.00  0.00    +0.000 S 
ENDBRANCH  14  16
ENDBRANCH   1  14
TORSDOF 2
ENDMDL
MODEL 8
REMARK VINA RESULT:      -5.9      4.975      6.969
REMARK  Name = 
REMARK  2 active torsions:
REMARK  status: ('A' for Active; 'I' for Inactive)
REMARK    1  A    between atoms: S_2  and  N_4
REMARK    2  A    between atoms: S_2  and  C_15
REMARK                            x       y       z     vdW  Elec       q    Type
REMARK                         _______ _______ _______ _____ _____    ______ ____
ROOT
ATOM      1  N   UNL     1       3.535   6.230  18.630  0.00  0.00    +0.000 N 
ATOM      2  C   UNL     1       2.540   7.173  18.980  0.00  0.00    +0.000 A 
ATOM      3  N   UNL     1       2.115   8.000  18.062  0.00  0.00    +0.000 NA
ATOM      4  C   UNL     1       1.245   8.909  18.638  0.00  0.00    +0.000 A 
ATOM      5  C   UNL     1       0.547   9.927  17.957  0.00  0.00    +0.000 A 
ATOM      6  C   UNL     1      -0.250  10.823  18.677  0.00  0.00    +0.000 A 
ATOM      7  C   UNL     1      -0.354  10.713  20.060  0.00  0.00    +0.000 A 
ATOM      8 CL   UNL     1      -1.309  11.853  20.928  0.00  0.00    +0.000 Cl
ATOM      9  C   UNL     1       0.302   9.697  20.760  0.00  0.00    +0.000 A 
ATOM     10  C   UNL     1       1.090   8.797  20.023  0.00  0.00    +0.000 A 
ATOM     11  S   UNL     1       2.002   7.438  20.573  0.00  0.00    +0.000 S 
ATOM     12  H   UNL     1       4.035   6.584  17.817  0.00  0.00    +0.000 HD
ENDROOT
BRANCH   1  14
ATOM     13  O   UNL     1       1.505   5.082  17.638  0.00  0.00    +0.000 OA
ATOM     14  S   UNL     1       2.832   4.768  18.128  0.00  0.00    +0.000 S 
ATOM     15  O   UNL     1       3.772   4.014  17.329  0.00  0.00    +0.000 OA
BRANCH  14  16
ATOM     16  C   UNL     1       2.557   3.775  19.583  0.00  0.00    +0.000 A 
ATOM     17  C   UNL     1       3.402   3.006  20.359  0.00  0.00    +0.000 A 
ATOM     18  C   UNL     1       2.729   2.411  21.467  0.00  0.00    +0.000 A 
ATOM     19  C   UNL     1       1.391   2.739  21.493  0.00  0.00    +0.000 A 
ATOM     20  S   UNL     1       0.955   3.760  20.191  0.00  0.00    +0.000 S 
ENDBRANCH  14  16
ENDBRANCH   1  14
TORSDOF 2
ENDMDL
MODEL 9
REMARK VINA RESULT:      -5.8      3.808      6.688
REMARK  Name = 
REMARK  2 active torsions:
REMARK  status: ('A' for Active; 'I' for Inactive)
REMARK    1  A    between atoms: S_2  and  N_4
REMARK    2  A    between atoms: S_2  and  C_15
REMARK                            x       y       z     vdW  Elec       q    Type
REMARK                         _______ _______ _______ _____ _____    ______ ____
ROOT
ATOM      1  N   UNL     1       4.213   5.880  19.541  0.00  0.00    +0.000 N 
ATOM      2  C   UNL     1       4.716   5.714  18.230  0.00  0.00    +0.000 A 
ATOM      3  N   UNL     1       4.841   4.501  17.760  0.00  0.00    +0.000 NA
ATOM      4  C   UNL     1       5.460   4.554  16.524  0.00  0.00    +0.000 A 
ATOM      5  C   UNL     1       5.725   3.452  15.687  0.00  0.00    +0.000 A 
ATOM      6  C   UNL     1       6.423   3.641  14.489  0.00  0.00    +0.000 A 
ATOM      7  C   UNL     1       6.854   4.913  14.124  0.00  0.00    +0.000 A 
ATOM      8 CL   UNL     1       7.746   5.114  12.664  0.00  0.00    +0.000 Cl
ATOM      9  C   UNL     1       6.582   6.030  14.918  0.00  0.00    +0.000 A 
ATOM     10  C   UNL     1       5.870   5.826  16.112  0.00  0.00    +0.000 A 
ATOM     11  S   UNL     1       5.361   6.979  17.292  0.00  0.00    +0.000 S 
ATOM     12  H   UNL     1       4.374   5.017  20.055  0.00  0.00    +0.000 HD
ENDROOT
BRANCH   1  14
ATOM     13  O   UNL     1       2.141   6.560  20.834  0.00  0.00    +0.000 OA
ATOM     14  S   UNL     1       2.527   6.085  19.520  0.00  0.00    +0.000 S 
ATOM     15  O   UNL     1       2.127   6.785  18.319  0.00  0.00    +0.000 OA
BRANCH  14  16
ATOM     16  C   UNL     1       1.788   4.468  19.385  0.00  0.00    +0.000 A 
ATOM     17  C   UNL     1       1.320   3.746  18.305  0.00  0.00    +0.000 A 
ATOM     18  C   UNL     1       0.840   2.457  18.683  0.00  0.00    +0.000 A 
ATOM     19  C   UNL     1       0.950   2.243  20.039  0.00  0.00    +0.000 A 
ATOM     20  S   UNL     1       1.630   3.589  20.848  0.00  0.00    +0.000 S 
ENDBRANCH  14  16
ENDBRANCH   1  14
TORSDOF 2
ENDMDL
