MODEL 1
REMARK VINA RESULT:      -7.8      0.000      0.000
REMARK  Name = 
REMARK  10 active torsions:
REMARK  status: ('A' for Active; 'I' for Inactive)
REMARK    1  A    between atoms: C_1  and  C_2
REMARK    2  A    between atoms: C_5  and  C_6
REMARK    3  A    between atoms: C_7  and  S_8
REMARK    4  A    between atoms: S_8  and  N_11
REMARK    5  A    between atoms: C_12  and  C_14
REMARK    6  A    between atoms: C_14  and  O_15
REMARK    7  A    between atoms: O_15  and  C_16
REMARK    8  A    between atoms: C_19  and  C_20
REMARK    9  A    between atoms: C_20  and  C_21
REMARK   10  A    between atoms: C_20  and  C_22
REMARK                            x       y       z     vdW  Elec       q    Type
REMARK                         _______ _______ _______ _____ _____    ______ ____
ROOT
ATOM      1  N   UNL     1       5.368   3.355  19.353  0.00  0.00    +0.000 N 
ATOM      2  C   UNL     1       5.195   4.740  19.503  0.00  0.00    +0.000 C 
ATOM      3  O   UNL     1       4.150   5.223  19.925  0.00  0.00    +0.000 OA
ATOM      4  H   UNL     1       6.262   2.988  19.036  0.00  0.00    +0.000 HD
ENDROOT
BRANCH   1   5
ATOM      5  S   UNL     1       4.243   2.227  19.815  0.00  0.00    +0.000 S 
ATOM      6  O   UNL     1       4.265   2.109  21.254  0.00  0.00    +0.000 OA
ATOM      7  O   UNL     1       4.455   1.074  18.965  0.00  0.00    +0.000 OA
BRANCH   5  14
ATOM      8  C   UNL     1       2.987   3.180  16.832  0.00  0.00    +0.000 C 
ATOM      9  C   UNL     1       2.242   3.147  18.111  0.00  0.00    +0.000 A 
ATOM     10  N   UNL     1       0.958   3.527  18.138  0.00  0.00    +0.000 NA
ATOM     11  O   UNL     1       0.547   3.381  19.448  0.00  0.00    +0.000 OA
ATOM     12  C   UNL     1       1.579   2.918  20.209  0.00  0.00    +0.000 A 
ATOM     13  C   UNL     1       1.280   2.715  21.639  0.00  0.00    +0.000 C 
ATOM     14  C   UNL     1       2.678   2.762  19.399  0.00  0.00    +0.000 A 
ENDBRANCH   5  14
ENDBRANCH   1   5
BRANCH   2  15
ATOM     15  C   UNL     1       6.359   5.619  19.059  0.00  0.00    +0.000 C 
BRANCH  15  16
ATOM     16  O   UNL     1       6.049   6.284  17.840  0.00  0.00    +0.000 OA
BRANCH  16  17
ATOM     17  C   UNL     1       6.132   5.533  16.699  0.00  0.00    +0.000 A 
ATOM     18  C   UNL     1       5.201   5.862  15.714  0.00  0.00    +0.000 A 
ATOM     19  C   UNL     1       5.200   5.206  14.479  0.00  0.00    +0.000 A 
ATOM     20  C   UNL     1       6.155   4.222  14.188  0.00  0.00    +0.000 A 
ATOM     21  C   UNL     1       7.079   3.887  15.190  0.00  0.00    +0.000 A 
ATOM     22  C   UNL     1       7.071   4.538  16.436  0.00  0.00    +0.000 A 
BRANCH  20  23
ATOM     23  C   UNL     1       6.194   3.593  12.802  0.00  0.00    +0.000 C 
ATOM     24  C   UNL     1       4.802   3.554  12.162  0.00  0.00    +0.000 C 
ATOM     25  C   UNL     1       7.178   4.282  11.854  0.00  0.00    +0.000 C 
ENDBRANCH  20  23
ENDBRANCH  16  17
ENDBRANCH  15  16
ENDBRANCH   2  15
TORSDOF 6
ENDMDL
MODEL 2
REMARK VINA RESULT:      -7.6      0.413      1.064
REMARK  Name = 
REMARK  10 active torsions:
REMARK  status: ('A' for Active; 'I' for Inactive)
REMARK    1  A    between atoms: C_1  and  C_2
REMARK    2  A    between atoms: C_5  and  C_6
REMARK    3  A    between atoms: C_7  and  S_8
REMARK    4  A    between atoms: S_8  and  N_11
REMARK    5  A    between atoms: C_12  and  C_14
REMARK    6  A    between atoms: C_14  and  O_15
REMARK    7  A    between atoms: O_15  and  C_16
REMARK    8  A    between atoms: C_19  and  C_20
REMARK    9  A    between atoms: C_20  and  C_21
REMARK   10  A    between atoms: C_20  and  C_22
REMARK                            x       y       z     vdW  Elec       q    Type
REMARK                         _______ _______ _______ _____ _____    ______ ____
ROOT
ATOM      1  N   UNL     1       5.409   3.373  19.468  0.00  0.00    +0.000 N 
ATOM      2  C   UNL     1       5.297   4.772  19.501  0.00  0.00    +0.000 C 
ATOM      3  O   UNL     1       4.237   5.335  19.753  0.00  0.00    +0.000 OA
ATOM      4  H   UNL     1       6.312   2.942  19.292  0.00  0.00    +0.000 HD
ENDROOT
BRANCH   1   5
ATOM      5  S   UNL     1       4.175   2.338  19.861  0.00  0.00    +0.000 S 
ATOM      6  O   UNL     1       3.948   2.401  21.285  0.00  0.00    +0.000 OA
ATOM      7  O   UNL     1       4.476   1.082  19.204  0.00  0.00    +0.000 OA
BRANCH   5  14
ATOM      8  C   UNL     1       3.500   3.004  16.622  0.00  0.00    +0.000 C 
ATOM      9  C   UNL     1       2.539   3.111  17.743  0.00  0.00    +0.000 A 
ATOM     10  N   UNL     1       1.284   3.510  17.502  0.00  0.00    +0.000 NA
ATOM     11  O   UNL     1       0.641   3.502  18.724  0.00  0.00    +0.000 OA
ATOM     12  C   UNL     1       1.506   3.103  19.699  0.00  0.00    +0.000 A 
ATOM     13  C   UNL     1       0.951   3.049  21.065  0.00  0.00    +0.000 C 
ATOM     14  C   UNL     1       2.726   2.851  19.119  0.00  0.00    +0.000 A 
ENDBRANCH   5  14
ENDBRANCH   1   5
BRANCH   2  15
ATOM     15  C   UNL     1       6.554   5.560  19.148  0.00  0.00    +0.000 C 
BRANCH  15  16
ATOM     16  O   UNL     1       6.307   6.437  18.054  0.00  0.00    +0.000 OA
BRANCH  16  17
ATOM     17  C   UNL     1       6.222   5.858  16.817  0.00  0.00    +0.000 A 
ATOM     18  C   UNL     1       7.167   4.862  16.572  0.00  0.00    +0.000 A 
ATOM     19  C   UNL     1       7.167   4.155  15.365  0.00  0.00    +0.000 A 
ATOM     20  C   UNL     1       6.199   4.408  14.383  0.00  0.00    +0.000 A 
ATOM     21  C   UNL     1       5.261   5.421  14.633  0.00  0.00    +0.000 A 
ATOM     22  C   UNL     1       5.269   6.141  15.840  0.00  0.00    +0.000 A 
BRANCH  20  23
ATOM     23  C   UNL     1       6.162   3.557  13.122  0.00  0.00    +0.000 C 
ATOM     24  C   UNL     1       4.788   3.611  12.446  0.00  0.00    +0.000 C 
ATOM     25  C   UNL     1       7.249   3.929  12.110  0.00  0.00    +0.000 C 
ENDBRANCH  20  23
ENDBRANCH  16  17
ENDBRANCH  15  16
ENDBRANCH   2  15
TORSDOF 6
ENDMDL
MODEL 3
REMARK VINA RESULT:      -7.4      1.647      2.695
REMARK  Name = 
REMARK  10 active torsions:
REMARK  status: ('A' for Active; 'I' for Inactive)
REMARK    1  A    between atoms: C_1  and  C_2
REMARK    2  A    between atoms: C_5  and  C_6
REMARK    3  A    between atoms: C_7  and  S_8
REMARK    4  A    between atoms: S_8  and  N_11
REMARK    5  A    between atoms: C_12  and  C_14
REMARK    6  A    between atoms: C_14  and  O_15
REMARK    7  A    between atoms: O_15  and  C_16
REMARK    8  A    between atoms: C_19  and  C_20
REMARK    9  A    between atoms: C_20  and  C_21
REMARK   10  A    between atoms: C_20  and  C_22
REMARK                            x       y       z     vdW  Elec       q    Type
REMARK                         _______ _______ _______ _____ _____    ______ ____
ROOT
ATOM      1  N   UNL     1       6.072   4.035  18.373  0.00  0.00    +0.000 N 
ATOM      2  C   UNL     1       6.484   5.130  17.596  0.00  0.00    +0.000 C 
ATOM      3  O   UNL     1       5.861   6.185  17.575  0.00  0.00    +0.000 OA
ATOM      4  H   UNL     1       6.634   3.189  18.395  0.00  0.00    +0.000 HD
ENDROOT
BRANCH   1   5
ATOM      5  S   UNL     1       4.779   4.074  19.410  0.00  0.00    +0.000 S 
ATOM      6  O   UNL     1       4.772   5.343  20.100  0.00  0.00    +0.000 OA
ATOM      7  O   UNL     1       4.810   2.824  20.142  0.00  0.00    +0.000 OA
BRANCH   5  14
ATOM      8  C   UNL     1       3.174   1.421  18.080  0.00  0.00    +0.000 C 
ATOM      9  C   UNL     1       2.723   2.830  18.002  0.00  0.00    +0.000 A 
ATOM     10  N   UNL     1       1.592   3.126  17.352  0.00  0.00    +0.000 NA
ATOM     11  O   UNL     1       1.440   4.495  17.459  0.00  0.00    +0.000 OA
ATOM     12  C   UNL     1       2.478   5.021  18.169  0.00  0.00    +0.000 A 
ATOM     13  C   UNL     1       2.445   6.483  18.362  0.00  0.00    +0.000 C 
ATOM     14  C   UNL     1       3.321   3.997  18.528  0.00  0.00    +0.000 A 
ENDBRANCH   5  14
ENDBRANCH   1   5
BRANCH   2  15
ATOM     15  C   UNL     1       7.723   4.917  16.733  0.00  0.00    +0.000 C 
BRANCH  15  16
ATOM     16  O   UNL     1       7.601   5.617  15.499  0.00  0.00    +0.000 OA
BRANCH  16  17
ATOM     17  C   UNL     1       6.935   4.968  14.495  0.00  0.00    +0.000 A 
ATOM     18  C   UNL     1       7.641   4.866  13.296  0.00  0.00    +0.000 A 
ATOM     19  C   UNL     1       7.099   4.188  12.199  0.00  0.00    +0.000 A 
ATOM     20  C   UNL     1       5.845   3.568  12.286  0.00  0.00    +0.000 A 
ATOM     21  C   UNL     1       5.135   3.688  13.491  0.00  0.00    +0.000 A 
ATOM     22  C   UNL     1       5.675   4.380  14.589  0.00  0.00    +0.000 A 
BRANCH  20  23
ATOM     23  C   UNL     1       5.321   2.754  11.111  0.00  0.00    +0.000 C 
ATOM     24  C   UNL     1       5.776   1.293  11.191  0.00  0.00    +0.000 C 
ATOM     25  C   UNL     1       3.799   2.813  10.967  0.00  0.00    +0.000 C 
ENDBRANCH  20  23
ENDBRANCH  16  17
ENDBRANCH  15  16
ENDBRANCH   2  15
TORSDOF 6
ENDMDL
MODEL 4
REMARK VINA RESULT:      -7.2      4.905      7.192
REMARK  Name = 
REMARK  10 active torsions:
REMARK  status: ('A' for Active; 'I' for Inactive)
REMARK    1  A    between atoms: C_1  and  C_2
REMARK    2  A    between atoms: C_5  and  C_6
REMARK    3  A    between atoms: C_7  and  S_8
REMARK    4  A    between atoms: S_8  and  N_11
REMARK    5  A    between atoms: C_12  and  C_14
REMARK    6  A    between atoms: C_14  and  O_15
REMARK    7  A    between atoms: O_15  and  C_16
REMARK    8  A    between atoms: C_19  and  C_20
REMARK    9  A    between atoms: C_20  and  C_21
REMARK   10  A    between atoms: C_20  and  C_22
REMARK                            x       y       z     vdW  Elec       q    Type
REMARK                         _______ _______ _______ _____ _____    ______ ____
ROOT
ATOM      1  N   UNL     1       3.782   5.168  18.949  0.00  0.00    +0.000 N 
ATOM      2  C   UNL     1       2.787   4.862  19.891  0.00  0.00    +0.000 C 
ATOM      3  O   UNL     1       2.573   3.713  20.262  0.00  0.00    +0.000 OA
ATOM      4  H   UNL     1       3.957   6.136  18.693  0.00  0.00    +0.000 HD
ENDROOT
BRANCH   1   5
ATOM      5  S   UNL     1       4.831   4.050  18.317  0.00  0.00    +0.000 S 
ATOM      6  O   UNL     1       4.121   3.230  17.364  0.00  0.00    +0.000 OA
ATOM      7  O   UNL     1       5.521   3.460  19.447  0.00  0.00    +0.000 OA
BRANCH   5  14
ATOM      8  C   UNL     1       5.302   4.359  14.991  0.00  0.00    +0.000 C 
ATOM      9  C   UNL     1       6.186   4.912  16.042  0.00  0.00    +0.000 A 
ATOM     10  N   UNL     1       7.283   5.593  15.691  0.00  0.00    +0.000 NA
ATOM     11  O   UNL     1       7.885   5.978  16.873  0.00  0.00    +0.000 OA
ATOM     12  C   UNL     1       7.155   5.527  17.932  0.00  0.00    +0.000 A 
ATOM     13  C   UNL     1       7.685   5.867  19.266  0.00  0.00    +0.000 C 
ATOM     14  C   UNL     1       6.069   4.838  17.448  0.00  0.00    +0.000 A 
ENDBRANCH   5  14
ENDBRANCH   1   5
BRANCH   2  15
ATOM     15  C   UNL     1       1.945   6.032  20.389  0.00  0.00    +0.000 C 
BRANCH  15  16
ATOM     16  O   UNL     1       2.490   7.269  19.943  0.00  0.00    +0.000 OA
BRANCH  16  17
ATOM     17  C   UNL     1       1.605   8.299  19.777  0.00  0.00    +0.000 A 
ATOM     18  C   UNL     1       1.567   8.836  18.491  0.00  0.00    +0.000 A 
ATOM     19  C   UNL     1       0.676   9.865  18.168  0.00  0.00    +0.000 A 
ATOM     20  C   UNL     1      -0.224  10.362  19.121  0.00  0.00    +0.000 A 
ATOM     21  C   UNL     1      -0.169   9.825  20.417  0.00  0.00    +0.000 A 
ATOM     22  C   UNL     1       0.736   8.801  20.745  0.00  0.00    +0.000 A 
BRANCH  20  23
ATOM     23  C   UNL     1      -1.249  11.412  18.717  0.00  0.00    +0.000 C 
ATOM     24  C   UNL     1      -0.587  12.759  18.415  0.00  0.00    +0.000 C 
ATOM     25  C   UNL     1      -2.115  10.985  17.529  0.00  0.00    +0.000 C 
ENDBRANCH  20  23
ENDBRANCH  16  17
ENDBRANCH  15  16
ENDBRANCH   2  15
TORSDOF 6
ENDMDL
MODEL 5
REMARK VINA RESULT:      -7.2      5.043      7.882
REMARK  Name = 
REMARK  10 active torsions:
REMARK  status: ('A' for Active; 'I' for Inactive)
REMARK    1  A    between atoms: C_1  and  C_2
REMARK    2  A    between atoms: C_5  and  C_6
REMARK    3  A    between atoms: C_7  and  S_8
REMARK    4  A    between atoms: S_8  and  N_11
REMARK    5  A    between atoms: C_12  and  C_14
REMARK    6  A    between atoms: C_14  and  O_15
REMARK    7  A    between atoms: O_15  and  C_16
REMARK    8  A    between atoms: C_19  and  C_20
REMARK    9  A    between atoms: C_20  and  C_21
REMARK   10  A    between atoms: C_20  and  C_22
REMARK                            x       y       z     vdW  Elec       q    Type
REMARK                         _______ _______ _______ _____ _____    ______ ____
ROOT
ATOM      1  N   UNL     1       3.800   5.159  19.054  0.00  0.00    +0.000 N 
ATOM      2  C   UNL     1       2.742   4.809  19.909  0.00  0.00    +0.000 C 
ATOM      3  O   UNL     1       2.458   3.640  20.148  0.00  0.00    +0.000 OA
ATOM      4  H   UNL     1       4.030   6.138  18.909  0.00  0.00    +0.000 HD
ENDROOT
BRANCH   1   5
ATOM      5  S   UNL     1       4.831   4.060  18.363  0.00  0.00    +0.000 S 
ATOM      6  O   UNL     1       4.098   3.274  17.399  0.00  0.00    +0.000 OA
ATOM      7  O   UNL     1       5.543   3.431  19.457  0.00  0.00    +0.000 OA
BRANCH   5  14
ATOM      8  C   UNL     1       5.260   4.434  15.037  0.00  0.00    +0.000 C 
ATOM      9  C   UNL     1       6.152   4.975  16.088  0.00  0.00    +0.000 A 
ATOM     10  N   UNL     1       7.240   5.671  15.737  0.00  0.00    +0.000 NA
ATOM     11  O   UNL     1       7.853   6.039  16.919  0.00  0.00    +0.000 OA
ATOM     12  C   UNL     1       7.139   5.563  17.978  0.00  0.00    +0.000 A 
ATOM     13  C   UNL     1       7.682   5.882  19.312  0.00  0.00    +0.000 C 
ATOM     14  C   UNL     1       6.053   4.874  17.494  0.00  0.00    +0.000 A 
ENDBRANCH   5  14
ENDBRANCH   1   5
BRANCH   2  15
ATOM     15  C   UNL     1       1.927   5.962  20.483  0.00  0.00    +0.000 C 
BRANCH  15  16
ATOM     16  O   UNL     1       2.217   7.174  19.796  0.00  0.00    +0.000 OA
BRANCH  16  17
ATOM     17  C   UNL     1       1.512   8.280  20.187  0.00  0.00    +0.000 A 
ATOM     18  C   UNL     1       1.182   8.314  21.541  0.00  0.00    +0.000 A 
ATOM     19  C   UNL     1       0.501   9.408  22.087  0.00  0.00    +0.000 A 
ATOM     20  C   UNL     1       0.159  10.511  21.293  0.00  0.00    +0.000 A 
ATOM     21  C   UNL     1       0.483  10.461  19.927  0.00  0.00    +0.000 A 
ATOM     22  C   UNL     1       1.155   9.357  19.377  0.00  0.00    +0.000 A 
BRANCH  20  23
ATOM     23  C   UNL     1      -0.493  11.729  21.931  0.00  0.00    +0.000 C 
ATOM     24  C   UNL     1      -1.177  12.614  20.885  0.00  0.00    +0.000 C 
ATOM     25  C   UNL     1      -1.490  11.371  23.035  0.00  0.00    +0.000 C 
ENDBRANCH  20  23
ENDBRANCH  16  17
ENDBRANCH  15  16
ENDBRANCH   2  15
TORSDOF 6
ENDMDL
MODEL 6
REMARK VINA RESULT:      -7.1      0.517      1.838
REMARK  Name = 
REMARK  10 active torsions:
REMARK  status: ('A' for Active; 'I' for Inactive)
REMARK    1  A    between atoms: C_1  and  C_2
REMARK    2  A    between atoms: C_5  and  C_6
REMARK    3  A    between atoms: C_7  and  S_8
REMARK    4  A    between atoms: S_8  and  N_11
REMARK    5  A    between atoms: C_12  and  C_14
REMARK    6  A    between atoms: C_14  and  O_15
REMARK    7  A    between atoms: O_15  and  C_16
REMARK    8  A    between atoms: C_19  and  C_20
REMARK    9  A    between atoms: C_20  and  C_21
REMARK   10  A    between atoms: C_20  and  C_22
REMARK                            x       y       z     vdW  Elec       q    Type
REMARK                         _______ _______ _______ _____ _____    ______ ____
ROOT
ATOM      1  N   UNL     1       5.409   3.257  19.410  0.00  0.00    +0.000 N 
ATOM      2  C   UNL     1       5.314   4.655  19.492  0.00  0.00    +0.000 C 
ATOM      3  O   UNL     1       4.277   5.219  19.825  0.00  0.00    +0.000 OA
ATOM      4  H   UNL     1       6.296   2.823  19.167  0.00  0.00    +0.000 HD
ENDROOT
BRANCH   1   5
ATOM      5  S   UNL     1       4.189   2.221  19.842  0.00  0.00    +0.000 S 
ATOM      6  O   UNL     1       4.087   2.196  21.282  0.00  0.00    +0.000 OA
ATOM      7  O   UNL     1       4.404   1.005  19.084  0.00  0.00    +0.000 OA
BRANCH   5  14
ATOM      8  C   UNL     1       1.274   2.737  21.461  0.00  0.00    +0.000 C 
ATOM      9  C   UNL     1       1.517   2.986  20.022  0.00  0.00    +0.000 A 
ATOM     10  N   UNL     1       0.523   3.449  19.254  0.00  0.00    +0.000 NA
ATOM     11  O   UNL     1       1.053   3.583  17.986  0.00  0.00    +0.000 OA
ATOM     12  C   UNL     1       2.361   3.200  17.989  0.00  0.00    +0.000 A 
ATOM     13  C   UNL     1       3.058   3.291  16.692  0.00  0.00    +0.000 C 
ATOM     14  C   UNL     1       2.695   2.806  19.263  0.00  0.00    +0.000 A 
ENDBRANCH   5  14
ENDBRANCH   1   5
BRANCH   2  15
ATOM     15  C   UNL     1       6.557   5.443  19.091  0.00  0.00    +0.000 C 
BRANCH  15  16
ATOM     16  O   UNL     1       6.280   6.282  17.975  0.00  0.00    +0.000 OA
BRANCH  16  17
ATOM     17  C   UNL     1       6.207   5.667  16.754  0.00  0.00    +0.000 A 
ATOM     18  C   UNL     1       5.278   6.222  15.875  0.00  0.00    +0.000 A 
ATOM     19  C   UNL     1       5.130   5.721  14.577  0.00  0.00    +0.000 A 
ATOM     20  C   UNL     1       5.933   4.669  14.117  0.00  0.00    +0.000 A 
ATOM     21  C   UNL     1       6.856   4.107  15.013  0.00  0.00    +0.000 A 
ATOM     22  C   UNL     1       6.995   4.602  16.321  0.00  0.00    +0.000 A 
BRANCH  20  23
ATOM     23  C   UNL     1       5.821   4.209  12.670  0.00  0.00    +0.000 C 
ATOM     24  C   UNL     1       7.155   3.667  12.146  0.00  0.00    +0.000 C 
ATOM     25  C   UNL     1       4.720   3.169  12.451  0.00  0.00    +0.000 C 
ENDBRANCH  20  23
ENDBRANCH  16  17
ENDBRANCH  15  16
ENDBRANCH   2  15
TORSDOF 6
ENDMDL
MODEL 7
REMARK VINA RESULT:      -7.1      4.486      6.738
REMARK  Name = 
REMARK  10 active torsions:
REMARK  status: ('A' for Active; 'I' for Inactive)
REMARK    1  A    between atoms: C_1  and  C_2
REMARK    2  A    between atoms: C_5  and  C_6
REMARK    3  A    between atoms: C_7  and  S_8
REMARK    4  A    between atoms: S_8  and  N_11
REMARK    5  A    between atoms: C_12  and  C_14
REMARK    6  A    between atoms: C_14  and  O_15
REMARK    7  A    between atoms: O_15  and  C_16
REMARK    8  A    between atoms: C_19  and  C_20
REMARK    9  A    between atoms: C_20  and  C_21
REMARK   10  A    between atoms: C_20  and  C_22
REMARK                            x       y       z     vdW  Elec       q    Type
REMARK                         _______ _______ _______ _____ _____    ______ ____
ROOT
ATOM      1  N   UNL     1       3.084   4.906  17.790  0.00  0.00    +0.000 N 
ATOM      2  C   UNL     1       4.006   5.796  18.362  0.00  0.00    +0.000 C 
ATOM      3  O   UNL     1       4.809   5.441  19.219  0.00  0.00    +0.000 OA
ATOM      4  H   UNL     1       2.459   5.227  17.055  0.00  0.00    +0.000 HD
ENDROOT
BRANCH   1   5
ATOM      5  S   UNL     1       3.041   3.282  18.121  0.00  0.00    +0.000 S 
ATOM      6  O   UNL     1       4.302   2.693  17.736  0.00  0.00    +0.000 OA
ATOM      7  O   UNL     1       1.790   2.792  17.579  0.00  0.00    +0.000 OA
BRANCH   5  14
ATOM      8  C   UNL     1       0.684   4.369  20.276  0.00  0.00    +0.000 C 
ATOM      9  C   UNL     1       1.857   3.537  20.628  0.00  0.00    +0.000 A 
ATOM     10  N   UNL     1       2.045   3.166  21.901  0.00  0.00    +0.000 NA
ATOM     11  O   UNL     1       3.199   2.406  21.908  0.00  0.00    +0.000 OA
ATOM     12  C   UNL     1       3.705   2.323  20.645  0.00  0.00    +0.000 A 
ATOM     13  C   UNL     1       4.945   1.536  20.503  0.00  0.00    +0.000 C 
ATOM     14  C   UNL     1       2.886   3.034  19.801  0.00  0.00    +0.000 A 
ENDBRANCH   5  14
ENDBRANCH   1   5
BRANCH   2  15
ATOM     15  C   UNL     1       3.920   7.248  17.902  0.00  0.00    +0.000 C 
BRANCH  15  16
ATOM     16  O   UNL     1       2.563   7.633  17.708  0.00  0.00    +0.000 OA
BRANCH  16  17
ATOM     17  C   UNL     1       1.938   8.217  18.776  0.00  0.00    +0.000 A 
ATOM     18  C   UNL     1       1.195   9.356  18.468  0.00  0.00    +0.000 A 
ATOM     19  C   UNL     1       0.466  10.027  19.455  0.00  0.00    +0.000 A 
ATOM     20  C   UNL     1       0.440   9.556  20.775  0.00  0.00    +0.000 A 
ATOM     21  C   UNL     1       1.203   8.417  21.080  0.00  0.00    +0.000 A 
ATOM     22  C   UNL     1       1.944   7.750  20.090  0.00  0.00    +0.000 A 
BRANCH  20  23
ATOM     23  C   UNL     1      -0.438  10.247  21.808  0.00  0.00    +0.000 C 
ATOM     24  C   UNL     1      -0.202   9.686  23.214  0.00  0.00    +0.000 C 
ATOM     25  C   UNL     1      -0.267  11.768  21.824  0.00  0.00    +0.000 C 
ENDBRANCH  20  23
ENDBRANCH  16  17
ENDBRANCH  15  16
ENDBRANCH   2  15
TORSDOF 6
ENDMDL
MODEL 8
REMARK VINA RESULT:      -7.1      5.037      7.917
REMARK  Name = 
REMARK  10 active torsions:
REMARK  status: ('A' for Active; 'I' for Inactive)
REMARK    1  A    between atoms: C_1  and  C_2
REMARK    2  A    between atoms: C_5  and  C_6
REMARK    3  A    between atoms: C_7  and  S_8
REMARK    4  A    between atoms: S_8  and  N_11
REMARK    5  A    between atoms: C_12  and  C_14
REMARK    6  A    between atoms: C_14  and  O_15
REMARK    7  A    between atoms: O_15  and  C_16
REMARK    8  A    between atoms: C_19  and  C_20
REMARK    9  A    between atoms: C_20  and  C_21
REMARK   10  A    between atoms: C_20  and  C_22
REMARK                            x       y       z     vdW  Elec       q    Type
REMARK                         _______ _______ _______ _____ _____    ______ ____
ROOT
ATOM      1  N   UNL     1       3.981   5.272  18.718  0.00  0.00    +0.000 N 
ATOM      2  C   UNL     1       3.064   4.930  19.724  0.00  0.00    +0.000 C 
ATOM      3  O   UNL     1       2.934   3.777  20.123  0.00  0.00    +0.000 OA
ATOM      4  H   UNL     1       4.088   6.244  18.440  0.00  0.00    +0.000 HD
ENDROOT
BRANCH   1   5
ATOM      5  S   UNL     1       5.047   4.200  18.036  0.00  0.00    +0.000 S 
ATOM      6  O   UNL     1       4.312   3.280  17.201  0.00  0.00    +0.000 OA
ATOM      7  O   UNL     1       5.887   3.724  19.116  0.00  0.00    +0.000 OA
BRANCH   5  14
ATOM      8  C   UNL     1       7.557   6.330  18.774  0.00  0.00    +0.000 C 
ATOM      9  C   UNL     1       7.154   5.910  17.413  0.00  0.00    +0.000 A 
ATOM     10  N   UNL     1       7.808   6.397  16.351  0.00  0.00    +0.000 NA
ATOM     11  O   UNL     1       7.214   5.824  15.244  0.00  0.00    +0.000 OA
ATOM     12  C   UNL     1       6.204   4.996  15.637  0.00  0.00    +0.000 A 
ATOM     13  C   UNL     1       5.477   4.312  14.551  0.00  0.00    +0.000 C 
ATOM     14  C   UNL     1       6.128   5.027  17.009  0.00  0.00    +0.000 A 
ENDBRANCH   5  14
ENDBRANCH   1   5
BRANCH   2  15
ATOM     15  C   UNL     1       2.193   6.062  20.260  0.00  0.00    +0.000 C 
BRANCH  15  16
ATOM     16  O   UNL     1       2.287   7.207  19.420  0.00  0.00    +0.000 OA
BRANCH  16  17
ATOM     17  C   UNL     1       1.552   8.299  19.795  0.00  0.00    +0.000 A 
ATOM     18  C   UNL     1       1.227   8.347  21.150  0.00  0.00    +0.000 A 
ATOM     19  C   UNL     1       0.517   9.430  21.681  0.00  0.00    +0.000 A 
ATOM     20  C   UNL     1       0.141  10.509  20.869  0.00  0.00    +0.000 A 
ATOM     21  C   UNL     1       0.460  10.446  19.504  0.00  0.00    +0.000 A 
ATOM     22  C   UNL     1       1.161   9.352  18.969  0.00  0.00    +0.000 A 
BRANCH  20  23
ATOM     23  C   UNL     1      -0.543  11.719  21.490  0.00  0.00    +0.000 C 
ATOM     24  C   UNL     1      -1.097  11.400  22.882  0.00  0.00    +0.000 C 
ATOM     25  C   UNL     1       0.361  12.951  21.565  0.00  0.00    +0.000 C 
ENDBRANCH  20  23
ENDBRANCH  16  17
ENDBRANCH  15  16
ENDBRANCH   2  15
TORSDOF 6
ENDMDL
MODEL 9
REMARK VINA RESULT:      -7.1      5.226      7.708
REMARK  Name = 
REMARK  10 active torsions:
REMARK  status: ('A' for Active; 'I' for Inactive)
REMARK    1  A    between atoms: C_1  and  C_2
REMARK    2  A    between atoms: C_5  and  C_6
REMARK    3  A    between atoms: C_7  and  S_8
REMARK    4  A    between atoms: S_8  and  N_11
REMARK    5  A    between atoms: C_12  and  C_14
REMARK    6  A    between atoms: C_14  and  O_15
REMARK    7  A    between atoms: O_15  and  C_16
REMARK    8  A    between atoms: C_19  and  C_20
REMARK    9  A    between atoms: C_20  and  C_21
REMARK   10  A    between atoms: C_20  and  C_22
REMARK                            x       y       z     vdW  Elec       q    Type
REMARK                         _______ _______ _______ _____ _____    ______ ____
ROOT
ATOM      1  N   UNL     1       3.982   5.475  18.523  0.00  0.00    +0.000 N 
ATOM      2  C   UNL     1       3.128   5.258  19.616  0.00  0.00    +0.000 C 
ATOM      3  O   UNL     1       3.073   4.179  20.195  0.00  0.00    +0.000 OA
ATOM      4  H   UNL     1       4.028   6.394  18.091  0.00  0.00    +0.000 HD
ENDROOT
BRANCH   1   5
ATOM      5  S   UNL     1       5.070   4.355  17.964  0.00  0.00    +0.000 S 
ATOM      6  O   UNL     1       4.361   3.359  17.196  0.00  0.00    +0.000 OA
ATOM      7  O   UNL     1       5.887   3.983  19.101  0.00  0.00    +0.000 OA
BRANCH   5  14
ATOM      8  C   UNL     1       5.415   4.030  14.624  0.00  0.00    +0.000 C 
ATOM      9  C   UNL     1       6.243   4.893  15.497  0.00  0.00    +0.000 A 
ATOM     10  N   UNL     1       7.232   5.620  14.961  0.00  0.00    +0.000 NA
ATOM     11  O   UNL     1       7.806   6.312  16.010  0.00  0.00    +0.000 OA
ATOM     12  C   UNL     1       7.167   6.000  17.173  0.00  0.00    +0.000 A 
ATOM     13  C   UNL     1       7.679   6.671  18.384  0.00  0.00    +0.000 C 
ATOM     14  C   UNL     1       6.171   5.096  16.893  0.00  0.00    +0.000 A 
ENDBRANCH   5  14
ENDBRANCH   1   5
BRANCH   2  15
ATOM     15  C   UNL     1       2.226   6.423  20.011  0.00  0.00    +0.000 C 
BRANCH  15  16
ATOM     16  O   UNL     1       2.388   7.512  19.109  0.00  0.00    +0.000 OA
BRANCH  16  17
ATOM     17  C   UNL     1       1.555   8.582  19.291  0.00  0.00    +0.000 A 
ATOM     18  C   UNL     1       1.056   8.720  20.586  0.00  0.00    +0.000 A 
ATOM     19  C   UNL     1       0.228   9.796  20.925  0.00  0.00    +0.000 A 
ATOM     20  C   UNL     1      -0.095  10.780  19.981  0.00  0.00    +0.000 A 
ATOM     21  C   UNL     1       0.400  10.625  18.676  0.00  0.00    +0.000 A 
ATOM     22  C   UNL     1       1.221   9.537  18.332  0.00  0.00    +0.000 A 
BRANCH  20  23
ATOM     23  C   UNL     1      -0.915  11.991  20.401  0.00  0.00    +0.000 C 
ATOM     24  C   UNL     1      -0.601  12.412  21.841  0.00  0.00    +0.000 C 
ATOM     25  C   UNL     1      -0.746  13.190  19.465  0.00  0.00    +0.000 C 
ENDBRANCH  20  23
ENDBRANCH  16  17
ENDBRANCH  15  16
ENDBRANCH   2  15
TORSDOF 6
ENDMDL
