MODEL 1
REMARK VINA RESULT:      -7.1      0.000      0.000
REMARK  Name = 
REMARK  4 active torsions:
REMARK  status: ('A' for Active; 'I' for Inactive)
REMARK    1  A    between atoms: C_2  and  C_3
REMARK    2  A    between atoms: C_2  and  C_16
REMARK    3  A    between atoms: C_3  and  N_4
REMARK    4  A    between atoms: N_7  and  C_8
REMARK                            x       y       z     vdW  Elec       q    Type
REMARK                         _______ _______ _______ _____ _____    ______ ____
ROOT
ATOM      1  C   UNL     1       6.274   6.503  17.013  0.00  0.00    +0.000 C 
ENDROOT
BRANCH   1   2
ATOM      2  N   UNL     1       5.093   6.088  17.785  0.00  0.00    +0.000 NA
ATOM      3  C   UNL     1       4.022   5.474  16.991  0.00  0.00    +0.000 C 
ATOM      4  C   UNL     1       3.626   4.015  17.338  0.00  0.00    +0.000 C 
ATOM      5  N   UNL     1       3.496   3.733  18.793  0.00  0.00    +0.000 NA
ATOM      6  C   UNL     1       4.827   4.038  19.354  0.00  0.00    +0.000 C 
ATOM      7  C   UNL     1       5.378   5.461  19.082  0.00  0.00    +0.000 C 
BRANCH   5   8
ATOM      8  C   UNL     1       2.356   4.469  19.396  0.00  0.00    +0.000 C 
ATOM      9  C   UNL     1       1.029   3.707  19.163  0.00  0.00    +0.000 C 
ATOM     10  C   UNL     1       0.945   2.401  19.952  0.00  0.00    +0.000 C 
ATOM     11  C   UNL     1       1.144   2.605  21.449  0.00  0.00    +0.000 C 
ATOM     12  C   UNL     1       2.306   3.526  21.810  0.00  0.00    +0.000 C 
ATOM     13  C   UNL     1       2.430   4.756  20.913  0.00  0.00    +0.000 C 
ENDBRANCH   5   8
ENDBRANCH   1   2
BRANCH   1  15
ATOM     14  O   UNL     1       7.955   4.768  17.321  0.00  0.00    +0.000 OA
ATOM     15  C   UNL     1       7.171   5.345  16.568  0.00  0.00    +0.000 C 
BRANCH  15  16
ATOM     16  C   UNL     1       7.088   4.884  15.146  0.00  0.00    +0.000 A 
ATOM     17  C   UNL     1       7.888   5.544  14.204  0.00  0.00    +0.000 A 
ATOM     18  C   UNL     1       7.855   5.194  12.848  0.00  0.00    +0.000 A 
ATOM     19  C   UNL     1       7.001   4.162  12.428  0.00  0.00    +0.000 A 
ATOM     20  C   UNL     1       6.710   3.576  11.165  0.00  0.00    +0.000 A 
ATOM     21  C   UNL     1       5.765   2.598  11.366  0.00  0.00    +0.000 A 
ATOM     22  N   UNL     1       5.477   2.561  12.703  0.00  0.00    +0.000 N 
ATOM     23  C   UNL     1       6.217   3.511  13.380  0.00  0.00    +0.000 A 
ATOM     24  C   UNL     1       6.236   3.841  14.742  0.00  0.00    +0.000 A 
ATOM     25  H   UNL     1       4.819   1.926  13.139  0.00  0.00    +0.000 HD
ENDBRANCH  15  16
ENDBRANCH   1  15
TORSDOF 4
ENDMDL
MODEL 2
REMARK VINA RESULT:      -7.0      6.014     10.118
REMARK  Name = 
REMARK  4 active torsions:
REMARK  status: ('A' for Active; 'I' for Inactive)
REMARK    1  A    between atoms: C_2  and  C_3
REMARK    2  A    between atoms: C_2  and  C_16
REMARK    3  A    between atoms: C_3  and  N_4
REMARK    4  A    between atoms: N_7  and  C_8
REMARK                            x       y       z     vdW  Elec       q    Type
REMARK                         _______ _______ _______ _____ _____    ______ ____
ROOT
ATOM      1  C   UNL     1       0.737   7.835  21.300  0.00  0.00    +0.000 C 
ENDROOT
BRANCH   1   2
ATOM      2  N   UNL     1       1.889   7.389  20.501  0.00  0.00    +0.000 NA
ATOM      3  C   UNL     1       2.060   5.934  20.426  0.00  0.00    +0.000 C 
ATOM      4  C   UNL     1       1.998   5.282  19.020  0.00  0.00    +0.000 C 
ATOM      5  N   UNL     1       2.755   6.004  17.963  0.00  0.00    +0.000 NA
ATOM      6  C   UNL     1       2.148   7.349  17.919  0.00  0.00    +0.000 C 
ATOM      7  C   UNL     1       2.118   8.134  19.256  0.00  0.00    +0.000 C 
BRANCH   5   8
ATOM      8  C   UNL     1       4.219   5.964  18.211  0.00  0.00    +0.000 C 
ATOM      9  C   UNL     1       4.741   4.507  18.166  0.00  0.00    +0.000 C 
ATOM     10  C   UNL     1       4.695   3.901  16.764  0.00  0.00    +0.000 C 
ATOM     11  C   UNL     1       5.456   4.733  15.738  0.00  0.00    +0.000 C 
ATOM     12  C   UNL     1       5.190   6.234  15.823  0.00  0.00    +0.000 C 
ATOM     13  C   UNL     1       5.116   6.775  17.248  0.00  0.00    +0.000 C 
ENDBRANCH   5   8
ENDBRANCH   1   2
BRANCH   1  15
ATOM     14  O   UNL     1       1.952   9.418  22.698  0.00  0.00    +0.000 OA
ATOM     15  C   UNL     1       0.954   9.168  22.022  0.00  0.00    +0.000 C 
BRANCH  15  16
ATOM     16  C   UNL     1      -0.098  10.226  21.897  0.00  0.00    +0.000 A 
ATOM     17  C   UNL     1      -0.234  10.858  20.653  0.00  0.00    +0.000 A 
ATOM     18  C   UNL     1      -1.174  11.876  20.453  0.00  0.00    +0.000 A 
ATOM     19  C   UNL     1      -1.994  12.270  21.523  0.00  0.00    +0.000 A 
ATOM     20  C   UNL     1      -3.013  13.251  21.673  0.00  0.00    +0.000 A 
ATOM     21  C   UNL     1      -3.461  13.191  22.972  0.00  0.00    +0.000 A 
ATOM     22  N   UNL     1      -2.760  12.207  23.613  0.00  0.00    +0.000 N 
ATOM     23  C   UNL     1      -1.850  11.626  22.751  0.00  0.00    +0.000 A 
ATOM     24  C   UNL     1      -0.919  10.602  22.974  0.00  0.00    +0.000 A 
ATOM     25  H   UNL     1      -2.890  11.936  24.581  0.00  0.00    +0.000 HD
ENDBRANCH  15  16
ENDBRANCH   1  15
TORSDOF 4
ENDMDL
MODEL 3
REMARK VINA RESULT:      -6.9      5.869      8.354
REMARK  Name = 
REMARK  4 active torsions:
REMARK  status: ('A' for Active; 'I' for Inactive)
REMARK    1  A    between atoms: C_2  and  C_3
REMARK    2  A    between atoms: C_2  and  C_16
REMARK    3  A    between atoms: C_3  and  N_4
REMARK    4  A    between atoms: N_7  and  C_8
REMARK                            x       y       z     vdW  Elec       q    Type
REMARK                         _______ _______ _______ _____ _____    ______ ____
ROOT
ATOM      1  C   UNL     1       1.829   9.587  19.084  0.00  0.00    +0.000 C 
ENDROOT
BRANCH   1   2
ATOM      2  N   UNL     1       1.726   8.141  18.828  0.00  0.00    +0.000 NA
ATOM      3  C   UNL     1       2.478   7.667  17.661  0.00  0.00    +0.000 C 
ATOM      4  C   UNL     1       3.590   6.615  17.911  0.00  0.00    +0.000 C 
ATOM      5  N   UNL     1       3.211   5.514  18.835  0.00  0.00    +0.000 NA
ATOM      6  C   UNL     1       2.867   6.189  20.102  0.00  0.00    +0.000 C 
ATOM      7  C   UNL     1       1.775   7.287  20.022  0.00  0.00    +0.000 C 
BRANCH   5   8
ATOM      8  C   UNL     1       2.151   4.650  18.256  0.00  0.00    +0.000 C 
ATOM      9  C   UNL     1       2.735   3.740  17.147  0.00  0.00    +0.000 C 
ATOM     10  C   UNL     1       3.679   2.668  17.691  0.00  0.00    +0.000 C 
ATOM     11  C   UNL     1       3.028   1.796  18.758  0.00  0.00    +0.000 C 
ATOM     12  C   UNL     1       2.229   2.571  19.803  0.00  0.00    +0.000 C 
ATOM     13  C   UNL     1       1.397   3.716  19.230  0.00  0.00    +0.000 C 
ENDBRANCH   5   8
ENDBRANCH   1   2
BRANCH   1  15
ATOM     14  O   UNL     1       0.601  10.385  21.029  0.00  0.00    +0.000 OA
ATOM     15  C   UNL     1       0.623  10.181  19.816  0.00  0.00    +0.000 C 
BRANCH  15  16
ATOM     16  C   UNL     1      -0.591  10.541  19.017  0.00  0.00    +0.000 A 
ATOM     17  C   UNL     1      -1.482  11.468  19.576  0.00  0.00    +0.000 A 
ATOM     18  C   UNL     1      -2.654  11.843  18.909  0.00  0.00    +0.000 A 
ATOM     19  C   UNL     1      -2.940  11.277  17.656  0.00  0.00    +0.000 A 
ATOM     20  C   UNL     1      -4.016  11.414  16.735  0.00  0.00    +0.000 A 
ATOM     21  C   UNL     1      -3.757  10.589  15.666  0.00  0.00    +0.000 A 
ATOM     22  N   UNL     1      -2.564   9.964  15.897  0.00  0.00    +0.000 N 
ATOM     23  C   UNL     1      -2.039  10.363  17.111  0.00  0.00    +0.000 A 
ATOM     24  C   UNL     1      -0.858   9.975  17.758  0.00  0.00    +0.000 A 
ATOM     25  H   UNL     1      -2.120   9.305  15.267  0.00  0.00    +0.000 HD
ENDBRANCH  15  16
ENDBRANCH   1  15
TORSDOF 4
ENDMDL
MODEL 4
REMARK VINA RESULT:      -6.9      5.864      9.946
REMARK  Name = 
REMARK  4 active torsions:
REMARK  status: ('A' for Active; 'I' for Inactive)
REMARK    1  A    between atoms: C_2  and  C_3
REMARK    2  A    between atoms: C_2  and  C_16
REMARK    3  A    between atoms: C_3  and  N_4
REMARK    4  A    between atoms: N_7  and  C_8
REMARK                            x       y       z     vdW  Elec       q    Type
REMARK                         _______ _______ _______ _____ _____    ______ ____
ROOT
ATOM      1  C   UNL     1       0.746   7.860  21.255  0.00  0.00    +0.000 C 
ENDROOT
BRANCH   1   2
ATOM      2  N   UNL     1       1.902   7.402  20.469  0.00  0.00    +0.000 NA
ATOM      3  C   UNL     1       2.084   5.946  20.432  0.00  0.00    +0.000 C 
ATOM      4  C   UNL     1       2.028   5.258  19.043  0.00  0.00    +0.000 C 
ATOM      5  N   UNL     1       2.782   5.958  17.969  0.00  0.00    +0.000 NA
ATOM      6  C   UNL     1       2.164   7.297  17.890  0.00  0.00    +0.000 C 
ATOM      7  C   UNL     1       2.127   8.116  19.205  0.00  0.00    +0.000 C 
BRANCH   5   8
ATOM      8  C   UNL     1       4.245   5.936  18.219  0.00  0.00    +0.000 C 
ATOM      9  C   UNL     1       4.787   4.486  18.158  0.00  0.00    +0.000 C 
ATOM     10  C   UNL     1       4.753   3.896  16.750  0.00  0.00    +0.000 C 
ATOM     11  C   UNL     1       5.503   4.750  15.735  0.00  0.00    +0.000 C 
ATOM     12  C   UNL     1       5.217   6.246  15.836  0.00  0.00    +0.000 C 
ATOM     13  C   UNL     1       5.133   6.770  17.267  0.00  0.00    +0.000 C 
ENDBRANCH   5   8
ENDBRANCH   1   2
BRANCH   1  15
ATOM     14  O   UNL     1       2.013   9.377  22.679  0.00  0.00    +0.000 OA
ATOM     15  C   UNL     1       0.990   9.157  22.031  0.00  0.00    +0.000 C 
BRANCH  15  16
ATOM     16  C   UNL     1      -0.065  10.219  21.995  0.00  0.00    +0.000 A 
ATOM     17  C   UNL     1      -0.784  10.456  23.175  0.00  0.00    +0.000 A 
ATOM     18  C   UNL     1      -1.805  11.413  23.224  0.00  0.00    +0.000 A 
ATOM     19  C   UNL     1      -2.113  12.147  22.067  0.00  0.00    +0.000 A 
ATOM     20  C   UNL     1      -3.070  13.154  21.765  0.00  0.00    +0.000 A 
ATOM     21  C   UNL     1      -2.912  13.497  20.443  0.00  0.00    +0.000 A 
ATOM     22  N   UNL     1      -1.891  12.744  19.933  0.00  0.00    +0.000 N 
ATOM     23  C   UNL     1      -1.382  11.903  20.905  0.00  0.00    +0.000 A 
ATOM     24  C   UNL     1      -0.354  10.954  20.832  0.00  0.00    +0.000 A 
ATOM     25  H   UNL     1      -1.549  12.795  18.981  0.00  0.00    +0.000 HD
ENDBRANCH  15  16
ENDBRANCH   1  15
TORSDOF 4
ENDMDL
MODEL 5
REMARK VINA RESULT:      -6.9      6.217      8.839
REMARK  Name = 
REMARK  4 active torsions:
REMARK  status: ('A' for Active; 'I' for Inactive)
REMARK    1  A    between atoms: C_2  and  C_3
REMARK    2  A    between atoms: C_2  and  C_16
REMARK    3  A    between atoms: C_3  and  N_4
REMARK    4  A    between atoms: N_7  and  C_8
REMARK                            x       y       z     vdW  Elec       q    Type
REMARK                         _______ _______ _______ _____ _____    ______ ____
ROOT
ATOM      1  C   UNL     1       1.617   9.872  18.593  0.00  0.00    +0.000 C 
ENDROOT
BRANCH   1   2
ATOM      2  N   UNL     1       1.569   8.404  18.502  0.00  0.00    +0.000 NA
ATOM      3  C   UNL     1       2.460   7.820  17.492  0.00  0.00    +0.000 C 
ATOM      4  C   UNL     1       3.554   6.839  17.991  0.00  0.00    +0.000 C 
ATOM      5  N   UNL     1       3.088   5.842  18.991  0.00  0.00    +0.000 NA
ATOM      6  C   UNL     1       2.587   6.650  20.120  0.00  0.00    +0.000 C 
ATOM      7  C   UNL     1       1.493   7.696  19.786  0.00  0.00    +0.000 C 
BRANCH   5   8
ATOM      8  C   UNL     1       2.119   4.884  18.402  0.00  0.00    +0.000 C 
ATOM      9  C   UNL     1       2.817   3.967  17.369  0.00  0.00    +0.000 C 
ATOM     10  C   UNL     1       3.798   2.986  18.008  0.00  0.00    +0.000 C 
ATOM     11  C   UNL     1       3.150   2.121  19.083  0.00  0.00    +0.000 C 
ATOM     12  C   UNL     1       2.249   2.886  20.048  0.00  0.00    +0.000 C 
ATOM     13  C   UNL     1       1.376   3.946  19.382  0.00  0.00    +0.000 C 
ENDBRANCH   5   8
ENDBRANCH   1   2
BRANCH   1  15
ATOM     14  O   UNL     1       0.564  10.877  20.545  0.00  0.00    +0.000 OA
ATOM     15  C   UNL     1       0.459  10.488  19.382  0.00  0.00    +0.000 C 
BRANCH  15  16
ATOM     16  C   UNL     1      -0.868  10.634  18.705  0.00  0.00    +0.000 A 
ATOM     17  C   UNL     1      -1.079   9.901  17.529  0.00  0.00    +0.000 A 
ATOM     18  C   UNL     1      -2.281   9.996  16.818  0.00  0.00    +0.000 A 
ATOM     19  C   UNL     1      -3.293  10.845  17.294  0.00  0.00    +0.000 A 
ATOM     20  C   UNL     1      -4.593  11.186  16.828  0.00  0.00    +0.000 A 
ATOM     21  C   UNL     1      -5.127  12.094  17.711  0.00  0.00    +0.000 A 
ATOM     22  N   UNL     1      -4.207  12.312  18.699  0.00  0.00    +0.000 N 
ATOM     23  C   UNL     1      -3.069  11.561  18.469  0.00  0.00    +0.000 A 
ATOM     24  C   UNL     1      -1.876  11.480  19.200  0.00  0.00    +0.000 A 
ATOM     25  H   UNL     1      -4.338  12.929  19.491  0.00  0.00    +0.000 HD
ENDBRANCH  15  16
ENDBRANCH   1  15
TORSDOF 4
ENDMDL
MODEL 6
REMARK VINA RESULT:      -6.9      3.914      6.335
REMARK  Name = 
REMARK  4 active torsions:
REMARK  status: ('A' for Active; 'I' for Inactive)
REMARK    1  A    between atoms: C_2  and  C_3
REMARK    2  A    between atoms: C_2  and  C_16
REMARK    3  A    between atoms: C_3  and  N_4
REMARK    4  A    between atoms: N_7  and  C_8
REMARK                            x       y       z     vdW  Elec       q    Type
REMARK                         _______ _______ _______ _____ _____    ______ ____
ROOT
ATOM      1  C   UNL     1       8.110   6.554  18.570  0.00  0.00    +0.000 C 
ENDROOT
BRANCH   1   2
ATOM      2  N   UNL     1       7.086   5.510  18.726  0.00  0.00    +0.000 NA
ATOM      3  C   UNL     1       5.823   5.968  19.318  0.00  0.00    +0.000 C 
ATOM      4  C   UNL     1       4.540   5.816  18.461  0.00  0.00    +0.000 C 
ATOM      5  N   UNL     1       4.405   4.508  17.766  0.00  0.00    +0.000 NA
ATOM      6  C   UNL     1       5.598   4.420  16.900  0.00  0.00    +0.000 C 
ATOM      7  C   UNL     1       6.971   4.569  17.604  0.00  0.00    +0.000 C 
BRANCH   5   8
ATOM      8  C   UNL     1       4.220   3.391  18.725  0.00  0.00    +0.000 C 
ATOM      9  C   UNL     1       3.225   3.790  19.843  0.00  0.00    +0.000 C 
ATOM     10  C   UNL     1       1.792   3.942  19.338  0.00  0.00    +0.000 C 
ATOM     11  C   UNL     1       1.277   2.689  18.640  0.00  0.00    +0.000 C 
ATOM     12  C   UNL     1       2.265   2.065  17.658  0.00  0.00    +0.000 C 
ATOM     13  C   UNL     1       3.710   2.049  18.151  0.00  0.00    +0.000 C 
ENDBRANCH   5   8
ENDBRANCH   1   2
BRANCH   1  15
ATOM     14  O   UNL     1       6.891   7.649  16.769  0.00  0.00    +0.000 OA
ATOM     15  C   UNL     1       7.666   7.747  17.719  0.00  0.00    +0.000 C 
BRANCH  15  16
ATOM     16  C   UNL     1       8.194   9.105  18.064  0.00  0.00    +0.000 A 
ATOM     17  C   UNL     1       9.045   9.206  19.173  0.00  0.00    +0.000 A 
ATOM     18  C   UNL     1       9.564  10.440  19.581  0.00  0.00    +0.000 A 
ATOM     19  C   UNL     1       9.223  11.598  18.864  0.00  0.00    +0.000 A 
ATOM     20  C   UNL     1       9.547  12.976  19.005  0.00  0.00    +0.000 A 
ATOM     21  C   UNL     1       8.902  13.661  18.002  0.00  0.00    +0.000 A 
ATOM     22  N   UNL     1       8.207  12.752  17.252  0.00  0.00    +0.000 N 
ATOM     23  C   UNL     1       8.382  11.478  17.758  0.00  0.00    +0.000 A 
ATOM     24  C   UNL     1       7.853  10.253  17.328  0.00  0.00    +0.000 A 
ATOM     25  H   UNL     1       7.647  12.976  16.438  0.00  0.00    +0.000 HD
ENDBRANCH  15  16
ENDBRANCH   1  15
TORSDOF 4
ENDMDL
MODEL 7
REMARK VINA RESULT:      -6.9      3.799      6.030
REMARK  Name = 
REMARK  4 active torsions:
REMARK  status: ('A' for Active; 'I' for Inactive)
REMARK    1  A    between atoms: C_2  and  C_3
REMARK    2  A    between atoms: C_2  and  C_16
REMARK    3  A    between atoms: C_3  and  N_4
REMARK    4  A    between atoms: N_7  and  C_8
REMARK                            x       y       z     vdW  Elec       q    Type
REMARK                         _______ _______ _______ _____ _____    ______ ____
ROOT
ATOM      1  C   UNL     1       7.075   7.251  17.008  0.00  0.00    +0.000 C 
ENDROOT
BRANCH   1   2
ATOM      2  N   UNL     1       5.746   6.806  17.457  0.00  0.00    +0.000 NA
ATOM      3  C   UNL     1       4.926   6.171  16.418  0.00  0.00    +0.000 C 
ATOM      4  C   UNL     1       4.489   4.703  16.657  0.00  0.00    +0.000 C 
ATOM      5  N   UNL     1       4.000   4.413  18.031  0.00  0.00    +0.000 NA
ATOM      6  C   UNL     1       5.137   4.746  18.912  0.00  0.00    +0.000 C 
ATOM      7  C   UNL     1       5.707   6.182  18.785  0.00  0.00    +0.000 C 
BRANCH   5   8
ATOM      8  C   UNL     1       2.728   5.121  18.324  0.00  0.00    +0.000 C 
ATOM      9  C   UNL     1       1.524   4.347  17.734  0.00  0.00    +0.000 C 
ATOM     10  C   UNL     1       1.258   3.023  18.450  0.00  0.00    +0.000 C 
ATOM     11  C   UNL     1       1.050   3.197  19.949  0.00  0.00    +0.000 C 
ATOM     12  C   UNL     1       2.058   4.126  20.622  0.00  0.00    +0.000 C 
ATOM     13  C   UNL     1       2.392   5.376  19.811  0.00  0.00    +0.000 C 
ENDBRANCH   5   8
ENDBRANCH   1   2
BRANCH   1  15
ATOM     14  O   UNL     1       8.487   6.903  18.962  0.00  0.00    +0.000 OA
ATOM     15  C   UNL     1       8.006   7.686  18.143  0.00  0.00    +0.000 C 
BRANCH  15  16
ATOM     16  C   UNL     1       8.359   9.137  18.261  0.00  0.00    +0.000 A 
ATOM     17  C   UNL     1       9.301   9.496  19.234  0.00  0.00    +0.000 A 
ATOM     18  C   UNL     1       9.671  10.832  19.430  0.00  0.00    +0.000 A 
ATOM     19  C   UNL     1       9.083  11.829  18.634  0.00  0.00    +0.000 A 
ATOM     20  C   UNL     1       9.210  13.244  18.575  0.00  0.00    +0.000 A 
ATOM     21  C   UNL     1       8.363  13.698  17.591  0.00  0.00    +0.000 A 
ATOM     22  N   UNL     1       7.735  12.614  17.045  0.00  0.00    +0.000 N 
ATOM     23  C   UNL     1       8.153  11.453  17.666  0.00  0.00    +0.000 A 
ATOM     24  C   UNL     1       7.770  10.122  17.449  0.00  0.00    +0.000 A 
ATOM     25  H   UNL     1       7.062  12.651  16.288  0.00  0.00    +0.000 HD
ENDBRANCH  15  16
ENDBRANCH   1  15
TORSDOF 4
ENDMDL
MODEL 8
REMARK VINA RESULT:      -6.8      6.235      9.233
REMARK  Name = 
REMARK  4 active torsions:
REMARK  status: ('A' for Active; 'I' for Inactive)
REMARK    1  A    between atoms: C_2  and  C_3
REMARK    2  A    between atoms: C_2  and  C_16
REMARK    3  A    between atoms: C_3  and  N_4
REMARK    4  A    between atoms: N_7  and  C_8
REMARK                            x       y       z     vdW  Elec       q    Type
REMARK                         _______ _______ _______ _____ _____    ______ ____
ROOT
ATOM      1  C   UNL     1       0.705   9.304  20.198  0.00  0.00    +0.000 C 
ENDROOT
BRANCH   1   2
ATOM      2  N   UNL     1       1.871   8.555  19.703  0.00  0.00    +0.000 NA
ATOM      3  C   UNL     1       2.075   7.246  20.334  0.00  0.00    +0.000 C 
ATOM      4  C   UNL     1       2.034   5.998  19.414  0.00  0.00    +0.000 C 
ATOM      5  N   UNL     1       2.780   6.141  18.135  0.00  0.00    +0.000 NA
ATOM      6  C   UNL     1       2.142   7.286  17.455  0.00  0.00    +0.000 C 
ATOM      7  C   UNL     1       2.088   8.615  18.252  0.00  0.00    +0.000 C 
BRANCH   5   8
ATOM      8  C   UNL     1       4.242   6.257  18.361  0.00  0.00    +0.000 C 
ATOM      9  C   UNL     1       4.848   4.882  18.734  0.00  0.00    +0.000 C 
ATOM     10  C   UNL     1       4.841   3.892  17.571  0.00  0.00    +0.000 C 
ATOM     11  C   UNL     1       5.554   4.430  16.336  0.00  0.00    +0.000 C 
ATOM     12  C   UNL     1       5.201   5.873  15.984  0.00  0.00    +0.000 C 
ATOM     13  C   UNL     1       5.093   6.802  17.190  0.00  0.00    +0.000 C 
ENDBRANCH   5   8
ENDBRANCH   1   2
BRANCH   1  15
ATOM     14  O   UNL     1       1.192  11.524  19.324  0.00  0.00    +0.000 OA
ATOM     15  C   UNL     1       0.404  10.584  19.414  0.00  0.00    +0.000 C 
BRANCH  15  16
ATOM     16  C   UNL     1      -0.914  10.697  18.712  0.00  0.00    +0.000 A 
ATOM     17  C   UNL     1      -1.089   9.947  17.541  0.00  0.00    +0.000 A 
ATOM     18  C   UNL     1      -2.280  10.012  16.808  0.00  0.00    +0.000 A 
ATOM     19  C   UNL     1      -3.317  10.846  17.257  0.00  0.00    +0.000 A 
ATOM     20  C   UNL     1      -4.614  11.158  16.765  0.00  0.00    +0.000 A 
ATOM     21  C   UNL     1      -5.182  12.065  17.629  0.00  0.00    +0.000 A 
ATOM     22  N   UNL     1      -4.283  12.310  18.630  0.00  0.00    +0.000 N 
ATOM     23  C   UNL     1      -3.128  11.579  18.428  0.00  0.00    +0.000 A 
ATOM     24  C   UNL     1      -1.946  11.528  19.180  0.00  0.00    +0.000 A 
ATOM     25  H   UNL     1      -4.440  12.933  19.413  0.00  0.00    +0.000 HD
ENDBRANCH  15  16
ENDBRANCH   1  15
TORSDOF 4
ENDMDL
MODEL 9
REMARK VINA RESULT:      -6.8      5.897      8.877
REMARK  Name = 
REMARK  4 active torsions:
REMARK  status: ('A' for Active; 'I' for Inactive)
REMARK    1  A    between atoms: C_2  and  C_3
REMARK    2  A    between atoms: C_2  and  C_16
REMARK    3  A    between atoms: C_3  and  N_4
REMARK    4  A    between atoms: N_7  and  C_8
REMARK                            x       y       z     vdW  Elec       q    Type
REMARK                         _______ _______ _______ _____ _____    ______ ____
ROOT
ATOM      1  C   UNL     1       0.707   8.832  20.571  0.00  0.00    +0.000 C 
ENDROOT
BRANCH   1   2
ATOM      2  N   UNL     1       1.882   8.178  19.975  0.00  0.00    +0.000 NA
ATOM      3  C   UNL     1       2.080   6.780  20.377  0.00  0.00    +0.000 C 
ATOM      4  C   UNL     1       2.056   5.708  19.257  0.00  0.00    +0.000 C 
ATOM      5  N   UNL     1       2.822   6.066  18.034  0.00  0.00    +0.000 NA
ATOM      6  C   UNL     1       2.192   7.311  17.549  0.00  0.00    +0.000 C 
ATOM      7  C   UNL     1       2.122   8.484  18.559  0.00  0.00    +0.000 C 
BRANCH   5   8
ATOM      8  C   UNL     1       4.280   6.142  18.300  0.00  0.00    +0.000 C 
ATOM      9  C   UNL     1       4.868   4.728  18.529  0.00  0.00    +0.000 C 
ATOM     10  C   UNL     1       4.877   3.873  17.263  0.00  0.00    +0.000 C 
ATOM     11  C   UNL     1       5.618   4.538  16.109  0.00  0.00    +0.000 C 
ATOM     12  C   UNL     1       5.284   6.015  15.913  0.00  0.00    +0.000 C 
ATOM     13  C   UNL     1       5.159   6.805  17.213  0.00  0.00    +0.000 C 
ENDBRANCH   5   8
ENDBRANCH   1   2
BRANCH   1  15
ATOM     14  O   UNL     1       1.301  11.191  20.464  0.00  0.00    +0.000 OA
ATOM     15  C   UNL     1       0.522  10.292  20.150  0.00  0.00    +0.000 C 
BRANCH  15  16
ATOM     16  C   UNL     1      -0.664  10.647  19.307  0.00  0.00    +0.000 A 
ATOM     17  C   UNL     1      -1.560  11.596  19.818  0.00  0.00    +0.000 A 
ATOM     18  C   UNL     1      -2.708  11.968  19.109  0.00  0.00    +0.000 A 
ATOM     19  C   UNL     1      -2.964  11.376  17.862  0.00  0.00    +0.000 A 
ATOM     20  C   UNL     1      -4.011  11.503  16.907  0.00  0.00    +0.000 A 
ATOM     21  C   UNL     1      -3.731  10.651  15.865  0.00  0.00    +0.000 A 
ATOM     22  N   UNL     1      -2.553  10.018  16.145  0.00  0.00    +0.000 N 
ATOM     23  C   UNL     1      -2.059  10.440  17.365  0.00  0.00    +0.000 A 
ATOM     24  C   UNL     1      -0.901  10.054  18.055  0.00  0.00    +0.000 A 
ATOM     25  H   UNL     1      -2.099   9.340  15.545  0.00  0.00    +0.000 HD
ENDBRANCH  15  16
ENDBRANCH   1  15
TORSDOF 4
ENDMDL
