MODEL 1
REMARK VINA RESULT:      -7.9      0.000      0.000
REMARK  Name = 
REMARK  14 active torsions:
REMARK  status: ('A' for Active; 'I' for Inactive)
REMARK    1  A    between atoms: C_1  and  C_2
REMARK    2  A    between atoms: C_2  and  C_27
REMARK    3  A    between atoms: C_3  and  C_4
REMARK    4  A    between atoms: C_4  and  P_5
REMARK    5  A    between atoms: P_5  and  N_7
REMARK    6  A    between atoms: P_5  and  O_20
REMARK    7  A    between atoms: N_7  and  C_8
REMARK    8  A    between atoms: C_8  and  C_9
REMARK    9  A    between atoms: C_8  and  C_10
REMARK   10  A    between atoms: C_10  and  O_12
REMARK   11  A    between atoms: O_12  and  C_13
REMARK   12  A    between atoms: C_13  and  C_14
REMARK   13  A    between atoms: O_20  and  C_21
REMARK   14  A    between atoms: C_27  and  N_28
REMARK                            x       y       z     vdW  Elec       q    Type
REMARK                         _______ _______ _______ _____ _____    ______ ____
ROOT
ATOM      1  P   UNL     1       7.385   6.955  17.001  0.00  0.00    +0.000 P 
ATOM      2  O   UNL     1       8.118   6.728  18.333  0.00  0.00    +0.000 OA
ENDROOT
BRANCH   1   3
ATOM      3  N   UNL     1       5.654   6.745  17.150  0.00  0.00    +0.000 NA
ATOM      4  H   UNL     1       5.372   6.058  16.460  0.00  0.00    +0.000 HD
BRANCH   3   5
ATOM      5  C   UNL     1       4.889   6.378  18.368  0.00  0.00    +0.000 C 
ATOM      6  C   UNL     1       3.390   6.286  18.119  0.00  0.00    +0.000 C 
BRANCH   5   7
ATOM      7  C   UNL     1       5.409   5.056  18.976  0.00  0.00    +0.000 C 
ATOM      8  O   UNL     1       6.210   4.975  19.899  0.00  0.00    +0.000 OA
BRANCH   7   9
ATOM      9  O   UNL     1       4.937   3.991  18.261  0.00  0.00    +0.000 OA
BRANCH   9  10
ATOM     10  C   UNL     1       4.598   2.820  19.022  0.00  0.00    +0.000 C 
BRANCH  10  11
ATOM     11  C   UNL     1       3.143   2.895  19.396  0.00  0.00    +0.000 A 
ATOM     12  C   UNL     1       2.749   3.164  20.714  0.00  0.00    +0.000 A 
ATOM     13  C   UNL     1       1.397   3.172  21.059  0.00  0.00    +0.000 A 
ATOM     14  C   UNL     1       0.429   2.911  20.092  0.00  0.00    +0.000 A 
ATOM     15  C   UNL     1       0.809   2.655  18.776  0.00  0.00    +0.000 A 
ATOM     16  C   UNL     1       2.159   2.647  18.428  0.00  0.00    +0.000 A 
ENDBRANCH  10  11
ENDBRANCH   9  10
ENDBRANCH   7   9
ENDBRANCH   5   7
ENDBRANCH   3   5
ENDBRANCH   1   3
BRANCH   1  17
ATOM     17  C   UNL     1       7.189   8.694  17.535  0.00  0.00    +0.000 C 
BRANCH  17  20
ATOM     18  C   UNL     1       8.159  11.655  17.672  0.00  0.00    +0.000 C 
ATOM     19  C   UNL     1       8.851  10.495  18.342  0.00  0.00    +0.000 C 
ATOM     20  C   UNL     1       8.424   9.215  18.269  0.00  0.00    +0.000 C 
BRANCH  19  21
ATOM     21  C   UNL     1      10.144  10.854  19.056  0.00  0.00    +0.000 C 
BRANCH  21  22
ATOM     22  N   UNL     1      10.702  12.121  18.581  0.00  0.00    +0.000 N 
ATOM     23  C   UNL     1      11.353  12.161  17.364  0.00  0.00    +0.000 A 
ATOM     24  C   UNL     1      11.788  13.303  16.826  0.00  0.00    +0.000 A 
ATOM     25  C   UNL     1      11.573  14.559  17.559  0.00  0.00    +0.000 A 
ATOM     26  O   UNL     1      11.939  15.633  17.096  0.00  0.00    +0.000 OA
ATOM     27  N   UNL     1      10.944  14.441  18.762  0.00  0.00    +0.000 N 
ATOM     28  C   UNL     1      10.466  13.281  19.318  0.00  0.00    +0.000 A 
ATOM     29  O   UNL     1       9.863  13.314  20.388  0.00  0.00    +0.000 OA
ATOM     30  H   UNL     1      10.774  15.290  19.276  0.00  0.00    +0.000 HD
ENDBRANCH  21  22
ENDBRANCH  19  21
ENDBRANCH  17  20
ENDBRANCH   1  17
BRANCH   1  31
ATOM     31  O   UNL     1       7.570   5.310  16.497  0.00  0.00    +0.000 OA
BRANCH  31  32
ATOM     32  C   UNL     1       7.141   4.875  15.236  0.00  0.00    +0.000 A 
ATOM     33  C   UNL     1       6.102   3.963  15.004  0.00  0.00    +0.000 A 
ATOM     34  C   UNL     1       5.721   3.563  13.722  0.00  0.00    +0.000 A 
ATOM     35  C   UNL     1       6.416   4.048  12.627  0.00  0.00    +0.000 A 
ATOM     36  C   UNL     1       7.478   4.930  12.831  0.00  0.00    +0.000 A 
ATOM     37  C   UNL     1       7.833   5.355  14.125  0.00  0.00    +0.000 A 
ENDBRANCH  31  32
ENDBRANCH   1  31
TORSDOF 12
ENDMDL
MODEL 2
REMARK VINA RESULT:      -7.9      7.285     10.502
REMARK  Name = 
REMARK  14 active torsions:
REMARK  status: ('A' for Active; 'I' for Inactive)
REMARK    1  A    between atoms: C_1  and  C_2
REMARK    2  A    between atoms: C_2  and  C_27
REMARK    3  A    between atoms: C_3  and  C_4
REMARK    4  A    between atoms: C_4  and  P_5
REMARK    5  A    between atoms: P_5  and  N_7
REMARK    6  A    between atoms: P_5  and  O_20
REMARK    7  A    between atoms: N_7  and  C_8
REMARK    8  A    between atoms: C_8  and  C_9
REMARK    9  A    between atoms: C_8  and  C_10
REMARK   10  A    between atoms: C_10  and  O_12
REMARK   11  A    between atoms: O_12  and  C_13
REMARK   12  A    between atoms: C_13  and  C_14
REMARK   13  A    between atoms: O_20  and  C_21
REMARK   14  A    between atoms: C_27  and  N_28
REMARK                            x       y       z     vdW  Elec       q    Type
REMARK                         _______ _______ _______ _____ _____    ______ ____
ROOT
ATOM      1  P   UNL     1       0.293   9.971  18.684  0.00  0.00    +0.000 P 
ATOM      2  O   UNL     1       0.554   9.785  20.188  0.00  0.00    +0.000 OA
ENDROOT
BRANCH   1   3
ATOM      3  N   UNL     1       0.623  11.603  18.148  0.00  0.00    +0.000 NA
ATOM      4  H   UNL     1      -0.243  11.982  17.780  0.00  0.00    +0.000 HD
BRANCH   3   5
ATOM      5  C   UNL     1       1.204  12.716  18.941  0.00  0.00    +0.000 C 
ATOM      6  C   UNL     1       2.349  13.418  18.224  0.00  0.00    +0.000 C 
BRANCH   5   7
ATOM      7  C   UNL     1       0.119  13.741  19.341  0.00  0.00    +0.000 C 
ATOM      8  O   UNL     1      -0.090  14.802  18.767  0.00  0.00    +0.000 OA
BRANCH   7   9
ATOM      9  O   UNL     1      -0.497  13.346  20.497  0.00  0.00    +0.000 OA
BRANCH   9  10
ATOM     10  C   UNL     1      -1.932  13.279  20.455  0.00  0.00    +0.000 C 
BRANCH  10  11
ATOM     11  C   UNL     1      -2.457  13.367  21.862  0.00  0.00    +0.000 A 
ATOM     12  C   UNL     1      -3.632  12.701  22.236  0.00  0.00    +0.000 A 
ATOM     13  C   UNL     1      -4.140  12.839  23.528  0.00  0.00    +0.000 A 
ATOM     14  C   UNL     1      -3.481  13.644  24.455  0.00  0.00    +0.000 A 
ATOM     15  C   UNL     1      -2.306  14.300  24.097  0.00  0.00    +0.000 A 
ATOM     16  C   UNL     1      -1.795  14.163  22.807  0.00  0.00    +0.000 A 
ENDBRANCH  10  11
ENDBRANCH   9  10
ENDBRANCH   7   9
ENDBRANCH   5   7
ENDBRANCH   3   5
ENDBRANCH   1   3
BRANCH   1  17
ATOM     17  C   UNL     1       2.062   9.567  18.442  0.00  0.00    +0.000 C 
BRANCH  17  20
ATOM     18  C   UNL     1       2.424   6.897  20.012  0.00  0.00    +0.000 C 
ATOM     19  C   UNL     1       2.412   7.012  18.509  0.00  0.00    +0.000 C 
ATOM     20  C   UNL     1       2.260   8.177  17.841  0.00  0.00    +0.000 C 
BRANCH  19  21
ATOM     21  C   UNL     1       2.672   5.709  17.771  0.00  0.00    +0.000 C 
BRANCH  21  22
ATOM     22  N   UNL     1       4.081   5.317  17.823  0.00  0.00    +0.000 N 
ATOM     23  C   UNL     1       5.029   6.116  17.214  0.00  0.00    +0.000 A 
ATOM     24  C   UNL     1       6.338   5.872  17.318  0.00  0.00    +0.000 A 
ATOM     25  C   UNL     1       6.783   4.711  18.100  0.00  0.00    +0.000 A 
ATOM     26  O   UNL     1       7.974   4.459  18.238  0.00  0.00    +0.000 OA
ATOM     27  N   UNL     1       5.792   3.957  18.654  0.00  0.00    +0.000 N 
ATOM     28  C   UNL     1       4.445   4.205  18.581  0.00  0.00    +0.000 A 
ATOM     29  O   UNL     1       3.652   3.479  19.175  0.00  0.00    +0.000 OA
ATOM     30  H   UNL     1       6.074   3.162  19.206  0.00  0.00    +0.000 HD
ENDBRANCH  21  22
ENDBRANCH  19  21
ENDBRANCH  17  20
ENDBRANCH   1  17
BRANCH   1  31
ATOM     31  O   UNL     1      -1.378  10.351  18.912  0.00  0.00    +0.000 OA
BRANCH  31  32
ATOM     32  C   UNL     1      -2.253  10.503  17.828  0.00  0.00    +0.000 A 
ATOM     33  C   UNL     1      -3.401  11.306  17.818  0.00  0.00    +0.000 A 
ATOM     34  C   UNL     1      -4.238  11.413  16.705  0.00  0.00    +0.000 A 
ATOM     35  C   UNL     1      -3.956  10.669  15.572  0.00  0.00    +0.000 A 
ATOM     36  C   UNL     1      -2.839   9.835  15.567  0.00  0.00    +0.000 A 
ATOM     37  C   UNL     1      -1.981   9.759  16.680  0.00  0.00    +0.000 A 
ENDBRANCH  31  32
ENDBRANCH   1  31
TORSDOF 12
ENDMDL
MODEL 3
REMARK VINA RESULT:      -7.9      5.008      9.486
REMARK  Name = 
REMARK  14 active torsions:
REMARK  status: ('A' for Active; 'I' for Inactive)
REMARK    1  A    between atoms: C_1  and  C_2
REMARK    2  A    between atoms: C_2  and  C_27
REMARK    3  A    between atoms: C_3  and  C_4
REMARK    4  A    between atoms: C_4  and  P_5
REMARK    5  A    between atoms: P_5  and  N_7
REMARK    6  A    between atoms: P_5  and  O_20
REMARK    7  A    between atoms: N_7  and  C_8
REMARK    8  A    between atoms: C_8  and  C_9
REMARK    9  A    between atoms: C_8  and  C_10
REMARK   10  A    between atoms: C_10  and  O_12
REMARK   11  A    between atoms: O_12  and  C_13
REMARK   12  A    between atoms: C_13  and  C_14
REMARK   13  A    between atoms: O_20  and  C_21
REMARK   14  A    between atoms: C_27  and  N_28
REMARK                            x       y       z     vdW  Elec       q    Type
REMARK                         _______ _______ _______ _____ _____    ______ ____
ROOT
ATOM      1  P   UNL     1       3.195   7.107  18.581  0.00  0.00    +0.000 P 
ATOM      2  O   UNL     1       2.128   6.209  17.934  0.00  0.00    +0.000 OA
ENDROOT
BRANCH   1   3
ATOM      3  N   UNL     1       4.618   7.277  17.577  0.00  0.00    +0.000 NA
ATOM      4  H   UNL     1       5.158   8.051  17.946  0.00  0.00    +0.000 HD
BRANCH   3   5
ATOM      5  C   UNL     1       5.631   6.239  17.261  0.00  0.00    +0.000 C 
ATOM      6  C   UNL     1       5.126   5.204  16.265  0.00  0.00    +0.000 C 
BRANCH   5   7
ATOM      7  C   UNL     1       6.941   6.878  16.746  0.00  0.00    +0.000 C 
ATOM      8  O   UNL     1       7.728   6.342  15.977  0.00  0.00    +0.000 OA
BRANCH   7   9
ATOM      9  O   UNL     1       7.152   8.079  17.364  0.00  0.00    +0.000 OA
BRANCH   9  10
ATOM     10  C   UNL     1       8.240   8.123  18.302  0.00  0.00    +0.000 C 
BRANCH  10  11
ATOM     11  C   UNL     1       8.658   9.556  18.487  0.00  0.00    +0.000 A 
ATOM     12  C   UNL     1       9.408   9.951  19.603  0.00  0.00    +0.000 A 
ATOM     13  C   UNL     1       9.738  11.293  19.792  0.00  0.00    +0.000 A 
ATOM     14  C   UNL     1       9.321  12.251  18.870  0.00  0.00    +0.000 A 
ATOM     15  C   UNL     1       8.586  11.867  17.750  0.00  0.00    +0.000 A 
ATOM     16  C   UNL     1       8.255  10.526  17.558  0.00  0.00    +0.000 A 
ENDBRANCH  10  11
ENDBRANCH   9  10
ENDBRANCH   7   9
ENDBRANCH   5   7
ENDBRANCH   3   5
ENDBRANCH   1   3
BRANCH   1  17
ATOM     17  C   UNL     1       2.422   8.492  17.666  0.00  0.00    +0.000 C 
BRANCH  17  20
ATOM     18  C   UNL     1       2.008  11.525  18.256  0.00  0.00    +0.000 C 
ATOM     19  C   UNL     1       1.069  10.432  18.697  0.00  0.00    +0.000 C 
ATOM     20  C   UNL     1       1.264   9.118  18.439  0.00  0.00    +0.000 C 
BRANCH  19  21
ATOM     21  C   UNL     1      -0.101  10.902  19.544  0.00  0.00    +0.000 C 
BRANCH  21  22
ATOM     22  N   UNL     1      -1.313  11.102  18.748  0.00  0.00    +0.000 N 
ATOM     23  C   UNL     1      -1.499  10.355  17.601  0.00  0.00    +0.000 A 
ATOM     24  C   UNL     1      -2.629  10.411  16.891  0.00  0.00    +0.000 A 
ATOM     25  C   UNL     1      -3.706  11.304  17.341  0.00  0.00    +0.000 A 
ATOM     26  O   UNL     1      -4.767  11.376  16.732  0.00  0.00    +0.000 OA
ATOM     27  N   UNL     1      -3.443  12.026  18.467  0.00  0.00    +0.000 N 
ATOM     28  C   UNL     1      -2.301  11.962  19.224  0.00  0.00    +0.000 A 
ATOM     29  O   UNL     1      -2.207  12.625  20.255  0.00  0.00    +0.000 OA
ATOM     30  H   UNL     1      -4.171  12.636  18.802  0.00  0.00    +0.000 HD
ENDBRANCH  21  22
ENDBRANCH  19  21
ENDBRANCH  17  20
ENDBRANCH   1  17
BRANCH   1  31
ATOM     31  O   UNL     1       3.924   5.799  19.445  0.00  0.00    +0.000 OA
BRANCH  31  32
ATOM     32  C   UNL     1       3.182   4.684  19.856  0.00  0.00    +0.000 A 
ATOM     33  C   UNL     1       2.231   4.677  20.884  0.00  0.00    +0.000 A 
ATOM     34  C   UNL     1       1.524   3.529  21.251  0.00  0.00    +0.000 A 
ATOM     35  C   UNL     1       1.794   2.334  20.609  0.00  0.00    +0.000 A 
ATOM     36  C   UNL     1       2.761   2.305  19.604  0.00  0.00    +0.000 A 
ATOM     37  C   UNL     1       3.444   3.472  19.216  0.00  0.00    +0.000 A 
ENDBRANCH  31  32
ENDBRANCH   1  31
TORSDOF 12
ENDMDL
MODEL 4
REMARK VINA RESULT:      -7.9      4.576      9.124
REMARK  Name = 
REMARK  14 active torsions:
REMARK  status: ('A' for Active; 'I' for Inactive)
REMARK    1  A    between atoms: C_1  and  C_2
REMARK    2  A    between atoms: C_2  and  C_27
REMARK    3  A    between atoms: C_3  and  C_4
REMARK    4  A    between atoms: C_4  and  P_5
REMARK    5  A    between atoms: P_5  and  N_7
REMARK    6  A    between atoms: P_5  and  O_20
REMARK    7  A    between atoms: N_7  and  C_8
REMARK    8  A    between atoms: C_8  and  C_9
REMARK    9  A    between atoms: C_8  and  C_10
REMARK   10  A    between atoms: C_10  and  O_12
REMARK   11  A    between atoms: O_12  and  C_13
REMARK   12  A    between atoms: C_13  and  C_14
REMARK   13  A    between atoms: O_20  and  C_21
REMARK   14  A    between atoms: C_27  and  N_28
REMARK                            x       y       z     vdW  Elec       q    Type
REMARK                         _______ _______ _______ _____ _____    ______ ____
ROOT
ATOM      1  P   UNL     1       3.503   6.868  18.642  0.00  0.00    +0.000 P 
ATOM      2  O   UNL     1       2.163   6.223  18.251  0.00  0.00    +0.000 OA
ENDROOT
BRANCH   1   3
ATOM      3  N   UNL     1       4.779   6.489  17.506  0.00  0.00    +0.000 NA
ATOM      4  H   UNL     1       4.885   7.289  16.892  0.00  0.00    +0.000 HD
BRANCH   3   5
ATOM      5  C   UNL     1       6.171   6.074  17.814  0.00  0.00    +0.000 C 
ATOM      6  C   UNL     1       6.384   4.572  17.681  0.00  0.00    +0.000 C 
BRANCH   5   7
ATOM      7  C   UNL     1       7.187   6.836  16.934  0.00  0.00    +0.000 C 
ATOM      8  O   UNL     1       7.814   6.347  16.003  0.00  0.00    +0.000 OA
BRANCH   7   9
ATOM      9  O   UNL     1       7.371   8.102  17.417  0.00  0.00    +0.000 OA
BRANCH   9  10
ATOM     10  C   UNL     1       8.348   8.241  18.463  0.00  0.00    +0.000 C 
BRANCH  10  11
ATOM     11  C   UNL     1       8.727   9.692  18.575  0.00  0.00    +0.000 A 
ATOM     12  C   UNL     1       9.497  10.156  19.650  0.00  0.00    +0.000 A 
ATOM     13  C   UNL     1       9.791  11.514  19.773  0.00  0.00    +0.000 A 
ATOM     14  C   UNL     1       9.319  12.420  18.826  0.00  0.00    +0.000 A 
ATOM     15  C   UNL     1       8.563  11.967  17.746  0.00  0.00    +0.000 A 
ATOM     16  C   UNL     1       8.268  10.610  17.620  0.00  0.00    +0.000 A 
ENDBRANCH  10  11
ENDBRANCH   9  10
ENDBRANCH   7   9
ENDBRANCH   5   7
ENDBRANCH   3   5
ENDBRANCH   1   3
BRANCH   1  17
ATOM     17  C   UNL     1       3.011   8.270  17.574  0.00  0.00    +0.000 C 
BRANCH  17  20
ATOM     18  C   UNL     1       1.931  11.116  18.254  0.00  0.00    +0.000 C 
ATOM     19  C   UNL     1       1.067   9.895  18.066  0.00  0.00    +0.000 C 
ATOM     20  C   UNL     1       1.549   8.665  17.777  0.00  0.00    +0.000 C 
BRANCH  19  21
ATOM     21  C   UNL     1      -0.416  10.122  18.309  0.00  0.00    +0.000 C 
BRANCH  21  22
ATOM     22  N   UNL     1      -0.690  10.539  19.684  0.00  0.00    +0.000 N 
ATOM     23  C   UNL     1      -0.270   9.742  20.731  0.00  0.00    +0.000 A 
ATOM     24  C   UNL     1      -0.393  10.118  22.006  0.00  0.00    +0.000 A 
ATOM     25  C   UNL     1      -1.005  11.420  22.306  0.00  0.00    +0.000 A 
ATOM     26  O   UNL     1      -1.122  11.815  23.460  0.00  0.00    +0.000 OA
ATOM     27  N   UNL     1      -1.416  12.142  21.225  0.00  0.00    +0.000 N 
ATOM     28  C   UNL     1      -1.273  11.786  19.908  0.00  0.00    +0.000 A 
ATOM     29  O   UNL     1      -1.635  12.553  19.019  0.00  0.00    +0.000 OA
ATOM     30  H   UNL     1      -1.826  13.045  21.405  0.00  0.00    +0.000 HD
ENDBRANCH  21  22
ENDBRANCH  19  21
ENDBRANCH  17  20
ENDBRANCH   1  17
BRANCH   1  31
ATOM     31  O   UNL     1       3.967   5.542  19.651  0.00  0.00    +0.000 OA
BRANCH  31  32
ATOM     32  C   UNL     1       3.083   4.495  19.943  0.00  0.00    +0.000 A 
ATOM     33  C   UNL     1       2.170   4.477  21.005  0.00  0.00    +0.000 A 
ATOM     34  C   UNL     1       1.315   3.399  21.247  0.00  0.00    +0.000 A 
ATOM     35  C   UNL     1       1.392   2.279  20.438  0.00  0.00    +0.000 A 
ATOM     36  C   UNL     1       2.317   2.256  19.395  0.00  0.00    +0.000 A 
ATOM     37  C   UNL     1       3.150   3.359  19.135  0.00  0.00    +0.000 A 
ENDBRANCH  31  32
ENDBRANCH   1  31
TORSDOF 12
ENDMDL
MODEL 5
REMARK VINA RESULT:      -7.8      4.476      8.490
REMARK  Name = 
REMARK  14 active torsions:
REMARK  status: ('A' for Active; 'I' for Inactive)
REMARK    1  A    between atoms: C_1  and  C_2
REMARK    2  A    between atoms: C_2  and  C_27
REMARK    3  A    between atoms: C_3  and  C_4
REMARK    4  A    between atoms: C_4  and  P_5
REMARK    5  A    between atoms: P_5  and  N_7
REMARK    6  A    between atoms: P_5  and  O_20
REMARK    7  A    between atoms: N_7  and  C_8
REMARK    8  A    between atoms: C_8  and  C_9
REMARK    9  A    between atoms: C_8  and  C_10
REMARK   10  A    between atoms: C_10  and  O_12
REMARK   11  A    between atoms: O_12  and  C_13
REMARK   12  A    between atoms: C_13  and  C_14
REMARK   13  A    between atoms: O_20  and  C_21
REMARK   14  A    between atoms: C_27  and  N_28
REMARK                            x       y       z     vdW  Elec       q    Type
REMARK                         _______ _______ _______ _____ _____    ______ ____
ROOT
ATOM      1  P   UNL     1       3.744   6.133  18.284  0.00  0.00    +0.000 P 
ATOM      2  O   UNL     1       3.313   5.721  16.867  0.00  0.00    +0.000 OA
ENDROOT
BRANCH   1   3
ATOM      3  N   UNL     1       5.458   6.470  18.386  0.00  0.00    +0.000 NA
ATOM      4  H   UNL     1       5.808   6.009  19.218  0.00  0.00    +0.000 HD
BRANCH   3   5
ATOM      5  C   UNL     1       6.494   6.209  17.356  0.00  0.00    +0.000 C 
ATOM      6  C   UNL     1       7.510   7.337  17.239  0.00  0.00    +0.000 C 
BRANCH   5   7
ATOM      7  C   UNL     1       7.217   4.868  17.620  0.00  0.00    +0.000 C 
ATOM      8  O   UNL     1       7.961   4.647  18.567  0.00  0.00    +0.000 OA
BRANCH   7   9
ATOM      9  O   UNL     1       6.997   4.004  16.584  0.00  0.00    +0.000 OA
BRANCH   9  10
ATOM     10  C   UNL     1       5.928   4.353  15.688  0.00  0.00    +0.000 C 
BRANCH  10  11
ATOM     11  C   UNL     1       6.458   4.339  14.281  0.00  0.00    +0.000 A 
ATOM     12  C   UNL     1       7.434   5.256  13.868  0.00  0.00    +0.000 A 
ATOM     13  C   UNL     1       7.874   5.271  12.544  0.00  0.00    +0.000 A 
ATOM     14  C   UNL     1       7.341   4.373  11.622  0.00  0.00    +0.000 A 
ATOM     15  C   UNL     1       6.379   3.448  12.025  0.00  0.00    +0.000 A 
ATOM     16  C   UNL     1       5.939   3.430  13.347  0.00  0.00    +0.000 A 
ENDBRANCH  10  11
ENDBRANCH   9  10
ENDBRANCH   7   9
ENDBRANCH   5   7
ENDBRANCH   3   5
ENDBRANCH   1   3
BRANCH   1  17
ATOM     17  C   UNL     1       3.468   7.860  17.744  0.00  0.00    +0.000 C 
BRANCH  17  20
ATOM     18  C   UNL     1       2.380  10.774  17.963  0.00  0.00    +0.000 C 
ATOM     19  C   UNL     1       1.519   9.536  17.962  0.00  0.00    +0.000 C 
ATOM     20  C   UNL     1       2.004   8.278  17.872  0.00  0.00    +0.000 C 
BRANCH  19  21
ATOM     21  C   UNL     1       0.034   9.795  18.156  0.00  0.00    +0.000 C 
BRANCH  21  22
ATOM     22  N   UNL     1      -0.276  10.227  19.519  0.00  0.00    +0.000 N 
ATOM     23  C   UNL     1       0.245   9.523  20.587  0.00  0.00    +0.000 A 
ATOM     24  C   UNL     1       0.089   9.928  21.850  0.00  0.00    +0.000 A 
ATOM     25  C   UNL     1      -0.669  11.159  22.113  0.00  0.00    +0.000 A 
ATOM     26  O   UNL     1      -0.822  11.579  23.253  0.00  0.00    +0.000 OA
ATOM     27  N   UNL     1      -1.172  11.789  21.013  0.00  0.00    +0.000 N 
ATOM     28  C   UNL     1      -1.000  11.404  19.707  0.00  0.00    +0.000 A 
ATOM     29  O   UNL     1      -1.457  12.091  18.797  0.00  0.00    +0.000 OA
ATOM     30  H   UNL     1      -1.684  12.642  21.167  0.00  0.00    +0.000 HD
ENDBRANCH  21  22
ENDBRANCH  19  21
ENDBRANCH  17  20
ENDBRANCH   1  17
BRANCH   1  31
ATOM     31  O   UNL     1       4.004   4.502  18.795  0.00  0.00    +0.000 OA
BRANCH  31  32
ATOM     32  C   UNL     1       3.097   3.839  19.633  0.00  0.00    +0.000 A 
ATOM     33  C   UNL     1       2.911   4.103  20.996  0.00  0.00    +0.000 A 
ATOM     34  C   UNL     1       1.991   3.405  21.781  0.00  0.00    +0.000 A 
ATOM     35  C   UNL     1       1.257   2.379  21.212  0.00  0.00    +0.000 A 
ATOM     36  C   UNL     1       1.448   2.072  19.866  0.00  0.00    +0.000 A 
ATOM     37  C   UNL     1       2.351   2.803  19.072  0.00  0.00    +0.000 A 
ENDBRANCH  31  32
ENDBRANCH   1  31
TORSDOF 12
ENDMDL
MODEL 6
REMARK VINA RESULT:      -7.8      6.786     11.127
REMARK  Name = 
REMARK  14 active torsions:
REMARK  status: ('A' for Active; 'I' for Inactive)
REMARK    1  A    between atoms: C_1  and  C_2
REMARK    2  A    between atoms: C_2  and  C_27
REMARK    3  A    between atoms: C_3  and  C_4
REMARK    4  A    between atoms: C_4  and  P_5
REMARK    5  A    between atoms: P_5  and  N_7
REMARK    6  A    between atoms: P_5  and  O_20
REMARK    7  A    between atoms: N_7  and  C_8
REMARK    8  A    between atoms: C_8  and  C_9
REMARK    9  A    between atoms: C_8  and  C_10
REMARK   10  A    between atoms: C_10  and  O_12
REMARK   11  A    between atoms: O_12  and  C_13
REMARK   12  A    between atoms: C_13  and  C_14
REMARK   13  A    between atoms: O_20  and  C_21
REMARK   14  A    between atoms: C_27  and  N_28
REMARK                            x       y       z     vdW  Elec       q    Type
REMARK                         _______ _______ _______ _____ _____    ______ ____
ROOT
ATOM      1  P   UNL     1       0.300   9.784  20.397  0.00  0.00    +0.000 P 
ATOM      2  O   UNL     1      -0.438   8.990  21.488  0.00  0.00    +0.000 OA
ENDROOT
BRANCH   1   3
ATOM      3  N   UNL     1       1.260  11.089  21.059  0.00  0.00    +0.000 NA
ATOM      4  H   UNL     1       2.085  10.675  21.478  0.00  0.00    +0.000 HD
BRANCH   3   5
ATOM      5  C   UNL     1       1.770  12.288  20.348  0.00  0.00    +0.000 C 
ATOM      6  C   UNL     1       1.693  12.155  18.833  0.00  0.00    +0.000 C 
BRANCH   5   7
ATOM      7  C   UNL     1       1.031  13.565  20.808  0.00  0.00    +0.000 C 
ATOM      8  O   UNL     1       0.580  13.748  21.932  0.00  0.00    +0.000 OA
BRANCH   7   9
ATOM      9  O   UNL     1       0.852  14.412  19.750  0.00  0.00    +0.000 OA
BRANCH   9  10
ATOM     10  C   UNL     1       1.650  15.607  19.758  0.00  0.00    +0.000 C 
BRANCH  10  11
ATOM     11  C   UNL     1       1.069  16.578  18.767  0.00  0.00    +0.000 A 
ATOM     12  C   UNL     1      -0.314  16.786  18.687  0.00  0.00    +0.000 A 
ATOM     13  C   UNL     1      -0.845  17.646  17.724  0.00  0.00    +0.000 A 
ATOM     14  C   UNL     1       0.002  18.302  16.833  0.00  0.00    +0.000 A 
ATOM     15  C   UNL     1       1.380  18.112  16.912  0.00  0.00    +0.000 A 
ATOM     16  C   UNL     1       1.912  17.255  17.874  0.00  0.00    +0.000 A 
ENDBRANCH  10  11
ENDBRANCH   9  10
ENDBRANCH   7   9
ENDBRANCH   5   7
ENDBRANCH   3   5
ENDBRANCH   1   3
BRANCH   1  17
ATOM     17  C   UNL     1       1.706   8.647  20.680  0.00  0.00    +0.000 C 
BRANCH  17  20
ATOM     18  C   UNL     1       1.992   5.542  20.649  0.00  0.00    +0.000 C 
ATOM     19  C   UNL     1       2.115   6.425  19.433  0.00  0.00    +0.000 C 
ATOM     20  C   UNL     1       1.995   7.772  19.462  0.00  0.00    +0.000 C 
BRANCH  19  21
ATOM     21  C   UNL     1       2.475   5.694  18.151  0.00  0.00    +0.000 C 
BRANCH  21  22
ATOM     22  N   UNL     1       3.898   5.357  18.090  0.00  0.00    +0.000 N 
ATOM     23  C   UNL     1       4.817   6.348  17.805  0.00  0.00    +0.000 A 
ATOM     24  C   UNL     1       6.134   6.129  17.841  0.00  0.00    +0.000 A 
ATOM     25  C   UNL     1       6.621   4.787  18.187  0.00  0.00    +0.000 A 
ATOM     26  O   UNL     1       7.820   4.543  18.251  0.00  0.00    +0.000 OA
ATOM     27  N   UNL     1       5.657   3.854  18.434  0.00  0.00    +0.000 N 
ATOM     28  C   UNL     1       4.302   4.066  18.428  0.00  0.00    +0.000 A 
ATOM     29  O   UNL     1       3.534   3.154  18.725  0.00  0.00    +0.000 OA
ATOM     30  H   UNL     1       5.967   2.929  18.686  0.00  0.00    +0.000 HD
ENDBRANCH  21  22
ENDBRANCH  19  21
ENDBRANCH  17  20
ENDBRANCH   1  17
BRANCH   1  31
ATOM     31  O   UNL     1      -1.029  10.858  20.130  0.00  0.00    +0.000 OA
BRANCH  31  32
ATOM     32  C   UNL     1      -1.756  10.844  18.932  0.00  0.00    +0.000 A 
ATOM     33  C   UNL     1      -2.923  11.578  18.684  0.00  0.00    +0.000 A 
ATOM     34  C   UNL     1      -3.608  11.520  17.468  0.00  0.00    +0.000 A 
ATOM     35  C   UNL     1      -3.149  10.674  16.473  0.00  0.00    +0.000 A 
ATOM     36  C   UNL     1      -2.009   9.905  16.706  0.00  0.00    +0.000 A 
ATOM     37  C   UNL     1      -1.305   9.996  17.921  0.00  0.00    +0.000 A 
ENDBRANCH  31  32
ENDBRANCH   1  31
TORSDOF 12
ENDMDL
MODEL 7
REMARK VINA RESULT:      -7.8      4.173      6.573
REMARK  Name = 
REMARK  14 active torsions:
REMARK  status: ('A' for Active; 'I' for Inactive)
REMARK    1  A    between atoms: C_1  and  C_2
REMARK    2  A    between atoms: C_2  and  C_27
REMARK    3  A    between atoms: C_3  and  C_4
REMARK    4  A    between atoms: C_4  and  P_5
REMARK    5  A    between atoms: P_5  and  N_7
REMARK    6  A    between atoms: P_5  and  O_20
REMARK    7  A    between atoms: N_7  and  C_8
REMARK    8  A    between atoms: C_8  and  C_9
REMARK    9  A    between atoms: C_8  and  C_10
REMARK   10  A    between atoms: C_10  and  O_12
REMARK   11  A    between atoms: O_12  and  C_13
REMARK   12  A    between atoms: C_13  and  C_14
REMARK   13  A    between atoms: O_20  and  C_21
REMARK   14  A    between atoms: C_27  and  N_28
REMARK                            x       y       z     vdW  Elec       q    Type
REMARK                         _______ _______ _______ _____ _____    ______ ____
ROOT
ATOM      1  P   UNL     1       5.050   6.217  16.281  0.00  0.00    +0.000 P 
ATOM      2  O   UNL     1       4.515   7.289  15.318  0.00  0.00    +0.000 OA
ENDROOT
BRANCH   1   3
ATOM      3  N   UNL     1       6.008   6.903  17.575  0.00  0.00    +0.000 NA
ATOM      4  H   UNL     1       5.385   7.071  18.356  0.00  0.00    +0.000 HD
BRANCH   3   5
ATOM      5  C   UNL     1       7.232   6.335  18.194  0.00  0.00    +0.000 C 
ATOM      6  C   UNL     1       8.298   7.387  18.469  0.00  0.00    +0.000 C 
BRANCH   5   7
ATOM      7  C   UNL     1       6.894   5.567  19.492  0.00  0.00    +0.000 C 
ATOM      8  O   UNL     1       7.718   5.171  20.307  0.00  0.00    +0.000 OA
BRANCH   7   9
ATOM      9  O   UNL     1       5.556   5.292  19.540  0.00  0.00    +0.000 OA
BRANCH   9  10
ATOM     10  C   UNL     1       5.194   3.904  19.439  0.00  0.00    +0.000 C 
BRANCH  10  11
ATOM     11  C   UNL     1       3.694   3.796  19.474  0.00  0.00    +0.000 A 
ATOM     12  C   UNL     1       2.992   3.165  18.439  0.00  0.00    +0.000 A 
ATOM     13  C   UNL     1       1.597   3.124  18.455  0.00  0.00    +0.000 A 
ATOM     14  C   UNL     1       0.893   3.714  19.503  0.00  0.00    +0.000 A 
ATOM     15  C   UNL     1       1.583   4.333  20.544  0.00  0.00    +0.000 A 
ATOM     16  C   UNL     1       2.976   4.375  20.531  0.00  0.00    +0.000 A 
ENDBRANCH  10  11
ENDBRANCH   9  10
ENDBRANCH   7   9
ENDBRANCH   5   7
ENDBRANCH   3   5
ENDBRANCH   1   3
BRANCH   1  17
ATOM     17  C   UNL     1       3.545   6.521  17.277  0.00  0.00    +0.000 C 
BRANCH  17  20
ATOM     18  C   UNL     1       1.870   8.015  19.441  0.00  0.00    +0.000 C 
ATOM     19  C   UNL     1       2.398   8.648  18.180  0.00  0.00    +0.000 C 
ATOM     20  C   UNL     1       3.119   7.987  17.246  0.00  0.00    +0.000 C 
BRANCH  19  21
ATOM     21  C   UNL     1       1.988  10.098  17.977  0.00  0.00    +0.000 C 
BRANCH  21  22
ATOM     22  N   UNL     1       0.934  10.507  18.907  0.00  0.00    +0.000 N 
ATOM     23  C   UNL     1       1.279  11.135  20.088  0.00  0.00    +0.000 A 
ATOM     24  C   UNL     1       0.363  11.629  20.925  0.00  0.00    +0.000 A 
ATOM     25  C   UNL     1      -1.059  11.491  20.582  0.00  0.00    +0.000 A 
ATOM     26  O   UNL     1      -1.934  11.944  21.310  0.00  0.00    +0.000 OA
ATOM     27  N   UNL     1      -1.324  10.841  19.413  0.00  0.00    +0.000 N 
ATOM     28  C   UNL     1      -0.398  10.351  18.528  0.00  0.00    +0.000 A 
ATOM     29  O   UNL     1      -0.765   9.834  17.475  0.00  0.00    +0.000 OA
ATOM     30  H   UNL     1      -2.292  10.746  19.151  0.00  0.00    +0.000 HD
ENDBRANCH  21  22
ENDBRANCH  19  21
ENDBRANCH  17  20
ENDBRANCH   1  17
BRANCH   1  31
ATOM     31  O   UNL     1       6.473   5.930  15.340  0.00  0.00    +0.000 OA
BRANCH  31  32
ATOM     32  C   UNL     1       6.452   5.101  14.210  0.00  0.00    +0.000 A 
ATOM     33  C   UNL     1       5.457   4.162  13.912  0.00  0.00    +0.000 A 
ATOM     34  C   UNL     1       5.494   3.360  12.769  0.00  0.00    +0.000 A 
ATOM     35  C   UNL     1       6.573   3.458  11.908  0.00  0.00    +0.000 A 
ATOM     36  C   UNL     1       7.596   4.360  12.200  0.00  0.00    +0.000 A 
ATOM     37  C   UNL     1       7.534   5.190  13.335  0.00  0.00    +0.000 A 
ENDBRANCH  31  32
ENDBRANCH   1  31
TORSDOF 12
ENDMDL
MODEL 8
REMARK VINA RESULT:      -7.7      7.150     10.391
REMARK  Name = 
REMARK  14 active torsions:
REMARK  status: ('A' for Active; 'I' for Inactive)
REMARK    1  A    between atoms: C_1  and  C_2
REMARK    2  A    between atoms: C_2  and  C_27
REMARK    3  A    between atoms: C_3  and  C_4
REMARK    4  A    between atoms: C_4  and  P_5
REMARK    5  A    between atoms: P_5  and  N_7
REMARK    6  A    between atoms: P_5  and  O_20
REMARK    7  A    between atoms: N_7  and  C_8
REMARK    8  A    between atoms: C_8  and  C_9
REMARK    9  A    between atoms: C_8  and  C_10
REMARK   10  A    between atoms: C_10  and  O_12
REMARK   11  A    between atoms: O_12  and  C_13
REMARK   12  A    between atoms: C_13  and  C_14
REMARK   13  A    between atoms: O_20  and  C_21
REMARK   14  A    between atoms: C_27  and  N_28
REMARK                            x       y       z     vdW  Elec       q    Type
REMARK                         _______ _______ _______ _____ _____    ______ ____
ROOT
ATOM      1  P   UNL     1       1.129   9.871  18.621  0.00  0.00    +0.000 P 
ATOM      2  O   UNL     1       2.389  10.588  18.108  0.00  0.00    +0.000 OA
ENDROOT
BRANCH   1   3
ATOM      3  N   UNL     1      -0.283  10.235  17.654  0.00  0.00    +0.000 NA
ATOM      4  H   UNL     1      -0.774   9.362  17.496  0.00  0.00    +0.000 HD
BRANCH   3   5
ATOM      5  C   UNL     1      -1.358  11.213  17.955  0.00  0.00    +0.000 C 
ATOM      6  C   UNL     1      -0.879  12.658  17.887  0.00  0.00    +0.000 C 
BRANCH   5   7
ATOM      7  C   UNL     1      -2.573  11.011  17.021  0.00  0.00    +0.000 C 
ATOM      8  O   UNL     1      -2.545  10.410  15.955  0.00  0.00    +0.000 OA
BRANCH   7   9
ATOM      9  O   UNL     1      -3.653  11.697  17.500  0.00  0.00    +0.000 OA
BRANCH   9  10
ATOM     10  C   UNL     1      -4.898  10.979  17.519  0.00  0.00    +0.000 C 
BRANCH  10  11
ATOM     11  C   UNL     1      -5.608  11.283  18.810  0.00  0.00    +0.000 A 
ATOM     12  C   UNL     1      -6.822  10.660  19.129  0.00  0.00    +0.000 A 
ATOM     13  C   UNL     1      -7.500  10.995  20.302  0.00  0.00    +0.000 A 
ATOM     14  C   UNL     1      -6.972  11.954  21.163  0.00  0.00    +0.000 A 
ATOM     15  C   UNL     1      -5.759  12.570  20.861  0.00  0.00    +0.000 A 
ATOM     16  C   UNL     1      -5.079  12.236  19.691  0.00  0.00    +0.000 A 
ENDBRANCH  10  11
ENDBRANCH   9  10
ENDBRANCH   7   9
ENDBRANCH   5   7
ENDBRANCH   3   5
ENDBRANCH   1   3
BRANCH   1  17
ATOM     17  C   UNL     1       1.550   8.532  17.448  0.00  0.00    +0.000 C 
BRANCH  17  20
ATOM     18  C   UNL     1       1.937   5.525  18.177  0.00  0.00    +0.000 C 
ATOM     19  C   UNL     1       3.048   6.541  18.118  0.00  0.00    +0.000 C 
ATOM     20  C   UNL     1       2.866   7.844  17.805  0.00  0.00    +0.000 C 
BRANCH  19  21
ATOM     21  C   UNL     1       4.415   6.012  18.522  0.00  0.00    +0.000 C 
BRANCH  21  22
ATOM     22  N   UNL     1       5.216   5.613  17.364  0.00  0.00    +0.000 N 
ATOM     23  C   UNL     1       4.888   4.459  16.679  0.00  0.00    +0.000 A 
ATOM     24  C   UNL     1       5.510   4.099  15.553  0.00  0.00    +0.000 A 
ATOM     25  C   UNL     1       6.584   4.955  15.031  0.00  0.00    +0.000 A 
ATOM     26  O   UNL     1       7.171   4.675  13.993  0.00  0.00    +0.000 OA
ATOM     27  N   UNL     1       6.868   6.065  15.771  0.00  0.00    +0.000 N 
ATOM     28  C   UNL     1       6.223   6.465  16.914  0.00  0.00    +0.000 A 
ATOM     29  O   UNL     1       6.536   7.521  17.460  0.00  0.00    +0.000 OA
ATOM     30  H   UNL     1       7.592   6.674  15.426  0.00  0.00    +0.000 HD
ENDBRANCH  21  22
ENDBRANCH  19  21
ENDBRANCH  17  20
ENDBRANCH   1  17
BRANCH   1  31
ATOM     31  O   UNL     1       0.732  11.138  19.731  0.00  0.00    +0.000 OA
BRANCH  31  32
ATOM     32  C   UNL     1       0.138  10.869  20.971  0.00  0.00    +0.000 A 
ATOM     33  C   UNL     1       0.225   9.656  21.666  0.00  0.00    +0.000 A 
ATOM     34  C   UNL     1      -0.394   9.448  22.901  0.00  0.00    +0.000 A 
ATOM     35  C   UNL     1      -1.164  10.458  23.451  0.00  0.00    +0.000 A 
ATOM     36  C   UNL     1      -1.297  11.663  22.763  0.00  0.00    +0.000 A 
ATOM     37  C   UNL     1      -0.641  11.879  21.537  0.00  0.00    +0.000 A 
ENDBRANCH  31  32
ENDBRANCH   1  31
TORSDOF 12
ENDMDL
MODEL 9
REMARK VINA RESULT:      -7.7      7.443     11.352
REMARK  Name = 
REMARK  14 active torsions:
REMARK  status: ('A' for Active; 'I' for Inactive)
REMARK    1  A    between atoms: C_1  and  C_2
REMARK    2  A    between atoms: C_2  and  C_27
REMARK    3  A    between atoms: C_3  and  C_4
REMARK    4  A    between atoms: C_4  and  P_5
REMARK    5  A    between atoms: P_5  and  N_7
REMARK    6  A    between atoms: P_5  and  O_20
REMARK    7  A    between atoms: N_7  and  C_8
REMARK    8  A    between atoms: C_8  and  C_9
REMARK    9  A    between atoms: C_8  and  C_10
REMARK   10  A    between atoms: C_10  and  O_12
REMARK   11  A    between atoms: O_12  and  C_13
REMARK   12  A    between atoms: C_13  and  C_14
REMARK   13  A    between atoms: O_20  and  C_21
REMARK   14  A    between atoms: C_27  and  N_28
REMARK                            x       y       z     vdW  Elec       q    Type
REMARK                         _______ _______ _______ _____ _____    ______ ____
ROOT
ATOM      1  P   UNL     1       0.561  10.887  19.187  0.00  0.00    +0.000 P 
ATOM      2  O   UNL     1       1.729  10.683  18.209  0.00  0.00    +0.000 OA
ENDROOT
BRANCH   1   3
ATOM      3  N   UNL     1      -0.943  10.239  18.572  0.00  0.00    +0.000 NA
ATOM      4  H   UNL     1      -1.525  10.015  19.371  0.00  0.00    +0.000 HD
BRANCH   3   5
ATOM      5  C   UNL     1      -1.873  10.872  17.604  0.00  0.00    +0.000 C 
ATOM      6  C   UNL     1      -2.224   9.959  16.437  0.00  0.00    +0.000 C 
BRANCH   5   7
ATOM      7  C   UNL     1      -3.162  11.358  18.305  0.00  0.00    +0.000 C 
ATOM      8  O   UNL     1      -4.272  10.867  18.150  0.00  0.00    +0.000 OA
BRANCH   7   9
ATOM      9  O   UNL     1      -2.904  12.486  19.034  0.00  0.00    +0.000 OA
BRANCH   9  10
ATOM     10  C   UNL     1      -3.712  12.677  20.207  0.00  0.00    +0.000 C 
BRANCH  10  11
ATOM     11  C   UNL     1      -2.824  13.130  21.333  0.00  0.00    +0.000 A 
ATOM     12  C   UNL     1      -1.954  12.235  21.970  0.00  0.00    +0.000 A 
ATOM     13  C   UNL     1      -1.179  12.654  23.053  0.00  0.00    +0.000 A 
ATOM     14  C   UNL     1      -1.268  13.968  23.508  0.00  0.00    +0.000 A 
ATOM     15  C   UNL     1      -2.121  14.869  22.873  0.00  0.00    +0.000 A 
ATOM     16  C   UNL     1      -2.896  14.453  21.791  0.00  0.00    +0.000 A 
ENDBRANCH  10  11
ENDBRANCH   9  10
ENDBRANCH   7   9
ENDBRANCH   5   7
ENDBRANCH   3   5
ENDBRANCH   1   3
BRANCH   1  17
ATOM     17  C   UNL     1       0.971   9.230  19.847  0.00  0.00    +0.000 C 
BRANCH  17  20
ATOM     18  C   UNL     1       2.168   6.397  20.357  0.00  0.00    +0.000 C 
ATOM     19  C   UNL     1       2.394   7.209  19.108  0.00  0.00    +0.000 C 
ATOM     20  C   UNL     1       1.873   8.440  18.901  0.00  0.00    +0.000 C 
BRANCH  19  21
ATOM     21  C   UNL     1       3.337   6.574  18.099  0.00  0.00    +0.000 C 
BRANCH  21  22
ATOM     22  N   UNL     1       3.403   5.120  18.247  0.00  0.00    +0.000 N 
ATOM     23  C   UNL     1       2.391   4.340  17.722  0.00  0.00    +0.000 A 
ATOM     24  C   UNL     1       2.445   3.005  17.728  0.00  0.00    +0.000 A 
ATOM     25  C   UNL     1       3.617   2.345  18.320  0.00  0.00    +0.000 A 
ATOM     26  O   UNL     1       3.719   1.124  18.332  0.00  0.00    +0.000 OA
ATOM     27  N   UNL     1       4.565   3.178  18.838  0.00  0.00    +0.000 N 
ATOM     28  C   UNL     1       4.540   4.549  18.817  0.00  0.00    +0.000 A 
ATOM     29  O   UNL     1       5.487   5.189  19.268  0.00  0.00    +0.000 OA
ATOM     30  H   UNL     1       5.384   2.748  19.238  0.00  0.00    +0.000 HD
ENDBRANCH  21  22
ENDBRANCH  19  21
ENDBRANCH  17  20
ENDBRANCH   1  17
BRANCH   1  31
ATOM     31  O   UNL     1       0.174  12.454  18.564  0.00  0.00    +0.000 OA
BRANCH  31  32
ATOM     32  C   UNL     1       0.358  13.615  19.326  0.00  0.00    +0.000 A 
ATOM     33  C   UNL     1      -0.234  14.858  19.066  0.00  0.00    +0.000 A 
ATOM     34  C   UNL     1      -0.008  15.983  19.862  0.00  0.00    +0.000 A 
ATOM     35  C   UNL     1       0.866  15.891  20.932  0.00  0.00    +0.000 A 
ATOM     36  C   UNL     1       1.496  14.675  21.193  0.00  0.00    +0.000 A 
ATOM     37  C   UNL     1       1.237  13.536  20.407  0.00  0.00    +0.000 A 
ENDBRANCH  31  32
ENDBRANCH   1  31
TORSDOF 12
ENDMDL
