MODEL 1
REMARK VINA RESULT:      -7.5      0.000      0.000
REMARK  Name = 
REMARK  4 active torsions:
REMARK  status: ('A' for Active; 'I' for Inactive)
REMARK    1  A    between atoms: O_1  and  C_2
REMARK    2  A    between atoms: C_11  and  O_12
REMARK    3  A    between atoms: C_13  and  C_14
REMARK    4  A    between atoms: C_14  and  C_15
REMARK                            x       y       z     vdW  Elec       q    Type
REMARK                         _______ _______ _______ _____ _____    ______ ____
ROOT
ATOM      1  C   UNL     1       4.967   6.536  16.464  0.00  0.00    +0.000 A 
ATOM      2  N   UNL     1       3.835   6.828  17.122  0.00  0.00    +0.000 NA
ATOM      3  C   UNL     1       3.536   6.090  18.199  0.00  0.00    +0.000 A 
ATOM      4  C   UNL     1       2.358   6.381  18.874  0.00  0.00    +0.000 A 
ATOM      5  C   UNL     1       1.943   5.643  19.987  0.00  0.00    +0.000 A 
ATOM      6  C   UNL     1       2.731   4.599  20.441  0.00  0.00    +0.000 A 
ATOM      7 CL   UNL     1       2.221   3.659  21.788  0.00  0.00    +0.000 Cl
ATOM      8  C   UNL     1       3.932   4.298  19.800  0.00  0.00    +0.000 A 
ATOM      9  C   UNL     1       4.354   5.030  18.658  0.00  0.00    +0.000 A 
ATOM     10  C   UNL     1       5.534   4.782  17.918  0.00  0.00    +0.000 A 
ATOM     11  C   UNL     1       5.865   5.539  16.790  0.00  0.00    +0.000 A 
ENDROOT
BRANCH   1  12
ATOM     12  O   UNL     1       5.144   7.326  15.373  0.00  0.00    +0.000 OA
ATOM     13  H   UNL     1       5.329   6.642  14.706  0.00  0.00    +0.000 HD
ENDBRANCH   1  12
BRANCH  10  14
ATOM     14  O   UNL     1       6.409   3.776  18.254  0.00  0.00    +0.000 OA
ATOM     15  H   UNL     1       6.153   2.942  17.836  0.00  0.00    +0.000 HD
ENDBRANCH  10  14
BRANCH  11  16
ATOM     16  C   UNL     1       7.127   5.307  15.995  0.00  0.00    +0.000 C 
BRANCH  16  17
ATOM     17  C   UNL     1       6.862   4.825  14.585  0.00  0.00    +0.000 A 
ATOM     18  C   UNL     1       5.839   3.902  14.327  0.00  0.00    +0.000 A 
ATOM     19  C   UNL     1       5.675   3.364  13.049  0.00  0.00    +0.000 A 
ATOM     20  C   UNL     1       6.525   3.752  12.016  0.00  0.00    +0.000 A 
ATOM     21  C   UNL     1       7.519   4.700  12.251  0.00  0.00    +0.000 A 
ATOM     22  C   UNL     1       7.687   5.236  13.529  0.00  0.00    +0.000 A 
ENDBRANCH  16  17
ENDBRANCH  11  16
TORSDOF 4
ENDMDL
MODEL 2
REMARK VINA RESULT:      -7.4      0.165      1.091
REMARK  Name = 
REMARK  4 active torsions:
REMARK  status: ('A' for Active; 'I' for Inactive)
REMARK    1  A    between atoms: O_1  and  C_2
REMARK    2  A    between atoms: C_11  and  O_12
REMARK    3  A    between atoms: C_13  and  C_14
REMARK    4  A    between atoms: C_14  and  C_15
REMARK                            x       y       z     vdW  Elec       q    Type
REMARK                         _______ _______ _______ _____ _____    ______ ____
ROOT
ATOM      1  C   UNL     1       4.883   6.476  16.511  0.00  0.00    +0.000 A 
ATOM      2  N   UNL     1       3.720   6.693  17.144  0.00  0.00    +0.000 NA
ATOM      3  C   UNL     1       3.448   5.940  18.217  0.00  0.00    +0.000 A 
ATOM      4  C   UNL     1       2.239   6.153  18.866  0.00  0.00    +0.000 A 
ATOM      5  C   UNL     1       1.850   5.392  19.972  0.00  0.00    +0.000 A 
ATOM      6  C   UNL     1       2.696   4.403  20.446  0.00  0.00    +0.000 A 
ATOM      7 CL   UNL     1       2.221   3.434  21.786  0.00  0.00    +0.000 Cl
ATOM      8  C   UNL     1       3.927   4.181  19.833  0.00  0.00    +0.000 A 
ATOM      9  C   UNL     1       4.324   4.937  18.697  0.00  0.00    +0.000 A 
ATOM     10  C   UNL     1       5.533   4.766  17.984  0.00  0.00    +0.000 A 
ATOM     11  C   UNL     1       5.837   5.541  16.860  0.00  0.00    +0.000 A 
ENDROOT
BRANCH   1  12
ATOM     12  O   UNL     1       5.031   7.274  15.422  0.00  0.00    +0.000 OA
ATOM     13  H   UNL     1       4.969   8.145  15.850  0.00  0.00    +0.000 HD
ENDBRANCH   1  12
BRANCH  10  14
ATOM     14  O   UNL     1       6.466   3.821  18.342  0.00  0.00    +0.000 OA
ATOM     15  H   UNL     1       6.795   3.983  19.237  0.00  0.00    +0.000 HD
ENDBRANCH  10  14
BRANCH  11  16
ATOM     16  C   UNL     1       7.129   5.392  16.093  0.00  0.00    +0.000 C 
BRANCH  16  17
ATOM     17  C   UNL     1       6.939   4.782  14.721  0.00  0.00    +0.000 A 
ATOM     18  C   UNL     1       7.712   5.213  13.634  0.00  0.00    +0.000 A 
ATOM     19  C   UNL     1       7.453   4.741  12.347  0.00  0.00    +0.000 A 
ATOM     20  C   UNL     1       6.425   3.824  12.135  0.00  0.00    +0.000 A 
ATOM     21  C   UNL     1       5.677   3.356  13.213  0.00  0.00    +0.000 A 
ATOM     22  C   UNL     1       5.932   3.831  14.501  0.00  0.00    +0.000 A 
ENDBRANCH  16  17
ENDBRANCH  11  16
TORSDOF 4
ENDMDL
MODEL 3
REMARK VINA RESULT:      -7.4      2.976      6.408
REMARK  Name = 
REMARK  4 active torsions:
REMARK  status: ('A' for Active; 'I' for Inactive)
REMARK    1  A    between atoms: O_1  and  C_2
REMARK    2  A    between atoms: C_11  and  O_12
REMARK    3  A    between atoms: C_13  and  C_14
REMARK    4  A    between atoms: C_14  and  C_15
REMARK                            x       y       z     vdW  Elec       q    Type
REMARK                         _______ _______ _______ _____ _____    ______ ____
ROOT
ATOM      1  C   UNL     1       6.891   5.810  16.817  0.00  0.00    +0.000 A 
ATOM      2  N   UNL     1       7.496   5.793  15.620  0.00  0.00    +0.000 NA
ATOM      3  C   UNL     1       6.955   5.028  14.662  0.00  0.00    +0.000 A 
ATOM      4  C   UNL     1       7.586   4.998  13.427  0.00  0.00    +0.000 A 
ATOM      5  C   UNL     1       7.119   4.201  12.377  0.00  0.00    +0.000 A 
ATOM      6  C   UNL     1       5.985   3.427  12.566  0.00  0.00    +0.000 A 
ATOM      7 CL   UNL     1       5.413   2.416  11.298  0.00  0.00    +0.000 Cl
ATOM      8  C   UNL     1       5.314   3.456  13.787  0.00  0.00    +0.000 A 
ATOM      9  C   UNL     1       5.792   4.248  14.865  0.00  0.00    +0.000 A 
ATOM     10  C   UNL     1       5.204   4.318  16.150  0.00  0.00    +0.000 A 
ATOM     11  C   UNL     1       5.753   5.108  17.165  0.00  0.00    +0.000 A 
ENDROOT
BRANCH   1  12
ATOM     12  O   UNL     1       7.548   6.591  17.713  0.00  0.00    +0.000 OA
ATOM     13  H   UNL     1       8.460   6.296  17.546  0.00  0.00    +0.000 HD
ENDBRANCH   1  12
BRANCH  10  14
ATOM     14  O   UNL     1       4.077   3.602  16.479  0.00  0.00    +0.000 OA
ATOM     15  H   UNL     1       3.290   4.164  16.445  0.00  0.00    +0.000 HD
ENDBRANCH  10  14
BRANCH  11  16
ATOM     16  C   UNL     1       5.135   5.216  18.537  0.00  0.00    +0.000 C 
BRANCH  16  17
ATOM     17  C   UNL     1       3.980   6.193  18.595  0.00  0.00    +0.000 A 
ATOM     18  C   UNL     1       3.816   7.165  17.597  0.00  0.00    +0.000 A 
ATOM     19  C   UNL     1       2.827   8.142  17.714  0.00  0.00    +0.000 A 
ATOM     20  C   UNL     1       1.984   8.150  18.824  0.00  0.00    +0.000 A 
ATOM     21  C   UNL     1       2.110   7.165  19.801  0.00  0.00    +0.000 A 
ATOM     22  C   UNL     1       3.102   6.190  19.687  0.00  0.00    +0.000 A 
ENDBRANCH  16  17
ENDBRANCH  11  16
TORSDOF 4
ENDMDL
MODEL 4
REMARK VINA RESULT:      -7.3      2.921      6.295
REMARK  Name = 
REMARK  4 active torsions:
REMARK  status: ('A' for Active; 'I' for Inactive)
REMARK    1  A    between atoms: O_1  and  C_2
REMARK    2  A    between atoms: C_11  and  O_12
REMARK    3  A    between atoms: C_13  and  C_14
REMARK    4  A    between atoms: C_14  and  C_15
REMARK                            x       y       z     vdW  Elec       q    Type
REMARK                         _______ _______ _______ _____ _____    ______ ____
ROOT
ATOM      1  C   UNL     1       7.159   5.698  16.660  0.00  0.00    +0.000 A 
ATOM      2  N   UNL     1       7.597   5.775  15.395  0.00  0.00    +0.000 NA
ATOM      3  C   UNL     1       7.034   4.961  14.493  0.00  0.00    +0.000 A 
ATOM      4  C   UNL     1       7.495   5.029  13.185  0.00  0.00    +0.000 A 
ATOM      5  C   UNL     1       6.996   4.194  12.181  0.00  0.00    +0.000 A 
ATOM      6  C   UNL     1       6.004   3.279  12.492  0.00  0.00    +0.000 A 
ATOM      7 CL   UNL     1       5.399   2.221  11.278  0.00  0.00    +0.000 Cl
ATOM      8  C   UNL     1       5.501   3.204  13.790  0.00  0.00    +0.000 A 
ATOM      9  C   UNL     1       6.015   4.035  14.821  0.00  0.00    +0.000 A 
ATOM     10  C   UNL     1       5.600   4.012  16.173  0.00  0.00    +0.000 A 
ATOM     11  C   UNL     1       6.175   4.852  17.131  0.00  0.00    +0.000 A 
ENDROOT
BRANCH   1  12
ATOM     12  O   UNL     1       7.827   6.545  17.487  0.00  0.00    +0.000 OA
ATOM     13  H   UNL     1       7.146   6.673  18.170  0.00  0.00    +0.000 HD
ENDBRANCH   1  12
BRANCH  10  14
ATOM     14  O   UNL     1       4.624   3.153  16.623  0.00  0.00    +0.000 OA
ATOM     15  H   UNL     1       3.982   2.965  15.925  0.00  0.00    +0.000 HD
ENDBRANCH  10  14
BRANCH  11  16
ATOM     16  C   UNL     1       5.736   4.861  18.575  0.00  0.00    +0.000 C 
BRANCH  16  17
ATOM     17  C   UNL     1       4.464   5.648  18.805  0.00  0.00    +0.000 A 
ATOM     18  C   UNL     1       3.560   5.268  19.808  0.00  0.00    +0.000 A 
ATOM     19  C   UNL     1       2.331   5.917  19.939  0.00  0.00    +0.000 A 
ATOM     20  C   UNL     1       1.998   6.959  19.075  0.00  0.00    +0.000 A 
ATOM     21  C   UNL     1       2.905   7.373  18.102  0.00  0.00    +0.000 A 
ATOM     22  C   UNL     1       4.133   6.722  17.967  0.00  0.00    +0.000 A 
ENDBRANCH  16  17
ENDBRANCH  11  16
TORSDOF 4
ENDMDL
MODEL 5
REMARK VINA RESULT:      -7.3      5.055      6.724
REMARK  Name = 
REMARK  4 active torsions:
REMARK  status: ('A' for Active; 'I' for Inactive)
REMARK    1  A    between atoms: O_1  and  C_2
REMARK    2  A    between atoms: C_11  and  O_12
REMARK    3  A    between atoms: C_13  and  C_14
REMARK    4  A    between atoms: C_14  and  C_15
REMARK                            x       y       z     vdW  Elec       q    Type
REMARK                         _______ _______ _______ _____ _____    ______ ____
ROOT
ATOM      1  C   UNL     1       2.002   8.554  18.218  0.00  0.00    +0.000 A 
ATOM      2  N   UNL     1       1.290   9.675  18.023  0.00  0.00    +0.000 NA
ATOM      3  C   UNL     1       0.627  10.178  19.071  0.00  0.00    +0.000 A 
ATOM      4  C   UNL     1      -0.121  11.330  18.869  0.00  0.00    +0.000 A 
ATOM      5  C   UNL     1      -0.877  11.910  19.893  0.00  0.00    +0.000 A 
ATOM      6  C   UNL     1      -0.873  11.329  21.151  0.00  0.00    +0.000 A 
ATOM      7 CL   UNL     1      -1.821  12.009  22.414  0.00  0.00    +0.000 Cl
ATOM      8  C   UNL     1      -0.111  10.187  21.392  0.00  0.00    +0.000 A 
ATOM      9  C   UNL     1       0.646   9.581  20.354  0.00  0.00    +0.000 A 
ATOM     10  C   UNL     1       1.420   8.405  20.488  0.00  0.00    +0.000 A 
ATOM     11  C   UNL     1       2.119   7.861  19.406  0.00  0.00    +0.000 A 
ENDROOT
BRANCH   1  12
ATOM     12  O   UNL     1       2.600   8.121  17.077  0.00  0.00    +0.000 OA
ATOM     13  H   UNL     1       3.104   7.370  17.435  0.00  0.00    +0.000 HD
ENDBRANCH   1  12
BRANCH  10  14
ATOM     14  O   UNL     1       1.515   7.723  21.678  0.00  0.00    +0.000 OA
ATOM     15  H   UNL     1       2.013   8.235  22.330  0.00  0.00    +0.000 HD
ENDBRANCH  10  14
BRANCH  11  16
ATOM     16  C   UNL     1       2.969   6.619  19.527  0.00  0.00    +0.000 C 
BRANCH  16  17
ATOM     17  C   UNL     1       2.184   5.340  19.331  0.00  0.00    +0.000 A 
ATOM     18  C   UNL     1       1.637   4.663  20.430  0.00  0.00    +0.000 A 
ATOM     19  C   UNL     1       1.020   3.421  20.264  0.00  0.00    +0.000 A 
ATOM     20  C   UNL     1       0.936   2.850  18.996  0.00  0.00    +0.000 A 
ATOM     21  C   UNL     1       1.439   3.532  17.890  0.00  0.00    +0.000 A 
ATOM     22  C   UNL     1       2.059   4.772  18.056  0.00  0.00    +0.000 A 
ENDBRANCH  16  17
ENDBRANCH  11  16
TORSDOF 4
ENDMDL
MODEL 6
REMARK VINA RESULT:      -7.2      3.957      5.620
REMARK  Name = 
REMARK  4 active torsions:
REMARK  status: ('A' for Active; 'I' for Inactive)
REMARK    1  A    between atoms: O_1  and  C_2
REMARK    2  A    between atoms: C_11  and  O_12
REMARK    3  A    between atoms: C_13  and  C_14
REMARK    4  A    between atoms: C_14  and  C_15
REMARK                            x       y       z     vdW  Elec       q    Type
REMARK                         _______ _______ _______ _____ _____    ______ ____
ROOT
ATOM      1  C   UNL     1       2.308   6.558  20.030  0.00  0.00    +0.000 A 
ATOM      2  N   UNL     1       1.605   7.373  20.831  0.00  0.00    +0.000 NA
ATOM      3  C   UNL     1       1.250   8.568  20.341  0.00  0.00    +0.000 A 
ATOM      4  C   UNL     1       0.535   9.419  21.173  0.00  0.00    +0.000 A 
ATOM      5  C   UNL     1       0.152  10.701  20.765  0.00  0.00    +0.000 A 
ATOM      6  C   UNL     1       0.482  11.134  19.492  0.00  0.00    +0.000 A 
ATOM      7 CL   UNL     1       0.048  12.718  18.983  0.00  0.00    +0.000 Cl
ATOM      8  C   UNL     1       1.178  10.293  18.624  0.00  0.00    +0.000 A 
ATOM      9  C   UNL     1       1.587   8.997  19.035  0.00  0.00    +0.000 A 
ATOM     10  C   UNL     1       2.325   8.084  18.246  0.00  0.00    +0.000 A 
ATOM     11  C   UNL     1       2.707   6.832  18.737  0.00  0.00    +0.000 A 
ENDROOT
BRANCH   1  12
ATOM     12  O   UNL     1       2.639   5.393  20.646  0.00  0.00    +0.000 OA
ATOM     13  H   UNL     1       2.489   5.652  21.572  0.00  0.00    +0.000 HD
ENDBRANCH   1  12
BRANCH  10  14
ATOM     14  O   UNL     1       2.722   8.382  16.963  0.00  0.00    +0.000 OA
ATOM     15  H   UNL     1       3.142   7.617  16.546  0.00  0.00    +0.000 HD
ENDBRANCH  10  14
BRANCH  11  16
ATOM     16  C   UNL     1       3.477   5.833  17.908  0.00  0.00    +0.000 C 
BRANCH  16  17
ATOM     17  C   UNL     1       4.977   5.969  18.054  0.00  0.00    +0.000 A 
ATOM     18  C   UNL     1       5.657   5.314  19.092  0.00  0.00    +0.000 A 
ATOM     19  C   UNL     1       7.018   5.539  19.301  0.00  0.00    +0.000 A 
ATOM     20  C   UNL     1       7.717   6.411  18.468  0.00  0.00    +0.000 A 
ATOM     21  C   UNL     1       7.062   7.035  17.408  0.00  0.00    +0.000 A 
ATOM     22  C   UNL     1       5.699   6.815  17.201  0.00  0.00    +0.000 A 
ENDBRANCH  16  17
ENDBRANCH  11  16
TORSDOF 4
ENDMDL
MODEL 7
REMARK VINA RESULT:      -7.2      5.027      6.752
REMARK  Name = 
REMARK  4 active torsions:
REMARK  status: ('A' for Active; 'I' for Inactive)
REMARK    1  A    between atoms: O_1  and  C_2
REMARK    2  A    between atoms: C_11  and  O_12
REMARK    3  A    between atoms: C_13  and  C_14
REMARK    4  A    between atoms: C_14  and  C_15
REMARK                            x       y       z     vdW  Elec       q    Type
REMARK                         _______ _______ _______ _____ _____    ______ ____
ROOT
ATOM      1  C   UNL     1       1.983   8.537  18.202  0.00  0.00    +0.000 A 
ATOM      2  N   UNL     1       1.217   9.620  18.007  0.00  0.00    +0.000 NA
ATOM      3  C   UNL     1       0.559  10.113  19.064  0.00  0.00    +0.000 A 
ATOM      4  C   UNL     1      -0.246  11.226  18.862  0.00  0.00    +0.000 A 
ATOM      5  C   UNL     1      -1.001  11.789  19.896  0.00  0.00    +0.000 A 
ATOM      6  C   UNL     1      -0.937  11.233  21.163  0.00  0.00    +0.000 A 
ATOM      7 CL   UNL     1      -1.882  11.892  22.439  0.00  0.00    +0.000 Cl
ATOM      8  C   UNL     1      -0.118  10.131  21.404  0.00  0.00    +0.000 A 
ATOM      9  C   UNL     1       0.638   9.541  20.356  0.00  0.00    +0.000 A 
ATOM     10  C   UNL     1       1.468   8.403  20.489  0.00  0.00    +0.000 A 
ATOM     11  C   UNL     1       2.163   7.871  19.398  0.00  0.00    +0.000 A 
ENDROOT
BRANCH   1  12
ATOM     12  O   UNL     1       2.571   8.110  17.053  0.00  0.00    +0.000 OA
ATOM     13  H   UNL     1       2.126   7.251  16.954  0.00  0.00    +0.000 HD
ENDBRANCH   1  12
BRANCH  10  14
ATOM     14  O   UNL     1       1.625   7.748  21.688  0.00  0.00    +0.000 OA
ATOM     15  H   UNL     1       2.148   6.943  21.575  0.00  0.00    +0.000 HD
ENDBRANCH  10  14
BRANCH  11  16
ATOM     16  C   UNL     1       3.071   6.671  19.517  0.00  0.00    +0.000 C 
BRANCH  16  17
ATOM     17  C   UNL     1       2.339   5.355  19.371  0.00  0.00    +0.000 A 
ATOM     18  C   UNL     1       2.136   4.788  18.105  0.00  0.00    +0.000 A 
ATOM     19  C   UNL     1       1.356   3.640  17.958  0.00  0.00    +0.000 A 
ATOM     20  C   UNL     1       0.779   3.042  19.077  0.00  0.00    +0.000 A 
ATOM     21  C   UNL     1       1.008   3.572  20.345  0.00  0.00    +0.000 A 
ATOM     22  C   UNL     1       1.785   4.722  20.493  0.00  0.00    +0.000 A 
ENDBRANCH  16  17
ENDBRANCH  11  16
TORSDOF 4
ENDMDL
MODEL 8
REMARK VINA RESULT:      -7.2      4.970      8.295
REMARK  Name = 
REMARK  4 active torsions:
REMARK  status: ('A' for Active; 'I' for Inactive)
REMARK    1  A    between atoms: O_1  and  C_2
REMARK    2  A    between atoms: C_11  and  O_12
REMARK    3  A    between atoms: C_13  and  C_14
REMARK    4  A    between atoms: C_14  and  C_15
REMARK                            x       y       z     vdW  Elec       q    Type
REMARK                         _______ _______ _______ _____ _____    ______ ____
ROOT
ATOM      1  C   UNL     1       0.761   8.904  20.478  0.00  0.00    +0.000 A 
ATOM      2  N   UNL     1       1.373   7.727  20.676  0.00  0.00    +0.000 NA
ATOM      3  C   UNL     1       2.200   7.289  19.718  0.00  0.00    +0.000 A 
ATOM      4  C   UNL     1       2.825   6.065  19.914  0.00  0.00    +0.000 A 
ATOM      5  C   UNL     1       3.676   5.508  18.955  0.00  0.00    +0.000 A 
ATOM      6  C   UNL     1       3.916   6.198  17.779  0.00  0.00    +0.000 A 
ATOM      7 CL   UNL     1       4.935   5.515  16.573  0.00  0.00    +0.000 Cl
ATOM      8  C   UNL     1       3.324   7.442  17.563  0.00  0.00    +0.000 A 
ATOM      9  C   UNL     1       2.444   8.008  18.523  0.00  0.00    +0.000 A 
ATOM     10  C   UNL     1       1.767   9.242  18.383  0.00  0.00    +0.000 A 
ATOM     11  C   UNL     1       0.899   9.718  19.371  0.00  0.00    +0.000 A 
ENDROOT
BRANCH   1  12
ATOM     12  O   UNL     1      -0.077   9.225  21.499  0.00  0.00    +0.000 OA
ATOM     13  H   UNL     1       0.084   8.465  22.084  0.00  0.00    +0.000 HD
ENDBRANCH   1  12
BRANCH  10  14
ATOM     14  O   UNL     1       1.911  10.032  17.267  0.00  0.00    +0.000 OA
ATOM     15  H   UNL     1       1.048  10.290  16.914  0.00  0.00    +0.000 HD
ENDBRANCH  10  14
BRANCH  11  16
ATOM     16  C   UNL     1       0.181  11.040  19.256  0.00  0.00    +0.000 C 
BRANCH  16  17
ATOM     17  C   UNL     1      -1.229  10.907  18.721  0.00  0.00    +0.000 A 
ATOM     18  C   UNL     1      -1.523   9.992  17.701  0.00  0.00    +0.000 A 
ATOM     19  C   UNL     1      -2.793   9.956  17.123  0.00  0.00    +0.000 A 
ATOM     20  C   UNL     1      -3.785  10.828  17.568  0.00  0.00    +0.000 A 
ATOM     21  C   UNL     1      -3.517  11.713  18.610  0.00  0.00    +0.000 A 
ATOM     22  C   UNL     1      -2.246  11.753  19.186  0.00  0.00    +0.000 A 
ENDBRANCH  16  17
ENDBRANCH  11  16
TORSDOF 4
ENDMDL
MODEL 9
REMARK VINA RESULT:      -7.1      3.998      5.803
REMARK  Name = 
REMARK  4 active torsions:
REMARK  status: ('A' for Active; 'I' for Inactive)
REMARK    1  A    between atoms: O_1  and  C_2
REMARK    2  A    between atoms: C_11  and  O_12
REMARK    3  A    between atoms: C_13  and  C_14
REMARK    4  A    between atoms: C_14  and  C_15
REMARK                            x       y       z     vdW  Elec       q    Type
REMARK                         _______ _______ _______ _____ _____    ______ ____
ROOT
ATOM      1  C   UNL     1       2.136   6.730  20.113  0.00  0.00    +0.000 A 
ATOM      2  N   UNL     1       1.437   7.558  20.903  0.00  0.00    +0.000 NA
ATOM      3  C   UNL     1       1.102   8.755  20.404  0.00  0.00    +0.000 A 
ATOM      4  C   UNL     1       0.391   9.620  21.224  0.00  0.00    +0.000 A 
ATOM      5  C   UNL     1       0.028  10.904  20.806  0.00  0.00    +0.000 A 
ATOM      6  C   UNL     1       0.375  11.326  19.533  0.00  0.00    +0.000 A 
ATOM      7 CL   UNL     1      -0.034  12.913  19.012  0.00  0.00    +0.000 Cl
ATOM      8  C   UNL     1       1.067  10.471  18.677  0.00  0.00    +0.000 A 
ATOM      9  C   UNL     1       1.456   9.172  19.099  0.00  0.00    +0.000 A 
ATOM     10  C   UNL     1       2.189   8.245  18.321  0.00  0.00    +0.000 A 
ATOM     11  C   UNL     1       2.550   6.991  18.822  0.00  0.00    +0.000 A 
ENDROOT
BRANCH   1  12
ATOM     12  O   UNL     1       2.446   5.564  20.739  0.00  0.00    +0.000 OA
ATOM     13  H   UNL     1       3.253   5.327  20.249  0.00  0.00    +0.000 HD
ENDBRANCH   1  12
BRANCH  10  14
ATOM     14  O   UNL     1       2.601   8.531  17.040  0.00  0.00    +0.000 OA
ATOM     15  H   UNL     1       3.386   8.016  16.808  0.00  0.00    +0.000 HD
ENDBRANCH  10  14
BRANCH  11  16
ATOM     16  C   UNL     1       3.314   5.977  18.006  0.00  0.00    +0.000 C 
BRANCH  16  17
ATOM     17  C   UNL     1       4.815   6.098  18.160  0.00  0.00    +0.000 A 
ATOM     18  C   UNL     1       5.571   6.831  17.233  0.00  0.00    +0.000 A 
ATOM     19  C   UNL     1       6.965   6.840  17.304  0.00  0.00    +0.000 A 
ATOM     20  C   UNL     1       7.616   6.126  18.308  0.00  0.00    +0.000 A 
ATOM     21  C   UNL     1       6.874   5.429  19.259  0.00  0.00    +0.000 A 
ATOM     22  C   UNL     1       5.480   5.415  19.187  0.00  0.00    +0.000 A 
ENDBRANCH  16  17
ENDBRANCH  11  16
TORSDOF 4
ENDMDL
