MODEL 1
REMARK VINA RESULT:      -8.2      0.000      0.000
REMARK  Name = 
REMARK  7 active torsions:
REMARK  status: ('A' for Active; 'I' for Inactive)
REMARK    1  A    between atoms: C_1  and  C_2
REMARK    2  A    between atoms: C_5  and  N_6
REMARK    3  A    between atoms: C_7  and  C_8
REMARK    4  A    between atoms: C_11  and  S_12
REMARK    5  A    between atoms: S_12  and  C_13
REMARK    6  A    between atoms: C_13  and  C_14
REMARK    7  A    between atoms: N_16  and  C_17
REMARK                            x       y       z     vdW  Elec       q    Type
REMARK                         _______ _______ _______ _____ _____    ______ ____
ROOT
ATOM      1  N   UNL     1       5.593   4.854  16.293  0.00  0.00    +0.000 N 
ATOM      2  C   UNL     1       6.103   4.628  15.013  0.00  0.00    +0.000 A 
ATOM      3  C   UNL     1       5.484   3.849  13.911  0.00  0.00    +0.000 C 
ATOM      4  N   UNL     1       7.220   5.314  14.851  0.00  0.00    +0.000 NA
ATOM      5  N   UNL     1       7.496   5.978  16.004  0.00  0.00    +0.000 NA
ATOM      6  C   UNL     1       6.542   5.701  16.864  0.00  0.00    +0.000 A 
ENDROOT
BRANCH   1  11
ATOM      7  C   UNL     1       0.892   2.875  18.952  0.00  0.00    +0.000 C 
ATOM      8  C   UNL     1       2.077   3.367  18.176  0.00  0.00    +0.000 A 
ATOM      9  C   UNL     1       3.066   2.488  17.726  0.00  0.00    +0.000 A 
ATOM     10  C   UNL     1       4.220   2.970  17.094  0.00  0.00    +0.000 A 
ATOM     11  C   UNL     1       4.394   4.343  16.881  0.00  0.00    +0.000 A 
ATOM     12  C   UNL     1       3.372   5.215  17.285  0.00  0.00    +0.000 A 
ATOM     13  C   UNL     1       2.237   4.734  17.945  0.00  0.00    +0.000 A 
ENDBRANCH   1  11
BRANCH   6  14
ATOM     14  S   UNL     1       6.620   6.187  18.530  0.00  0.00    +0.000 S 
BRANCH  14  15
ATOM     15  C   UNL     1       8.281   6.905  18.631  0.00  0.00    +0.000 C 
BRANCH  15  16
ATOM     16  C   UNL     1       8.253   8.403  18.392  0.00  0.00    +0.000 C 
ATOM     17  O   UNL     1       7.469   8.895  17.581  0.00  0.00    +0.000 OA
ATOM     18  N   UNL     1       9.190   9.104  19.139  0.00  0.00    +0.000 N 
ATOM     19  H   UNL     1       9.962   8.553  19.525  0.00  0.00    +0.000 HD
BRANCH  18  20
ATOM     20  C   UNL     1       9.357  10.505  19.150  0.00  0.00    +0.000 A 
ATOM     21  C   UNL     1       9.699  11.242  18.011  0.00  0.00    +0.000 A 
ATOM     22  C   UNL     1       9.921  12.620  18.088  0.00  0.00    +0.000 A 
ATOM     23  C   UNL     1       9.810  13.272  19.317  0.00  0.00    +0.000 A 
ATOM     24  C   UNL     1       9.419  12.548  20.441  0.00  0.00    +0.000 A 
ATOM     25 BR   UNL     1       9.249  13.437  22.103  0.00  0.00    +0.000 Br
ATOM     26  C   UNL     1       9.177  11.176  20.364  0.00  0.00    +0.000 A 
ENDBRANCH  18  20
ENDBRANCH  15  16
ENDBRANCH  14  15
ENDBRANCH   6  14
TORSDOF 5
ENDMDL
MODEL 2
REMARK VINA RESULT:      -8.2      1.544      2.063
REMARK  Name = 
REMARK  7 active torsions:
REMARK  status: ('A' for Active; 'I' for Inactive)
REMARK    1  A    between atoms: C_1  and  C_2
REMARK    2  A    between atoms: C_5  and  N_6
REMARK    3  A    between atoms: C_7  and  C_8
REMARK    4  A    between atoms: C_11  and  S_12
REMARK    5  A    between atoms: S_12  and  C_13
REMARK    6  A    between atoms: C_13  and  C_14
REMARK    7  A    between atoms: N_16  and  C_17
REMARK                            x       y       z     vdW  Elec       q    Type
REMARK                         _______ _______ _______ _____ _____    ______ ____
ROOT
ATOM      1  N   UNL     1       5.739   4.899  15.959  0.00  0.00    +0.000 N 
ATOM      2  C   UNL     1       6.034   4.521  14.648  0.00  0.00    +0.000 A 
ATOM      3  C   UNL     1       5.206   3.699  13.729  0.00  0.00    +0.000 C 
ATOM      4  N   UNL     1       7.155   5.102  14.259  0.00  0.00    +0.000 NA
ATOM      5  N   UNL     1       7.643   5.842  15.289  0.00  0.00    +0.000 NA
ATOM      6  C   UNL     1       6.816   5.716  16.301  0.00  0.00    +0.000 A 
ENDROOT
BRANCH   1  11
ATOM      7  C   UNL     1       1.052   3.355  18.916  0.00  0.00    +0.000 C 
ATOM      8  C   UNL     1       2.315   3.780  18.227  0.00  0.00    +0.000 A 
ATOM      9  C   UNL     1       2.574   5.126  17.952  0.00  0.00    +0.000 A 
ATOM     10  C   UNL     1       3.706   5.502  17.217  0.00  0.00    +0.000 A 
ATOM     11  C   UNL     1       4.613   4.536  16.763  0.00  0.00    +0.000 A 
ATOM     12  C   UNL     1       4.376   3.192  17.090  0.00  0.00    +0.000 A 
ATOM     13  C   UNL     1       3.228   2.818  17.796  0.00  0.00    +0.000 A 
ENDBRANCH   1  11
BRANCH   6  14
ATOM     14  S   UNL     1       7.176   6.339  17.882  0.00  0.00    +0.000 S 
BRANCH  14  15
ATOM     15  C   UNL     1       7.265   8.122  17.568  0.00  0.00    +0.000 C 
BRANCH  15  16
ATOM     16  C   UNL     1       8.387   8.768  18.359  0.00  0.00    +0.000 C 
ATOM     17  O   UNL     1       9.003   8.131  19.212  0.00  0.00    +0.000 OA
ATOM     18  N   UNL     1       8.598  10.102  18.038  0.00  0.00    +0.000 N 
ATOM     19  H   UNL     1       7.832  10.575  17.551  0.00  0.00    +0.000 HD
BRANCH  18  20
ATOM     20  C   UNL     1       9.599  10.935  18.582  0.00  0.00    +0.000 A 
ATOM     21  C   UNL     1       9.839  11.043  19.956  0.00  0.00    +0.000 A 
ATOM     22  C   UNL     1      10.796  11.934  20.449  0.00  0.00    +0.000 A 
ATOM     23  C   UNL     1      11.519  12.735  19.563  0.00  0.00    +0.000 A 
ATOM     24  C   UNL     1      11.318  12.591  18.193  0.00  0.00    +0.000 A 
ATOM     25 BR   UNL     1      12.312  13.662  16.991  0.00  0.00    +0.000 Br
ATOM     26  C   UNL     1      10.377  11.688  17.695  0.00  0.00    +0.000 A 
ENDBRANCH  18  20
ENDBRANCH  15  16
ENDBRANCH  14  15
ENDBRANCH   6  14
TORSDOF 5
ENDMDL
MODEL 3
REMARK VINA RESULT:      -7.8      7.815     10.188
REMARK  Name = 
REMARK  7 active torsions:
REMARK  status: ('A' for Active; 'I' for Inactive)
REMARK    1  A    between atoms: C_1  and  C_2
REMARK    2  A    between atoms: C_5  and  N_6
REMARK    3  A    between atoms: C_7  and  C_8
REMARK    4  A    between atoms: C_11  and  S_12
REMARK    5  A    between atoms: S_12  and  C_13
REMARK    6  A    between atoms: C_13  and  C_14
REMARK    7  A    between atoms: N_16  and  C_17
REMARK                            x       y       z     vdW  Elec       q    Type
REMARK                         _______ _______ _______ _____ _____    ______ ____
ROOT
ATOM      1  N   UNL     1      -0.545  12.579  20.953  0.00  0.00    +0.000 N 
ATOM      2  C   UNL     1       0.118  13.806  21.031  0.00  0.00    +0.000 A 
ATOM      3  C   UNL     1       0.441  14.737  19.920  0.00  0.00    +0.000 C 
ATOM      4  N   UNL     1       0.345  14.110  22.296  0.00  0.00    +0.000 NA
ATOM      5  N   UNL     1      -0.121  13.101  23.078  0.00  0.00    +0.000 NA
ATOM      6  C   UNL     1      -0.640  12.189  22.288  0.00  0.00    +0.000 A 
ENDROOT
BRANCH   1  11
ATOM      7  C   UNL     1      -2.597   9.599  16.481  0.00  0.00    +0.000 C 
ATOM      8  C   UNL     1      -2.014  10.430  17.586  0.00  0.00    +0.000 A 
ATOM      9  C   UNL     1      -0.728  10.186  18.076  0.00  0.00    +0.000 A 
ATOM     10  C   UNL     1      -0.234  10.900  19.176  0.00  0.00    +0.000 A 
ATOM     11  C   UNL     1      -1.012  11.887  19.792  0.00  0.00    +0.000 A 
ATOM     12  C   UNL     1      -2.280  12.165  19.261  0.00  0.00    +0.000 A 
ATOM     13  C   UNL     1      -2.783  11.429  18.183  0.00  0.00    +0.000 A 
ENDBRANCH   1  11
BRANCH   6  14
ATOM     14  S   UNL     1      -1.166  10.640  22.874  0.00  0.00    +0.000 S 
BRANCH  14  15
ATOM     15  C   UNL     1       0.381   9.695  22.870  0.00  0.00    +0.000 C 
BRANCH  15  16
ATOM     16  C   UNL     1       0.343   8.575  21.848  0.00  0.00    +0.000 C 
ATOM     17  O   UNL     1      -0.726   8.069  21.509  0.00  0.00    +0.000 OA
ATOM     18  N   UNL     1       1.597   8.194  21.392  0.00  0.00    +0.000 N 
ATOM     19  H   UNL     1       2.393   8.476  21.972  0.00  0.00    +0.000 HD
BRANCH  18  20
ATOM     20  C   UNL     1       1.858   7.213  20.412  0.00  0.00    +0.000 A 
ATOM     21  C   UNL     1       2.308   7.522  19.124  0.00  0.00    +0.000 A 
ATOM     22  C   UNL     1       2.485   6.519  18.166  0.00  0.00    +0.000 A 
ATOM     23  C   UNL     1       2.204   5.191  18.493  0.00  0.00    +0.000 A 
ATOM     24  C   UNL     1       1.807   4.877  19.790  0.00  0.00    +0.000 A 
ATOM     25 BR   UNL     1       1.445   3.074  20.238  0.00  0.00    +0.000 Br
ATOM     26  C   UNL     1       1.648   5.873  20.754  0.00  0.00    +0.000 A 
ENDBRANCH  18  20
ENDBRANCH  15  16
ENDBRANCH  14  15
ENDBRANCH   6  14
TORSDOF 5
ENDMDL
MODEL 4
REMARK VINA RESULT:      -7.7      5.005      7.170
REMARK  Name = 
REMARK  7 active torsions:
REMARK  status: ('A' for Active; 'I' for Inactive)
REMARK    1  A    between atoms: C_1  and  C_2
REMARK    2  A    between atoms: C_5  and  N_6
REMARK    3  A    between atoms: C_7  and  C_8
REMARK    4  A    between atoms: C_11  and  S_12
REMARK    5  A    between atoms: S_12  and  C_13
REMARK    6  A    between atoms: C_13  and  C_14
REMARK    7  A    between atoms: N_16  and  C_17
REMARK                            x       y       z     vdW  Elec       q    Type
REMARK                         _______ _______ _______ _____ _____    ______ ____
ROOT
ATOM      1  N   UNL     1       3.242   4.709  18.722  0.00  0.00    +0.000 N 
ATOM      2  C   UNL     1       2.516   3.543  18.472  0.00  0.00    +0.000 A 
ATOM      3  C   UNL     1       1.055   3.414  18.237  0.00  0.00    +0.000 C 
ATOM      4  N   UNL     1       3.342   2.519  18.357  0.00  0.00    +0.000 NA
ATOM      5  N   UNL     1       4.612   2.959  18.554  0.00  0.00    +0.000 NA
ATOM      6  C   UNL     1       4.558   4.252  18.781  0.00  0.00    +0.000 A 
ENDROOT
BRANCH   1  11
ATOM      7  C   UNL     1       1.000   9.970  19.341  0.00  0.00    +0.000 C 
ATOM      8  C   UNL     1       1.671   8.637  19.190  0.00  0.00    +0.000 A 
ATOM      9  C   UNL     1       2.206   8.229  17.964  0.00  0.00    +0.000 A 
ATOM     10  C   UNL     1       2.737   6.941  17.808  0.00  0.00    +0.000 A 
ATOM     11  C   UNL     1       2.761   6.046  18.884  0.00  0.00    +0.000 A 
ATOM     12  C   UNL     1       2.273   6.481  20.125  0.00  0.00    +0.000 A 
ATOM     13  C   UNL     1       1.714   7.755  20.270  0.00  0.00    +0.000 A 
ENDBRANCH   1  11
BRANCH   6  14
ATOM     14  S   UNL     1       5.946   5.168  19.284  0.00  0.00    +0.000 S 
BRANCH  14  15
ATOM     15  C   UNL     1       6.246   6.215  17.835  0.00  0.00    +0.000 C 
BRANCH  15  16
ATOM     16  C   UNL     1       6.788   5.407  16.671  0.00  0.00    +0.000 C 
ATOM     17  O   UNL     1       7.733   4.636  16.828  0.00  0.00    +0.000 OA
ATOM     18  N   UNL     1       6.138   5.657  15.470  0.00  0.00    +0.000 N 
ATOM     19  H   UNL     1       5.595   6.523  15.423  0.00  0.00    +0.000 HD
BRANCH  18  20
ATOM     20  C   UNL     1       6.402   5.019  14.240  0.00  0.00    +0.000 A 
ATOM     21  C   UNL     1       7.657   5.041  13.622  0.00  0.00    +0.000 A 
ATOM     22  C   UNL     1       7.850   4.453  12.369  0.00  0.00    +0.000 A 
ATOM     23  C   UNL     1       6.778   3.840  11.718  0.00  0.00    +0.000 A 
ATOM     24  C   UNL     1       5.542   3.771  12.355  0.00  0.00    +0.000 A 
ATOM     25 BR   UNL     1       4.094   2.923  11.481  0.00  0.00    +0.000 Br
ATOM     26  C   UNL     1       5.350   4.340  13.615  0.00  0.00    +0.000 A 
ENDBRANCH  18  20
ENDBRANCH  15  16
ENDBRANCH  14  15
ENDBRANCH   6  14
TORSDOF 5
ENDMDL
MODEL 5
REMARK VINA RESULT:      -7.7      1.106      1.524
REMARK  Name = 
REMARK  7 active torsions:
REMARK  status: ('A' for Active; 'I' for Inactive)
REMARK    1  A    between atoms: C_1  and  C_2
REMARK    2  A    between atoms: C_5  and  N_6
REMARK    3  A    between atoms: C_7  and  C_8
REMARK    4  A    between atoms: C_11  and  S_12
REMARK    5  A    between atoms: S_12  and  C_13
REMARK    6  A    between atoms: C_13  and  C_14
REMARK    7  A    between atoms: N_16  and  C_17
REMARK                            x       y       z     vdW  Elec       q    Type
REMARK                         _______ _______ _______ _____ _____    ______ ____
ROOT
ATOM      1  N   UNL     1       5.768   5.093  16.186  0.00  0.00    +0.000 N 
ATOM      2  C   UNL     1       5.986   4.610  14.895  0.00  0.00    +0.000 A 
ATOM      3  C   UNL     1       5.082   3.762  14.076  0.00  0.00    +0.000 C 
ATOM      4  N   UNL     1       7.111   5.109  14.416  0.00  0.00    +0.000 NA
ATOM      5  N   UNL     1       7.678   5.898  15.366  0.00  0.00    +0.000 NA
ATOM      6  C   UNL     1       6.893   5.884  16.420  0.00  0.00    +0.000 A 
ENDROOT
BRANCH   1  11
ATOM      7  C   UNL     1       1.173   3.952  19.454  0.00  0.00    +0.000 C 
ATOM      8  C   UNL     1       2.414   4.285  18.679  0.00  0.00    +0.000 A 
ATOM      9  C   UNL     1       2.644   5.577  18.198  0.00  0.00    +0.000 A 
ATOM     10  C   UNL     1       3.754   5.852  17.387  0.00  0.00    +0.000 A 
ATOM     11  C   UNL     1       4.666   4.841  17.062  0.00  0.00    +0.000 A 
ATOM     12  C   UNL     1       4.459   3.560  17.594  0.00  0.00    +0.000 A 
ATOM     13  C   UNL     1       3.333   3.281  18.375  0.00  0.00    +0.000 A 
ENDBRANCH   1  11
BRANCH   6  14
ATOM     14  S   UNL     1       7.353   6.601  17.933  0.00  0.00    +0.000 S 
BRANCH  14  15
ATOM     15  C   UNL     1       7.374   8.365  17.518  0.00  0.00    +0.000 C 
BRANCH  15  16
ATOM     16  C   UNL     1       8.434   9.108  18.310  0.00  0.00    +0.000 C 
ATOM     17  O   UNL     1       8.983   8.579  19.275  0.00  0.00    +0.000 OA
ATOM     18  N   UNL     1       8.669  10.397  17.853  0.00  0.00    +0.000 N 
ATOM     19  H   UNL     1       7.942  10.805  17.258  0.00  0.00    +0.000 HD
BRANCH  18  20
ATOM     20  C   UNL     1       9.627  11.296  18.370  0.00  0.00    +0.000 A 
ATOM     21  C   UNL     1      10.910  11.437  17.832  0.00  0.00    +0.000 A 
ATOM     22  C   UNL     1      11.846  12.290  18.422  0.00  0.00    +0.000 A 
ATOM     23  C   UNL     1      11.503  13.007  19.570  0.00  0.00    +0.000 A 
ATOM     24  C   UNL     1      10.210  12.907  20.076  0.00  0.00    +0.000 A 
ATOM     25 BR   UNL     1       9.739  13.895  21.620  0.00  0.00    +0.000 Br
ATOM     26  C   UNL     1       9.266  12.072  19.477  0.00  0.00    +0.000 A 
ENDBRANCH  18  20
ENDBRANCH  15  16
ENDBRANCH  14  15
ENDBRANCH   6  14
TORSDOF 5
ENDMDL
MODEL 6
REMARK VINA RESULT:      -7.6      5.937      8.249
REMARK  Name = 
REMARK  7 active torsions:
REMARK  status: ('A' for Active; 'I' for Inactive)
REMARK    1  A    between atoms: C_1  and  C_2
REMARK    2  A    between atoms: C_5  and  N_6
REMARK    3  A    between atoms: C_7  and  C_8
REMARK    4  A    between atoms: C_11  and  S_12
REMARK    5  A    between atoms: S_12  and  C_13
REMARK    6  A    between atoms: C_13  and  C_14
REMARK    7  A    between atoms: N_16  and  C_17
REMARK                            x       y       z     vdW  Elec       q    Type
REMARK                         _______ _______ _______ _____ _____    ______ ____
ROOT
ATOM      1  N   UNL     1       3.095   4.635  19.435  0.00  0.00    +0.000 N 
ATOM      2  C   UNL     1       2.590   3.580  20.197  0.00  0.00    +0.000 A 
ATOM      3  C   UNL     1       3.032   2.162  20.194  0.00  0.00    +0.000 C 
ATOM      4  N   UNL     1       1.689   4.037  21.048  0.00  0.00    +0.000 NA
ATOM      5  N   UNL     1       1.549   5.375  20.859  0.00  0.00    +0.000 NA
ATOM      6  C   UNL     1       2.371   5.733  19.899  0.00  0.00    +0.000 A 
ENDROOT
BRANCH   1  11
ATOM      7  C   UNL     1       7.101   4.829  15.311  0.00  0.00    +0.000 C 
ATOM      8  C   UNL     1       6.077   4.687  16.397  0.00  0.00    +0.000 A 
ATOM      9  C   UNL     1       4.802   4.179  16.130  0.00  0.00    +0.000 A 
ATOM     10  C   UNL     1       3.820   4.148  17.130  0.00  0.00    +0.000 A 
ATOM     11  C   UNL     1       4.105   4.604  18.422  0.00  0.00    +0.000 A 
ATOM     12  C   UNL     1       5.402   5.061  18.698  0.00  0.00    +0.000 A 
ATOM     13  C   UNL     1       6.370   5.122  17.690  0.00  0.00    +0.000 A 
ENDBRANCH   1  11
BRANCH   6  14
ATOM     14  S   UNL     1       2.359   7.327  19.208  0.00  0.00    +0.000 S 
BRANCH  14  15
ATOM     15  C   UNL     1       1.856   8.342  20.623  0.00  0.00    +0.000 C 
BRANCH  15  16
ATOM     16  C   UNL     1       0.488   8.961  20.401  0.00  0.00    +0.000 C 
ATOM     17  O   UNL     1      -0.407   8.822  21.234  0.00  0.00    +0.000 OA
ATOM     18  N   UNL     1       0.373   9.640  19.197  0.00  0.00    +0.000 N 
ATOM     19  H   UNL     1       1.074   9.418  18.485  0.00  0.00    +0.000 HD
BRANCH  18  20
ATOM     20  C   UNL     1      -0.765  10.346  18.751  0.00  0.00    +0.000 A 
ATOM     21  C   UNL     1      -1.415  11.313  19.525  0.00  0.00    +0.000 A 
ATOM     22  C   UNL     1      -2.580  11.934  19.067  0.00  0.00    +0.000 A 
ATOM     23  C   UNL     1      -3.109  11.584  17.824  0.00  0.00    +0.000 A 
ATOM     24  C   UNL     1      -2.434  10.661  17.030  0.00  0.00    +0.000 A 
ATOM     25 BR   UNL     1      -3.142  10.200  15.336  0.00  0.00    +0.000 Br
ATOM     26  C   UNL     1      -1.260  10.052  17.476  0.00  0.00    +0.000 A 
ENDBRANCH  18  20
ENDBRANCH  15  16
ENDBRANCH  14  15
ENDBRANCH   6  14
TORSDOF 5
ENDMDL
MODEL 7
REMARK VINA RESULT:      -7.5      5.902      8.146
REMARK  Name = 
REMARK  7 active torsions:
REMARK  status: ('A' for Active; 'I' for Inactive)
REMARK    1  A    between atoms: C_1  and  C_2
REMARK    2  A    between atoms: C_5  and  N_6
REMARK    3  A    between atoms: C_7  and  C_8
REMARK    4  A    between atoms: C_11  and  S_12
REMARK    5  A    between atoms: S_12  and  C_13
REMARK    6  A    between atoms: C_13  and  C_14
REMARK    7  A    between atoms: N_16  and  C_17
REMARK                            x       y       z     vdW  Elec       q    Type
REMARK                         _______ _______ _______ _____ _____    ______ ____
ROOT
ATOM      1  N   UNL     1       3.507   4.584  19.546  0.00  0.00    +0.000 N 
ATOM      2  C   UNL     1       3.240   3.450  20.314  0.00  0.00    +0.000 A 
ATOM      3  C   UNL     1       3.897   2.120  20.234  0.00  0.00    +0.000 C 
ATOM      4  N   UNL     1       2.353   3.743  21.248  0.00  0.00    +0.000 NA
ATOM      5  N   UNL     1       1.989   5.045  21.111  0.00  0.00    +0.000 NA
ATOM      6  C   UNL     1       2.661   5.545  20.099  0.00  0.00    +0.000 A 
ENDROOT
BRANCH   1  11
ATOM      7  C   UNL     1       7.219   4.850  15.160  0.00  0.00    +0.000 C 
ATOM      8  C   UNL     1       6.244   4.875  16.299  0.00  0.00    +0.000 A 
ATOM      9  C   UNL     1       6.658   5.164  17.602  0.00  0.00    +0.000 A 
ATOM     10  C   UNL     1       5.758   5.082  18.674  0.00  0.00    +0.000 A 
ATOM     11  C   UNL     1       4.421   4.731  18.455  0.00  0.00    +0.000 A 
ATOM     12  C   UNL     1       3.999   4.498  17.138  0.00  0.00    +0.000 A 
ATOM     13  C   UNL     1       4.906   4.547  16.075  0.00  0.00    +0.000 A 
ENDBRANCH   1  11
BRANCH   6  14
ATOM     14  S   UNL     1       2.341   7.128  19.459  0.00  0.00    +0.000 S 
BRANCH  14  15
ATOM     15  C   UNL     1       1.775   8.018  20.933  0.00  0.00    +0.000 C 
BRANCH  15  16
ATOM     16  C   UNL     1       0.456   8.725  20.680  0.00  0.00    +0.000 C 
ATOM     17  O   UNL     1      -0.509   8.537  21.420  0.00  0.00    +0.000 OA
ATOM     18  N   UNL     1       0.467   9.540  19.557  0.00  0.00    +0.000 N 
ATOM     19  H   UNL     1       1.215   9.365  18.880  0.00  0.00    +0.000 HD
BRANCH  18  20
ATOM     20  C   UNL     1      -0.601  10.346  19.110  0.00  0.00    +0.000 A 
ATOM     21  C   UNL     1      -1.161  11.369  19.884  0.00  0.00    +0.000 A 
ATOM     22  C   UNL     1      -2.264  12.094  19.424  0.00  0.00    +0.000 A 
ATOM     23  C   UNL     1      -2.822  11.793  18.180  0.00  0.00    +0.000 A 
ATOM     24  C   UNL     1      -2.233  10.812  17.388  0.00  0.00    +0.000 A 
ATOM     25 BR   UNL     1      -2.977  10.418  15.693  0.00  0.00    +0.000 Br
ATOM     26  C   UNL     1      -1.119  10.099  17.834  0.00  0.00    +0.000 A 
ENDBRANCH  18  20
ENDBRANCH  15  16
ENDBRANCH  14  15
ENDBRANCH   6  14
TORSDOF 5
ENDMDL
MODEL 8
REMARK VINA RESULT:      -7.5      1.889      2.160
REMARK  Name = 
REMARK  7 active torsions:
REMARK  status: ('A' for Active; 'I' for Inactive)
REMARK    1  A    between atoms: C_1  and  C_2
REMARK    2  A    between atoms: C_5  and  N_6
REMARK    3  A    between atoms: C_7  and  C_8
REMARK    4  A    between atoms: C_11  and  S_12
REMARK    5  A    between atoms: S_12  and  C_13
REMARK    6  A    between atoms: C_13  and  C_14
REMARK    7  A    between atoms: N_16  and  C_17
REMARK                            x       y       z     vdW  Elec       q    Type
REMARK                         _______ _______ _______ _____ _____    ______ ____
ROOT
ATOM      1  N   UNL     1       5.942   5.311  16.649  0.00  0.00    +0.000 N 
ATOM      2  C   UNL     1       6.115   4.686  15.413  0.00  0.00    +0.000 A 
ATOM      3  C   UNL     1       5.178   3.767  14.718  0.00  0.00    +0.000 C 
ATOM      4  N   UNL     1       7.231   5.113  14.850  0.00  0.00    +0.000 NA
ATOM      5  N   UNL     1       7.835   5.993  15.691  0.00  0.00    +0.000 NA
ATOM      6  C   UNL     1       7.083   6.106  16.761  0.00  0.00    +0.000 A 
ENDROOT
BRANCH   1  11
ATOM      7  C   UNL     1       1.740   4.993  20.565  0.00  0.00    +0.000 C 
ATOM      8  C   UNL     1       2.792   5.007  19.496  0.00  0.00    +0.000 A 
ATOM      9  C   UNL     1       3.843   4.084  19.499  0.00  0.00    +0.000 A 
ATOM     10  C   UNL     1       4.876   4.171  18.557  0.00  0.00    +0.000 A 
ATOM     11  C   UNL     1       4.864   5.173  17.579  0.00  0.00    +0.000 A 
ATOM     12  C   UNL     1       3.779   6.061  17.546  0.00  0.00    +0.000 A 
ATOM     13  C   UNL     1       2.766   5.992  18.508  0.00  0.00    +0.000 A 
ENDBRANCH   1  11
BRANCH   6  14
ATOM     14  S   UNL     1       7.595   6.979  18.173  0.00  0.00    +0.000 S 
BRANCH  14  15
ATOM     15  C   UNL     1       7.684   8.678  17.549  0.00  0.00    +0.000 C 
BRANCH  15  16
ATOM     16  C   UNL     1       8.613   9.530  18.393  0.00  0.00    +0.000 C 
ATOM     17  O   UNL     1       9.257   9.033  19.316  0.00  0.00    +0.000 OA
ATOM     18  N   UNL     1       8.622  10.870  18.031  0.00  0.00    +0.000 N 
ATOM     19  H   UNL     1       7.829  11.190  17.468  0.00  0.00    +0.000 HD
BRANCH  18  20
ATOM     20  C   UNL     1       9.420  11.878  18.612  0.00  0.00    +0.000 A 
ATOM     21  C   UNL     1       9.308  12.264  19.952  0.00  0.00    +0.000 A 
ATOM     22  C   UNL     1      10.073  13.316  20.462  0.00  0.00    +0.000 A 
ATOM     23  C   UNL     1      10.958  13.998  19.626  0.00  0.00    +0.000 A 
ATOM     24  C   UNL     1      11.109  13.581  18.306  0.00  0.00    +0.000 A 
ATOM     25 BR   UNL     1      12.324  14.494  17.178  0.00  0.00    +0.000 Br
ATOM     26  C   UNL     1      10.361  12.519  17.798  0.00  0.00    +0.000 A 
ENDBRANCH  18  20
ENDBRANCH  15  16
ENDBRANCH  14  15
ENDBRANCH   6  14
TORSDOF 5
ENDMDL
MODEL 9
REMARK VINA RESULT:      -7.4      7.398      9.908
REMARK  Name = 
REMARK  7 active torsions:
REMARK  status: ('A' for Active; 'I' for Inactive)
REMARK    1  A    between atoms: C_1  and  C_2
REMARK    2  A    between atoms: C_5  and  N_6
REMARK    3  A    between atoms: C_7  and  C_8
REMARK    4  A    between atoms: C_11  and  S_12
REMARK    5  A    between atoms: S_12  and  C_13
REMARK    6  A    between atoms: C_13  and  C_14
REMARK    7  A    between atoms: N_16  and  C_17
REMARK                            x       y       z     vdW  Elec       q    Type
REMARK                         _______ _______ _______ _____ _____    ______ ____
ROOT
ATOM      1  N   UNL     1      -0.600  11.850  20.064  0.00  0.00    +0.000 N 
ATOM      2  C   UNL     1      -0.007  13.108  20.189  0.00  0.00    +0.000 A 
ATOM      3  C   UNL     1      -0.104  14.257  19.254  0.00  0.00    +0.000 C 
ATOM      4  N   UNL     1       0.603  13.198  21.357  0.00  0.00    +0.000 NA
ATOM      5  N   UNL     1       0.463  12.018  22.015  0.00  0.00    +0.000 NA
ATOM      6  C   UNL     1      -0.239  11.213  21.251  0.00  0.00    +0.000 A 
ENDROOT
BRANCH   1  11
ATOM      7  C   UNL     1      -3.586   9.970  15.521  0.00  0.00    +0.000 C 
ATOM      8  C   UNL     1      -2.859  10.402  16.759  0.00  0.00    +0.000 A 
ATOM      9  C   UNL     1      -3.397  11.365  17.618  0.00  0.00    +0.000 A 
ATOM     10  C   UNL     1      -2.663  11.837  18.715  0.00  0.00    +0.000 A 
ATOM     11  C   UNL     1      -1.384  11.334  18.985  0.00  0.00    +0.000 A 
ATOM     12  C   UNL     1      -0.873  10.328  18.152  0.00  0.00    +0.000 A 
ATOM     13  C   UNL     1      -1.594   9.883  17.039  0.00  0.00    +0.000 A 
ENDBRANCH   1  11
BRANCH   6  14
ATOM     14  S   UNL     1      -0.473   9.534  21.632  0.00  0.00    +0.000 S 
BRANCH  14  15
ATOM     15  C   UNL     1       1.234   8.945  21.782  0.00  0.00    +0.000 C 
BRANCH  15  16
ATOM     16  C   UNL     1       1.636   8.101  20.586  0.00  0.00    +0.000 C 
ATOM     17  O   UNL     1       1.664   8.586  19.456  0.00  0.00    +0.000 OA
ATOM     18  N   UNL     1       1.923   6.782  20.908  0.00  0.00    +0.000 N 
ATOM     19  H   UNL     1       1.567   6.449  21.808  0.00  0.00    +0.000 HD
BRANCH  18  20
ATOM     20  C   UNL     1       2.363   5.789  20.007  0.00  0.00    +0.000 A 
ATOM     21  C   UNL     1       3.510   5.927  19.219  0.00  0.00    +0.000 A 
ATOM     22  C   UNL     1       3.866   4.945  18.290  0.00  0.00    +0.000 A 
ATOM     23  C   UNL     1       3.065   3.812  18.139  0.00  0.00    +0.000 A 
ATOM     24  C   UNL     1       1.952   3.648  18.959  0.00  0.00    +0.000 A 
ATOM     25 BR   UNL     1       0.877   2.102  18.767  0.00  0.00    +0.000 Br
ATOM     26  C   UNL     1       1.604   4.617  19.901  0.00  0.00    +0.000 A 
ENDBRANCH  18  20
ENDBRANCH  15  16
ENDBRANCH  14  15
ENDBRANCH   6  14
TORSDOF 5
ENDMDL
