MODEL 1
REMARK VINA RESULT:      -7.1      0.000      0.000
REMARK  Name = 
REMARK  6 active torsions:
REMARK  status: ('A' for Active; 'I' for Inactive)
REMARK    1  A    between atoms: C_1  and  C_2
REMARK    2  A    between atoms: C_5  and  C_6
REMARK    3  A    between atoms: C_6  and  O_8
REMARK    4  A    between atoms: O_8  and  C_9
REMARK    5  A    between atoms: C_9  and  C_10
REMARK    6  A    between atoms: C_10  and  C_12
REMARK                            x       y       z     vdW  Elec       q    Type
REMARK                         _______ _______ _______ _____ _____    ______ ____
ROOT
ATOM      1  C   UNL     1       5.477   7.129  16.859  0.00  0.00    +0.000 C 
ATOM      2  O   UNL     1       5.385   7.397  15.657  0.00  0.00    +0.000 OA
ENDROOT
BRANCH   1   3
ATOM      3  C   UNL     1       4.308   6.642  17.606  0.00  0.00    +0.000 A 
ATOM      4  C   UNL     1       3.219   7.450  17.859  0.00  0.00    +0.000 A 
ATOM      5  S   UNL     1       1.997   6.577  18.646  0.00  0.00    +0.000 S 
ATOM      6  C   UNL     1       2.999   5.157  18.666  0.00  0.00    +0.000 A 
ATOM      7  N   UNL     1       2.581   3.995  19.249  0.00  0.00    +0.000 N 
ATOM      8  C   UNL     1       1.174   3.614  19.344  0.00  0.00    +0.000 C 
ATOM      9  C   UNL     1       0.821   3.334  20.803  0.00  0.00    +0.000 C 
ATOM     10  C   UNL     1       1.764   2.294  21.406  0.00  0.00    +0.000 C 
ATOM     11  C   UNL     1       3.230   2.684  21.195  0.00  0.00    +0.000 C 
ATOM     12  C   UNL     1       3.537   3.003  19.725  0.00  0.00    +0.000 C 
ATOM     13  N   UNL     1       4.187   5.346  18.119  0.00  0.00    +0.000 NA
ENDBRANCH   1   3
BRANCH   1  14
ATOM     14  C   UNL     1       6.802   7.292  17.594  0.00  0.00    +0.000 C 
BRANCH  14  15
ATOM     15  O   UNL     1       7.848   6.487  17.023  0.00  0.00    +0.000 OA
BRANCH  15  16
ATOM     16  C   UNL     1       7.557   5.160  16.993  0.00  0.00    +0.000 C 
ATOM     17  O   UNL     1       7.659   4.403  17.952  0.00  0.00    +0.000 OA
BRANCH  16  22
ATOM     18  C   UNL     1       5.667   3.228  11.994  0.00  0.00    +0.000 C 
ATOM     19  C   UNL     1       6.180   3.749  13.300  0.00  0.00    +0.000 A 
ATOM     20  C   UNL     1       7.230   4.664  13.362  0.00  0.00    +0.000 A 
ATOM     21  N   UNL     1       7.723   5.152  14.530  0.00  0.00    +0.000 NA
ATOM     22  C   UNL     1       7.111   4.694  15.653  0.00  0.00    +0.000 A 
ATOM     23  C   UNL     1       6.064   3.784  15.596  0.00  0.00    +0.000 A 
ATOM     24  N   UNL     1       5.580   3.292  14.428  0.00  0.00    +0.000 NA
ENDBRANCH  16  22
ENDBRANCH  15  16
ENDBRANCH  14  15
ENDBRANCH   1  14
TORSDOF 5
ENDMDL
MODEL 2
REMARK VINA RESULT:      -7.1      2.383      3.920
REMARK  Name = 
REMARK  6 active torsions:
REMARK  status: ('A' for Active; 'I' for Inactive)
REMARK    1  A    between atoms: C_1  and  C_2
REMARK    2  A    between atoms: C_5  and  C_6
REMARK    3  A    between atoms: C_6  and  O_8
REMARK    4  A    between atoms: O_8  and  C_9
REMARK    5  A    between atoms: C_9  and  C_10
REMARK    6  A    between atoms: C_10  and  C_12
REMARK                            x       y       z     vdW  Elec       q    Type
REMARK                         _______ _______ _______ _____ _____    ______ ____
ROOT
ATOM      1  C   UNL     1       4.687   4.478  18.988  0.00  0.00    +0.000 C 
ATOM      2  O   UNL     1       4.492   3.398  18.421  0.00  0.00    +0.000 OA
ENDROOT
BRANCH   1   3
ATOM      3  C   UNL     1       3.556   5.277  19.479  0.00  0.00    +0.000 A 
ATOM      4  C   UNL     1       2.666   4.783  20.410  0.00  0.00    +0.000 A 
ATOM      5  S   UNL     1       1.539   5.971  20.849  0.00  0.00    +0.000 S 
ATOM      6  C   UNL     1       2.256   7.090  19.730  0.00  0.00    +0.000 A 
ATOM      7  N   UNL     1       1.747   8.345  19.550  0.00  0.00    +0.000 N 
ATOM      8  C   UNL     1       1.036   9.074  20.597  0.00  0.00    +0.000 C 
ATOM      9  C   UNL     1      -0.336   9.498  20.079  0.00  0.00    +0.000 C 
ATOM     10  C   UNL     1      -0.210  10.291  18.780  0.00  0.00    +0.000 C 
ATOM     11  C   UNL     1       0.628   9.535  17.744  0.00  0.00    +0.000 C 
ATOM     12  C   UNL     1       1.980   9.083  18.314  0.00  0.00    +0.000 C 
ATOM     13  N   UNL     1       3.276   6.583  19.061  0.00  0.00    +0.000 NA
ENDBRANCH   1   3
BRANCH   1  14
ATOM     14  C   UNL     1       6.103   5.003  19.195  0.00  0.00    +0.000 C 
BRANCH  14  15
ATOM     15  O   UNL     1       6.910   4.886  18.010  0.00  0.00    +0.000 OA
BRANCH  15  16
ATOM     16  C   UNL     1       6.583   5.779  17.040  0.00  0.00    +0.000 C 
ATOM     17  O   UNL     1       6.345   6.965  17.238  0.00  0.00    +0.000 OA
BRANCH  16  22
ATOM     18  C   UNL     1       6.104   3.350  11.925  0.00  0.00    +0.000 C 
ATOM     19  C   UNL     1       6.251   3.996  13.266  0.00  0.00    +0.000 A 
ATOM     20  C   UNL     1       7.395   4.714  13.613  0.00  0.00    +0.000 A 
ATOM     21  N   UNL     1       7.563   5.308  14.823  0.00  0.00    +0.000 NA
ATOM     22  C   UNL     1       6.522   5.168  15.685  0.00  0.00    +0.000 A 
ATOM     23  C   UNL     1       5.380   4.456  15.344  0.00  0.00    +0.000 A 
ATOM     24  N   UNL     1       5.220   3.856  14.138  0.00  0.00    +0.000 NA
ENDBRANCH  16  22
ENDBRANCH  15  16
ENDBRANCH  14  15
ENDBRANCH   1  14
TORSDOF 5
ENDMDL
MODEL 3
REMARK VINA RESULT:      -7.0      3.818      4.771
REMARK  Name = 
REMARK  6 active torsions:
REMARK  status: ('A' for Active; 'I' for Inactive)
REMARK    1  A    between atoms: C_1  and  C_2
REMARK    2  A    between atoms: C_5  and  C_6
REMARK    3  A    between atoms: C_6  and  O_8
REMARK    4  A    between atoms: O_8  and  C_9
REMARK    5  A    between atoms: C_9  and  C_10
REMARK    6  A    between atoms: C_10  and  C_12
REMARK                            x       y       z     vdW  Elec       q    Type
REMARK                         _______ _______ _______ _____ _____    ______ ____
ROOT
ATOM      1  C   UNL     1       3.223   7.000  18.110  0.00  0.00    +0.000 C 
ATOM      2  O   UNL     1       3.708   6.971  16.974  0.00  0.00    +0.000 OA
ENDROOT
BRANCH   1   3
ATOM      3  C   UNL     1       2.418   8.149  18.547  0.00  0.00    +0.000 A 
ATOM      4  C   UNL     1       2.474   9.366  17.899  0.00  0.00    +0.000 A 
ATOM      5  S   UNL     1       1.362  10.453  18.571  0.00  0.00    +0.000 S 
ATOM      6  C   UNL     1       0.882   9.266  19.746  0.00  0.00    +0.000 A 
ATOM      7  N   UNL     1      -0.047   9.545  20.707  0.00  0.00    +0.000 N 
ATOM      8  C   UNL     1      -1.118  10.521  20.519  0.00  0.00    +0.000 C 
ATOM      9  C   UNL     1      -1.068  11.552  21.644  0.00  0.00    +0.000 C 
ATOM     10  C   UNL     1      -1.111  10.875  23.011  0.00  0.00    +0.000 C 
ATOM     11  C   UNL     1      -0.037   9.790  23.129  0.00  0.00    +0.000 C 
ATOM     12  C   UNL     1      -0.086   8.798  21.958  0.00  0.00    +0.000 C 
ATOM     13  N   UNL     1       1.539   8.124  19.635  0.00  0.00    +0.000 NA
ENDBRANCH   1   3
BRANCH   1  14
ATOM     14  C   UNL     1       3.445   5.846  19.081  0.00  0.00    +0.000 C 
BRANCH  14  15
ATOM     15  O   UNL     1       4.840   5.617  19.350  0.00  0.00    +0.000 OA
BRANCH  15  16
ATOM     16  C   UNL     1       5.299   4.432  18.868  0.00  0.00    +0.000 C 
ATOM     17  O   UNL     1       5.318   3.383  19.502  0.00  0.00    +0.000 OA
BRANCH  16  22
ATOM     18  C   UNL     1       7.419   4.981  13.624  0.00  0.00    +0.000 C 
ATOM     19  C   UNL     1       6.845   4.823  14.997  0.00  0.00    +0.000 A 
ATOM     20  C   UNL     1       5.759   3.986  15.245  0.00  0.00    +0.000 A 
ATOM     21  N   UNL     1       5.210   3.823  16.477  0.00  0.00    +0.000 NA
ATOM     22  C   UNL     1       5.805   4.531  17.473  0.00  0.00    +0.000 A 
ATOM     23  C   UNL     1       6.889   5.364  17.231  0.00  0.00    +0.000 A 
ATOM     24  N   UNL     1       7.427   5.531  15.998  0.00  0.00    +0.000 NA
ENDBRANCH  16  22
ENDBRANCH  15  16
ENDBRANCH  14  15
ENDBRANCH   1  14
TORSDOF 5
ENDMDL
MODEL 4
REMARK VINA RESULT:      -7.0      3.385      5.464
REMARK  Name = 
REMARK  6 active torsions:
REMARK  status: ('A' for Active; 'I' for Inactive)
REMARK    1  A    between atoms: C_1  and  C_2
REMARK    2  A    between atoms: C_5  and  C_6
REMARK    3  A    between atoms: C_6  and  O_8
REMARK    4  A    between atoms: O_8  and  C_9
REMARK    5  A    between atoms: C_9  and  C_10
REMARK    6  A    between atoms: C_10  and  C_12
REMARK                            x       y       z     vdW  Elec       q    Type
REMARK                         _______ _______ _______ _____ _____    ______ ____
ROOT
ATOM      1  C   UNL     1       7.584   4.985  18.250  0.00  0.00    +0.000 C 
ATOM      2  O   UNL     1       8.436   4.198  17.825  0.00  0.00    +0.000 OA
ENDROOT
BRANCH   1   3
ATOM      3  C   UNL     1       6.155   4.658  18.156  0.00  0.00    +0.000 A 
ATOM      4  C   UNL     1       5.386   5.060  17.083  0.00  0.00    +0.000 A 
ATOM      5  S   UNL     1       3.811   4.446  17.212  0.00  0.00    +0.000 S 
ATOM      6  C   UNL     1       4.205   3.705  18.735  0.00  0.00    +0.000 A 
ATOM      7  N   UNL     1       3.272   3.018  19.458  0.00  0.00    +0.000 N 
ATOM      8  C   UNL     1       2.142   2.326  18.844  0.00  0.00    +0.000 C 
ATOM      9  C   UNL     1       0.841   2.824  19.471  0.00  0.00    +0.000 C 
ATOM     10  C   UNL     1       0.875   2.683  20.991  0.00  0.00    +0.000 C 
ATOM     11  C   UNL     1       2.128   3.335  21.583  0.00  0.00    +0.000 C 
ATOM     12  C   UNL     1       3.412   2.846  20.898  0.00  0.00    +0.000 C 
ATOM     13  N   UNL     1       5.450   3.926  19.118  0.00  0.00    +0.000 NA
ENDBRANCH   1   3
BRANCH   1  14
ATOM     14  C   UNL     1       7.995   6.308  18.885  0.00  0.00    +0.000 C 
BRANCH  14  15
ATOM     15  O   UNL     1       8.571   7.218  17.931  0.00  0.00    +0.000 OA
BRANCH  15  16
ATOM     16  C   UNL     1       7.809   8.319  17.702  0.00  0.00    +0.000 C 
ATOM     17  O   UNL     1       6.736   8.312  17.109  0.00  0.00    +0.000 OA
BRANCH  16  22
ATOM     18  C   UNL     1      10.025  13.223  19.527  0.00  0.00    +0.000 C 
ATOM     19  C   UNL     1       9.451  11.922  19.063  0.00  0.00    +0.000 A 
ATOM     20  C   UNL     1       9.676  10.733  19.757  0.00  0.00    +0.000 A 
ATOM     21  N   UNL     1       9.175   9.534  19.361  0.00  0.00    +0.000 NA
ATOM     22  C   UNL     1       8.418   9.568  18.233  0.00  0.00    +0.000 A 
ATOM     23  C   UNL     1       8.189  10.749  17.540  0.00  0.00    +0.000 A 
ATOM     24  N   UNL     1       8.699  11.943  17.934  0.00  0.00    +0.000 NA
ENDBRANCH  16  22
ENDBRANCH  15  16
ENDBRANCH  14  15
ENDBRANCH   1  14
TORSDOF 5
ENDMDL
MODEL 5
REMARK VINA RESULT:      -6.9      3.817      5.401
REMARK  Name = 
REMARK  6 active torsions:
REMARK  status: ('A' for Active; 'I' for Inactive)
REMARK    1  A    between atoms: C_1  and  C_2
REMARK    2  A    between atoms: C_5  and  C_6
REMARK    3  A    between atoms: C_6  and  O_8
REMARK    4  A    between atoms: O_8  and  C_9
REMARK    5  A    between atoms: C_9  and  C_10
REMARK    6  A    between atoms: C_10  and  C_12
REMARK                            x       y       z     vdW  Elec       q    Type
REMARK                         _______ _______ _______ _____ _____    ______ ____
ROOT
ATOM      1  C   UNL     1       2.894   6.457  18.945  0.00  0.00    +0.000 C 
ATOM      2  O   UNL     1       2.934   6.445  17.711  0.00  0.00    +0.000 OA
ENDROOT
BRANCH   1   3
ATOM      3  C   UNL     1       2.067   7.443  19.654  0.00  0.00    +0.000 A 
ATOM      4  C   UNL     1       1.619   7.227  20.941  0.00  0.00    +0.000 A 
ATOM      5  S   UNL     1       0.782   8.583  21.519  0.00  0.00    +0.000 S 
ATOM      6  C   UNL     1       1.005   9.392  19.997  0.00  0.00    +0.000 A 
ATOM      7  N   UNL     1       0.486  10.634  19.765  0.00  0.00    +0.000 N 
ATOM      8  C   UNL     1       0.267  11.615  20.825  0.00  0.00    +0.000 C 
ATOM      9  C   UNL     1      -1.191  12.068  20.804  0.00  0.00    +0.000 C 
ATOM     10  C   UNL     1      -1.586  12.583  19.422  0.00  0.00    +0.000 C 
ATOM     11  C   UNL     1      -1.247  11.564  18.330  0.00  0.00    +0.000 C 
ATOM     12  C   UNL     1       0.213  11.096  18.410  0.00  0.00    +0.000 C 
ATOM     13  N   UNL     1       1.663   8.667  19.110  0.00  0.00    +0.000 NA
ENDBRANCH   1   3
BRANCH   1  14
ATOM     14  C   UNL     1       3.695   5.448  19.760  0.00  0.00    +0.000 C 
BRANCH  14  15
ATOM     15  O   UNL     1       4.371   4.487  18.930  0.00  0.00    +0.000 OA
BRANCH  15  16
ATOM     16  C   UNL     1       5.691   4.757  18.751  0.00  0.00    +0.000 C 
ATOM     17  O   UNL     1       6.481   5.000  19.656  0.00  0.00    +0.000 OA
BRANCH  16  22
ATOM     18  C   UNL     1       7.405   4.927  13.336  0.00  0.00    +0.000 C 
ATOM     19  C   UNL     1       6.940   4.866  14.756  0.00  0.00    +0.000 A 
ATOM     20  C   UNL     1       5.986   3.940  15.175  0.00  0.00    +0.000 A 
ATOM     21  N   UNL     1       5.538   3.861  16.456  0.00  0.00    +0.000 NA
ATOM     22  C   UNL     1       6.095   4.749  17.319  0.00  0.00    +0.000 A 
ATOM     23  C   UNL     1       7.048   5.672  16.907  0.00  0.00    +0.000 A 
ATOM     24  N   UNL     1       7.485   5.753  15.626  0.00  0.00    +0.000 NA
ENDBRANCH  16  22
ENDBRANCH  15  16
ENDBRANCH  14  15
ENDBRANCH   1  14
TORSDOF 5
ENDMDL
MODEL 6
REMARK VINA RESULT:      -6.9      2.655      4.998
REMARK  Name = 
REMARK  6 active torsions:
REMARK  status: ('A' for Active; 'I' for Inactive)
REMARK    1  A    between atoms: C_1  and  C_2
REMARK    2  A    between atoms: C_5  and  C_6
REMARK    3  A    between atoms: C_6  and  O_8
REMARK    4  A    between atoms: O_8  and  C_9
REMARK    5  A    between atoms: C_9  and  C_10
REMARK    6  A    between atoms: C_10  and  C_12
REMARK                            x       y       z     vdW  Elec       q    Type
REMARK                         _______ _______ _______ _____ _____    ______ ____
ROOT
ATOM      1  C   UNL     1       4.141   3.754  18.588  0.00  0.00    +0.000 C 
ATOM      2  O   UNL     1       4.945   3.102  19.262  0.00  0.00    +0.000 OA
ENDROOT
BRANCH   1   3
ATOM      3  C   UNL     1       3.214   4.692  19.236  0.00  0.00    +0.000 A 
ATOM      4  C   UNL     1       2.359   4.291  20.243  0.00  0.00    +0.000 A 
ATOM      5  S   UNL     1       1.494   5.614  20.855  0.00  0.00    +0.000 S 
ATOM      6  C   UNL     1       2.260   6.670  19.706  0.00  0.00    +0.000 A 
ATOM      7  N   UNL     1       1.946   7.998  19.636  0.00  0.00    +0.000 N 
ATOM      8  C   UNL     1       1.479   8.767  20.786  0.00  0.00    +0.000 C 
ATOM      9  C   UNL     1       0.147   9.431  20.445  0.00  0.00    +0.000 C 
ATOM     10  C   UNL     1       0.262  10.268  19.173  0.00  0.00    +0.000 C 
ATOM     11  C   UNL     1       0.850   9.451  18.019  0.00  0.00    +0.000 C 
ATOM     12  C   UNL     1       2.163   8.759  18.413  0.00  0.00    +0.000 C 
ATOM     13  N   UNL     1       3.107   6.048  18.906  0.00  0.00    +0.000 NA
ENDBRANCH   1   3
BRANCH   1  14
ATOM     14  C   UNL     1       4.096   3.606  17.072  0.00  0.00    +0.000 C 
BRANCH  14  15
ATOM     15  O   UNL     1       4.695   4.724  16.394  0.00  0.00    +0.000 OA
BRANCH  15  16
ATOM     16  C   UNL     1       6.050   4.651  16.319  0.00  0.00    +0.000 C 
ATOM     17  O   UNL     1       6.669   3.735  15.788  0.00  0.00    +0.000 OA
BRANCH  16  22
ATOM     18  C   UNL     1       8.749   8.879  18.988  0.00  0.00    +0.000 C 
ATOM     19  C   UNL     1       8.030   7.781  18.271  0.00  0.00    +0.000 A 
ATOM     20  C   UNL     1       7.260   8.028  17.136  0.00  0.00    +0.000 A 
ATOM     21  N   UNL     1       6.590   7.055  16.464  0.00  0.00    +0.000 NA
ATOM     22  C   UNL     1       6.730   5.802  16.970  0.00  0.00    +0.000 A 
ATOM     23  C   UNL     1       7.498   5.550  18.099  0.00  0.00    +0.000 A 
ATOM     24  N   UNL     1       8.158   6.526  18.772  0.00  0.00    +0.000 NA
ENDBRANCH  16  22
ENDBRANCH  15  16
ENDBRANCH  14  15
ENDBRANCH   1  14
TORSDOF 5
ENDMDL
MODEL 7
REMARK VINA RESULT:      -6.9      5.618      8.194
REMARK  Name = 
REMARK  6 active torsions:
REMARK  status: ('A' for Active; 'I' for Inactive)
REMARK    1  A    between atoms: C_1  and  C_2
REMARK    2  A    between atoms: C_5  and  C_6
REMARK    3  A    between atoms: C_6  and  O_8
REMARK    4  A    between atoms: O_8  and  C_9
REMARK    5  A    between atoms: C_9  and  C_10
REMARK    6  A    between atoms: C_10  and  C_12
REMARK                            x       y       z     vdW  Elec       q    Type
REMARK                         _______ _______ _______ _____ _____    ______ ____
ROOT
ATOM      1  C   UNL     1       1.049   9.184  21.645  0.00  0.00    +0.000 C 
ATOM      2  O   UNL     1       1.737   9.414  22.645  0.00  0.00    +0.000 OA
ENDROOT
BRANCH   1   3
ATOM      3  C   UNL     1       1.496   8.208  20.641  0.00  0.00    +0.000 A 
ATOM      4  C   UNL     1       1.909   8.595  19.383  0.00  0.00    +0.000 A 
ATOM      5  S   UNL     1       2.458   7.259  18.496  0.00  0.00    +0.000 S 
ATOM      6  C   UNL     1       2.070   6.199  19.817  0.00  0.00    +0.000 A 
ATOM      7  N   UNL     1       2.254   4.849  19.728  0.00  0.00    +0.000 N 
ATOM      8  C   UNL     1       3.277   4.239  18.883  0.00  0.00    +0.000 C 
ATOM      9  C   UNL     1       2.623   3.232  17.939  0.00  0.00    +0.000 C 
ATOM     10  C   UNL     1       1.800   2.207  18.716  0.00  0.00    +0.000 C 
ATOM     11  C   UNL     1       0.810   2.889  19.663  0.00  0.00    +0.000 C 
ATOM     12  C   UNL     1       1.494   3.928  20.564  0.00  0.00    +0.000 C 
ATOM     13  N   UNL     1       1.547   6.826  20.856  0.00  0.00    +0.000 NA
ENDBRANCH   1   3
BRANCH   1  14
ATOM     14  C   UNL     1      -0.278   9.903  21.430  0.00  0.00    +0.000 C 
BRANCH  14  15
ATOM     15  O   UNL     1      -0.127  11.118  20.675  0.00  0.00    +0.000 OA
BRANCH  15  16
ATOM     16  C   UNL     1      -1.308  11.670  20.292  0.00  0.00    +0.000 C 
ATOM     17  O   UNL     1      -1.954  12.466  20.964  0.00  0.00    +0.000 OA
BRANCH  16  22
ATOM     18  C   UNL     1      -3.269  10.019  15.221  0.00  0.00    +0.000 C 
ATOM     19  C   UNL     1      -2.736  10.439  16.554  0.00  0.00    +0.000 A 
ATOM     20  C   UNL     1      -1.550   9.915  17.067  0.00  0.00    +0.000 A 
ATOM     21  N   UNL     1      -1.041  10.271  18.276  0.00  0.00    +0.000 NA
ATOM     22  C   UNL     1      -1.766  11.195  18.959  0.00  0.00    +0.000 A 
ATOM     23  C   UNL     1      -2.946  11.722  18.450  0.00  0.00    +0.000 A 
ATOM     24  N   UNL     1      -3.456  11.357  17.248  0.00  0.00    +0.000 NA
ENDBRANCH  16  22
ENDBRANCH  15  16
ENDBRANCH  14  15
ENDBRANCH   1  14
TORSDOF 5
ENDMDL
MODEL 8
REMARK VINA RESULT:      -6.8      3.897      5.237
REMARK  Name = 
REMARK  6 active torsions:
REMARK  status: ('A' for Active; 'I' for Inactive)
REMARK    1  A    between atoms: C_1  and  C_2
REMARK    2  A    between atoms: C_5  and  C_6
REMARK    3  A    between atoms: C_6  and  O_8
REMARK    4  A    between atoms: O_8  and  C_9
REMARK    5  A    between atoms: C_9  and  C_10
REMARK    6  A    between atoms: C_10  and  C_12
REMARK                            x       y       z     vdW  Elec       q    Type
REMARK                         _______ _______ _______ _____ _____    ______ ____
ROOT
ATOM      1  C   UNL     1       2.800   6.199  19.392  0.00  0.00    +0.000 C 
ATOM      2  O   UNL     1       2.672   5.653  20.492  0.00  0.00    +0.000 OA
ENDROOT
BRANCH   1   3
ATOM      3  C   UNL     1       2.243   7.538  19.155  0.00  0.00    +0.000 A 
ATOM      4  C   UNL     1       2.628   8.306  18.075  0.00  0.00    +0.000 A 
ATOM      5  S   UNL     1       1.739   9.748  18.020  0.00  0.00    +0.000 S 
ATOM      6  C   UNL     1       0.905   9.313  19.481  0.00  0.00    +0.000 A 
ATOM      7  N   UNL     1      -0.014  10.144  20.055  0.00  0.00    +0.000 N 
ATOM      8  C   UNL     1      -0.815  11.095  19.288  0.00  0.00    +0.000 C 
ATOM      9  C   UNL     1      -0.627  12.497  19.863  0.00  0.00    +0.000 C 
ATOM     10  C   UNL     1      -0.938  12.523  21.358  0.00  0.00    +0.000 C 
ATOM     11  C   UNL     1      -0.152  11.444  22.109  0.00  0.00    +0.000 C 
ATOM     12  C   UNL     1      -0.326  10.056  21.476  0.00  0.00    +0.000 C 
ATOM     13  N   UNL     1       1.292   8.151  19.979  0.00  0.00    +0.000 NA
ENDBRANCH   1   3
BRANCH   1  14
ATOM     14  C   UNL     1       3.539   5.500  18.257  0.00  0.00    +0.000 C 
BRANCH  14  15
ATOM     15  O   UNL     1       4.397   4.447  18.729  0.00  0.00    +0.000 OA
BRANCH  15  16
ATOM     16  C   UNL     1       5.721   4.709  18.565  0.00  0.00    +0.000 C 
ATOM     17  O   UNL     1       6.503   4.938  19.481  0.00  0.00    +0.000 OA
BRANCH  16  22
ATOM     18  C   UNL     1       7.472   4.932  13.164  0.00  0.00    +0.000 C 
ATOM     19  C   UNL     1       6.998   4.856  14.581  0.00  0.00    +0.000 A 
ATOM     20  C   UNL     1       6.122   3.859  15.008  0.00  0.00    +0.000 A 
ATOM     21  N   UNL     1       5.668   3.764  16.286  0.00  0.00    +0.000 NA
ATOM     22  C   UNL     1       6.139   4.711  17.138  0.00  0.00    +0.000 A 
ATOM     23  C   UNL     1       7.014   5.704  16.718  0.00  0.00    +0.000 A 
ATOM     24  N   UNL     1       7.457   5.801  15.440  0.00  0.00    +0.000 NA
ENDBRANCH  16  22
ENDBRANCH  15  16
ENDBRANCH  14  15
ENDBRANCH   1  14
TORSDOF 5
ENDMDL
MODEL 9
REMARK VINA RESULT:      -6.8      3.205      5.062
REMARK  Name = 
REMARK  6 active torsions:
REMARK  status: ('A' for Active; 'I' for Inactive)
REMARK    1  A    between atoms: C_1  and  C_2
REMARK    2  A    between atoms: C_5  and  C_6
REMARK    3  A    between atoms: C_6  and  O_8
REMARK    4  A    between atoms: O_8  and  C_9
REMARK    5  A    between atoms: C_9  and  C_10
REMARK    6  A    between atoms: C_10  and  C_12
REMARK                            x       y       z     vdW  Elec       q    Type
REMARK                         _______ _______ _______ _____ _____    ______ ____
ROOT
ATOM      1  C   UNL     1       5.983   6.112  16.122  0.00  0.00    +0.000 C 
ATOM      2  O   UNL     1       5.840   5.907  14.912  0.00  0.00    +0.000 OA
ENDROOT
BRANCH   1   3
ATOM      3  C   UNL     1       4.846   5.963  17.041  0.00  0.00    +0.000 A 
ATOM      4  C   UNL     1       4.043   7.031  17.384  0.00  0.00    +0.000 A 
ATOM      5  S   UNL     1       2.764   6.525  18.374  0.00  0.00    +0.000 S 
ATOM      6  C   UNL     1       3.367   4.895  18.351  0.00  0.00    +0.000 A 
ATOM      7  N   UNL     1       2.756   3.896  19.053  0.00  0.00    +0.000 N 
ATOM      8  C   UNL     1       1.326   3.894  19.353  0.00  0.00    +0.000 C 
ATOM      9  C   UNL     1       1.123   3.753  20.860  0.00  0.00    +0.000 C 
ATOM     10  C   UNL     1       1.848   2.521  21.397  0.00  0.00    +0.000 C 
ATOM     11  C   UNL     1       3.320   2.512  20.975  0.00  0.00    +0.000 C 
ATOM     12  C   UNL     1       3.488   2.704  19.461  0.00  0.00    +0.000 C 
ATOM     13  N   UNL     1       4.475   4.756  17.644  0.00  0.00    +0.000 NA
ENDBRANCH   1   3
BRANCH   1  14
ATOM     14  C   UNL     1       7.338   6.519  16.688  0.00  0.00    +0.000 C 
BRANCH  14  15
ATOM     15  O   UNL     1       7.337   7.865  17.197  0.00  0.00    +0.000 OA
BRANCH  15  16
ATOM     16  C   UNL     1       8.141   8.037  18.279  0.00  0.00    +0.000 C 
ATOM     17  O   UNL     1       8.469   7.143  19.052  0.00  0.00    +0.000 OA
BRANCH  16  22
ATOM     18  C   UNL     1       9.685  13.486  18.736  0.00  0.00    +0.000 C 
ATOM     19  C   UNL     1       9.291  12.047  18.633  0.00  0.00    +0.000 A 
ATOM     20  C   UNL     1       9.736  11.098  19.553  0.00  0.00    +0.000 A 
ATOM     21  N   UNL     1       9.401   9.783  19.486  0.00  0.00    +0.000 NA
ATOM     22  C   UNL     1       8.582   9.446  18.456  0.00  0.00    +0.000 A 
ATOM     23  C   UNL     1       8.135  10.388  17.539  0.00  0.00    +0.000 A 
ATOM     24  N   UNL     1       8.478  11.698  17.603  0.00  0.00    +0.000 NA
ENDBRANCH  16  22
ENDBRANCH  15  16
ENDBRANCH  14  15
ENDBRANCH   1  14
TORSDOF 5
ENDMDL
