MODEL 1
REMARK VINA RESULT:      -7.6      0.000      0.000
REMARK  Name = 
REMARK  6 active torsions:
REMARK  status: ('A' for Active; 'I' for Inactive)
REMARK    1  A    between atoms: C_1  and  O_2
REMARK    2  A    between atoms: O_2  and  C_3
REMARK    3  A    between atoms: C_5  and  C_6
REMARK    4  A    between atoms: C_14  and  C_15
REMARK    5  A    between atoms: C_20  and  N_21
REMARK    6  A    between atoms: N_24  and  C_25
REMARK                            x       y       z     vdW  Elec       q    Type
REMARK                         _______ _______ _______ _____ _____    ______ ____
ROOT
ATOM      1  C   UNL     1       2.154  10.402  18.097  0.00  0.00    +0.000 A 
ATOM      2  C   UNL     1       1.289  10.568  19.184  0.00  0.00    +0.000 A 
ATOM      3  C   UNL     1       0.864   9.495  19.993  0.00  0.00    +0.000 A 
ATOM      4  C   UNL     1       1.447   8.242  19.673  0.00  0.00    +0.000 A 
ATOM      5  C   UNL     1       1.416   7.113  20.613  0.00  0.00    +0.000 A 
ATOM      6  O   UNL     1       0.988   7.244  21.755  0.00  0.00    +0.000 OA
ATOM      7  O   UNL     1       1.910   5.929  20.195  0.00  0.00    +0.000 OA
ATOM      8  C   UNL     1       2.385   5.798  18.944  0.00  0.00    +0.000 A 
ATOM      9  N   UNL     1       2.595   6.762  18.107  0.00  0.00    +0.000 NA
ATOM     10  C   UNL     1       2.193   8.034  18.508  0.00  0.00    +0.000 A 
ATOM     11  C   UNL     1       2.535   9.124  17.715  0.00  0.00    +0.000 A 
ENDROOT
BRANCH   8  12
ATOM     12  C   UNL     1       2.727   4.391  18.688  0.00  0.00    +0.000 A 
ATOM     13  C   UNL     1       1.733   3.444  18.996  0.00  0.00    +0.000 A 
ATOM     14  C   UNL     1       1.888   2.135  18.572  0.00  0.00    +0.000 A 
ATOM     15  C   UNL     1       3.037   1.823  17.872  0.00  0.00    +0.000 A 
ATOM     16  N   UNL     1       4.037   2.703  17.625  0.00  0.00    +0.000 NA
ATOM     17  C   UNL     1       3.913   3.986  18.047  0.00  0.00    +0.000 A 
BRANCH  17  18
ATOM     18  N   UNL     1       4.949   4.852  17.754  0.00  0.00    +0.000 N 
ATOM     19  C   UNL     1       6.274   4.743  18.382  0.00  0.00    +0.000 C 
ATOM     20  C   UNL     1       6.869   6.168  18.524  0.00  0.00    +0.000 C 
ATOM     21  N   UNL     1       6.943   6.920  17.250  0.00  0.00    +0.000 NA
ATOM     22  C   UNL     1       7.312   8.311  17.535  0.00  0.00    +0.000 C 
ATOM     23  C   UNL     1       5.621   6.887  16.570  0.00  0.00    +0.000 C 
ATOM     24  C   UNL     1       5.026   5.460  16.417  0.00  0.00    +0.000 C 
ENDBRANCH  17  18
ENDBRANCH   8  12
BRANCH   3  25
ATOM     25  C   UNL     1      -0.201   9.747  21.178  0.00  0.00    +0.000 C 
ATOM     26  C   UNL     1       0.365  10.132  22.582  0.00  0.00    +0.000 C 
ATOM     27  C   UNL     1      -0.771  11.145  22.745  0.00  0.00    +0.000 C 
ATOM     28  C   UNL     1      -0.984  11.096  21.226  0.00  0.00    +0.000 C 
ENDBRANCH   3  25
BRANCH   1  30
ATOM     29  C   UNL     1       2.620  12.699  18.006  0.00  0.00    +0.000 C 
ATOM     30  O   UNL     1       2.636  11.433  17.340  0.00  0.00    +0.000 OA
ENDBRANCH   1  30
TORSDOF 4
ENDMDL
MODEL 2
REMARK VINA RESULT:      -7.5      1.743      3.580
REMARK  Name = 
REMARK  6 active torsions:
REMARK  status: ('A' for Active; 'I' for Inactive)
REMARK    1  A    between atoms: C_1  and  O_2
REMARK    2  A    between atoms: O_2  and  C_3
REMARK    3  A    between atoms: C_5  and  C_6
REMARK    4  A    between atoms: C_14  and  C_15
REMARK    5  A    between atoms: C_20  and  N_21
REMARK    6  A    between atoms: N_24  and  C_25
REMARK                            x       y       z     vdW  Elec       q    Type
REMARK                         _______ _______ _______ _____ _____    ______ ____
ROOT
ATOM      1  C   UNL     1       1.598  10.731  18.438  0.00  0.00    +0.000 A 
ATOM      2  C   UNL     1       1.062  10.200  19.616  0.00  0.00    +0.000 A 
ATOM      3  C   UNL     1       1.283   8.868  20.023  0.00  0.00    +0.000 A 
ATOM      4  C   UNL     1       2.160   8.129  19.189  0.00  0.00    +0.000 A 
ATOM      5  C   UNL     1       2.789   6.881  19.642  0.00  0.00    +0.000 A 
ATOM      6  O   UNL     1       2.672   6.490  20.800  0.00  0.00    +0.000 OA
ATOM      7  O   UNL     1       3.535   6.190  18.755  0.00  0.00    +0.000 OA
ATOM      8  C   UNL     1       3.663   6.631  17.492  0.00  0.00    +0.000 A 
ATOM      9  N   UNL     1       3.282   7.785  17.048  0.00  0.00    +0.000 NA
ATOM     10  C   UNL     1       2.583   8.595  17.939  0.00  0.00    +0.000 A 
ATOM     11  C   UNL     1       2.286   9.901  17.564  0.00  0.00    +0.000 A 
ENDROOT
BRANCH   8  12
ATOM     12  C   UNL     1       4.397   5.638  16.693  0.00  0.00    +0.000 A 
ATOM     13  C   UNL     1       5.237   6.148  15.686  0.00  0.00    +0.000 A 
ATOM     14  C   UNL     1       6.129   5.300  15.051  0.00  0.00    +0.000 A 
ATOM     15  C   UNL     1       6.132   3.974  15.437  0.00  0.00    +0.000 A 
ATOM     16  N   UNL     1       5.286   3.449  16.354  0.00  0.00    +0.000 NA
ATOM     17  C   UNL     1       4.393   4.259  16.976  0.00  0.00    +0.000 A 
BRANCH  17  18
ATOM     18  N   UNL     1       3.564   3.682  17.919  0.00  0.00    +0.000 N 
ATOM     19  C   UNL     1       2.160   3.344  17.640  0.00  0.00    +0.000 C 
ATOM     20  C   UNL     1       1.344   3.520  18.947  0.00  0.00    +0.000 C 
ATOM     21  N   UNL     1       1.863   2.735  20.091  0.00  0.00    +0.000 NA
ATOM     22  C   UNL     1       1.156   3.140  21.310  0.00  0.00    +0.000 C 
ATOM     23  C   UNL     1       3.319   2.990  20.254  0.00  0.00    +0.000 C 
ATOM     24  C   UNL     1       4.142   2.807  18.950  0.00  0.00    +0.000 C 
ENDBRANCH  17  18
ENDBRANCH   8  12
BRANCH   3  25
ATOM     25  C   UNL     1       0.566   8.299  21.350  0.00  0.00    +0.000 C 
ATOM     26  C   UNL     1       0.879   9.019  22.701  0.00  0.00    +0.000 C 
ATOM     27  C   UNL     1      -0.594   8.885  23.097  0.00  0.00    +0.000 C 
ATOM     28  C   UNL     1      -0.932   8.647  21.619  0.00  0.00    +0.000 C 
ENDBRANCH   3  25
BRANCH   1  30
ATOM     29  C   UNL     1       2.569  12.865  18.407  0.00  0.00    +0.000 C 
ATOM     30  O   UNL     1       1.458  12.035  18.054  0.00  0.00    +0.000 OA
ENDBRANCH   1  30
TORSDOF 4
ENDMDL
MODEL 3
REMARK VINA RESULT:      -7.2      4.708      8.900
REMARK  Name = 
REMARK  6 active torsions:
REMARK  status: ('A' for Active; 'I' for Inactive)
REMARK    1  A    between atoms: C_1  and  O_2
REMARK    2  A    between atoms: O_2  and  C_3
REMARK    3  A    between atoms: C_5  and  C_6
REMARK    4  A    between atoms: C_14  and  C_15
REMARK    5  A    between atoms: C_20  and  N_21
REMARK    6  A    between atoms: N_24  and  C_25
REMARK                            x       y       z     vdW  Elec       q    Type
REMARK                         _______ _______ _______ _____ _____    ______ ____
ROOT
ATOM      1  C   UNL     1      -1.774  10.331  17.816  0.00  0.00    +0.000 A 
ATOM      2  C   UNL     1      -0.566   9.638  17.944  0.00  0.00    +0.000 A 
ATOM      3  C   UNL     1       0.375   9.923  18.954  0.00  0.00    +0.000 A 
ATOM      4  C   UNL     1      -0.032  10.912  19.884  0.00  0.00    +0.000 A 
ATOM      5  C   UNL     1       0.634  11.072  21.184  0.00  0.00    +0.000 A 
ATOM      6  O   UNL     1       1.493  10.281  21.563  0.00  0.00    +0.000 OA
ATOM      7  O   UNL     1       0.247  12.097  21.971  0.00  0.00    +0.000 OA
ATOM      8  C   UNL     1      -0.700  12.952  21.550  0.00  0.00    +0.000 A 
ATOM      9  N   UNL     1      -1.445  12.805  20.503  0.00  0.00    +0.000 NA
ATOM     10  C   UNL     1      -1.164  11.712  19.687  0.00  0.00    +0.000 A 
ATOM     11  C   UNL     1      -2.029  11.420  18.638  0.00  0.00    +0.000 A 
ENDROOT
BRANCH   8  12
ATOM     12  C   UNL     1      -0.838  14.054  22.515  0.00  0.00    +0.000 A 
ATOM     13  C   UNL     1      -1.829  13.895  23.502  0.00  0.00    +0.000 A 
ATOM     14  C   UNL     1      -1.866  14.769  24.574  0.00  0.00    +0.000 A 
ATOM     15  C   UNL     1      -0.921  15.777  24.608  0.00  0.00    +0.000 A 
ATOM     16  N   UNL     1      -0.003  15.988  23.635  0.00  0.00    +0.000 NA
ATOM     17  C   UNL     1       0.039  15.153  22.567  0.00  0.00    +0.000 A 
BRANCH  17  18
ATOM     18  N   UNL     1       1.006  15.397  21.610  0.00  0.00    +0.000 N 
ATOM     19  C   UNL     1       0.882  16.472  20.615  0.00  0.00    +0.000 C 
ATOM     20  C   UNL     1       1.573  16.010  19.306  0.00  0.00    +0.000 C 
ATOM     21  N   UNL     1       2.988  15.607  19.481  0.00  0.00    +0.000 NA
ATOM     22  C   UNL     1       3.468  14.992  18.239  0.00  0.00    +0.000 C 
ATOM     23  C   UNL     1       3.095  14.626  20.594  0.00  0.00    +0.000 C 
ATOM     24  C   UNL     1       2.412  15.088  21.910  0.00  0.00    +0.000 C 
ENDBRANCH  17  18
ENDBRANCH   8  12
BRANCH   3  25
ATOM     25  C   UNL     1       1.784   9.140  18.990  0.00  0.00    +0.000 C 
ATOM     26  C   UNL     1       1.789   7.695  19.583  0.00  0.00    +0.000 C 
ATOM     27  C   UNL     1       2.751   7.258  18.476  0.00  0.00    +0.000 C 
ATOM     28  C   UNL     1       2.338   8.503  17.677  0.00  0.00    +0.000 C 
ENDBRANCH   3  25
BRANCH   1  30
ATOM     29  C   UNL     1      -2.795  10.951  15.798  0.00  0.00    +0.000 C 
ATOM     30  O   UNL     1      -2.735  10.030  16.891  0.00  0.00    +0.000 OA
ENDBRANCH   1  30
TORSDOF 4
ENDMDL
MODEL 4
REMARK VINA RESULT:      -7.2      1.851      4.596
REMARK  Name = 
REMARK  6 active torsions:
REMARK  status: ('A' for Active; 'I' for Inactive)
REMARK    1  A    between atoms: C_1  and  O_2
REMARK    2  A    between atoms: O_2  and  C_3
REMARK    3  A    between atoms: C_5  and  C_6
REMARK    4  A    between atoms: C_14  and  C_15
REMARK    5  A    between atoms: C_20  and  N_21
REMARK    6  A    between atoms: N_24  and  C_25
REMARK                            x       y       z     vdW  Elec       q    Type
REMARK                         _______ _______ _______ _____ _____    ______ ____
ROOT
ATOM      1  C   UNL     1       0.318   8.403  21.394  0.00  0.00    +0.000 A 
ATOM      2  C   UNL     1       0.085   9.508  20.569  0.00  0.00    +0.000 A 
ATOM      3  C   UNL     1       0.815   9.743  19.385  0.00  0.00    +0.000 A 
ATOM      4  C   UNL     1       1.748   8.729  19.050  0.00  0.00    +0.000 A 
ATOM      5  C   UNL     1       2.316   8.618  17.700  0.00  0.00    +0.000 A 
ATOM      6  O   UNL     1       1.917   9.324  16.778  0.00  0.00    +0.000 OA
ATOM      7  O   UNL     1       3.267   7.684  17.489  0.00  0.00    +0.000 OA
ATOM      8  C   UNL     1       3.690   6.910  18.502  0.00  0.00    +0.000 A 
ATOM      9  N   UNL     1       3.147   6.828  19.674  0.00  0.00    +0.000 NA
ATOM     10  C   UNL     1       2.094   7.701  19.934  0.00  0.00    +0.000 A 
ATOM     11  C   UNL     1       1.377   7.551  21.116  0.00  0.00    +0.000 A 
ENDROOT
BRANCH   8  12
ATOM     12  C   UNL     1       4.821   6.082  18.055  0.00  0.00    +0.000 A 
ATOM     13  C   UNL     1       5.864   6.758  17.396  0.00  0.00    +0.000 A 
ATOM     14  C   UNL     1       7.056   6.096  17.154  0.00  0.00    +0.000 A 
ATOM     15  C   UNL     1       7.149   4.781  17.565  0.00  0.00    +0.000 A 
ATOM     16  N   UNL     1       6.135   4.091  18.139  0.00  0.00    +0.000 NA
ATOM     17  C   UNL     1       4.953   4.716  18.369  0.00  0.00    +0.000 A 
BRANCH  17  18
ATOM     18  N   UNL     1       3.954   3.978  18.976  0.00  0.00    +0.000 N 
ATOM     19  C   UNL     1       2.601   3.863  18.412  0.00  0.00    +0.000 C 
ATOM     20  C   UNL     1       1.591   3.742  19.582  0.00  0.00    +0.000 C 
ATOM     21  N   UNL     1       1.877   2.623  20.511  0.00  0.00    +0.000 NA
ATOM     22  C   UNL     1       1.000   2.735  21.681  0.00  0.00    +0.000 C 
ATOM     23  C   UNL     1       3.298   2.687  20.949  0.00  0.00    +0.000 C 
ATOM     24  C   UNL     1       4.313   2.800  19.779  0.00  0.00    +0.000 C 
ENDBRANCH  17  18
ENDBRANCH   8  12
BRANCH   3  25
ATOM     25  C   UNL     1       0.551  11.082  18.526  0.00  0.00    +0.000 C 
ATOM     26  C   UNL     1      -0.902  11.656  18.518  0.00  0.00    +0.000 C 
ATOM     27  C   UNL     1      -0.327  13.072  18.617  0.00  0.00    +0.000 C 
ATOM     28  C   UNL     1       0.994  12.462  19.105  0.00  0.00    +0.000 C 
ENDBRANCH   3  25
BRANCH   1  30
ATOM     29  C   UNL     1      -0.612   9.228  23.383  0.00  0.00    +0.000 C 
ATOM     30  O   UNL     1      -0.420   8.112  22.508  0.00  0.00    +0.000 OA
ENDBRANCH   1  30
TORSDOF 4
ENDMDL
MODEL 5
REMARK VINA RESULT:      -7.2      5.521     10.895
REMARK  Name = 
REMARK  6 active torsions:
REMARK  status: ('A' for Active; 'I' for Inactive)
REMARK    1  A    between atoms: C_1  and  O_2
REMARK    2  A    between atoms: O_2  and  C_3
REMARK    3  A    between atoms: C_5  and  C_6
REMARK    4  A    between atoms: C_14  and  C_15
REMARK    5  A    between atoms: C_20  and  N_21
REMARK    6  A    between atoms: N_24  and  C_25
REMARK                            x       y       z     vdW  Elec       q    Type
REMARK                         _______ _______ _______ _____ _____    ______ ____
ROOT
ATOM      1  C   UNL     1       0.584   9.436  21.377  0.00  0.00    +0.000 A 
ATOM      2  C   UNL     1       0.097   9.667  20.087  0.00  0.00    +0.000 A 
ATOM      3  C   UNL     1      -0.653  10.812  19.747  0.00  0.00    +0.000 A 
ATOM      4  C   UNL     1      -0.805  11.756  20.794  0.00  0.00    +0.000 A 
ATOM      5  C   UNL     1      -1.221  13.140  20.532  0.00  0.00    +0.000 A 
ATOM      6  O   UNL     1      -1.340  13.566  19.388  0.00  0.00    +0.000 OA
ATOM      7  O   UNL     1      -1.433  13.948  21.592  0.00  0.00    +0.000 OA
ATOM      8  C   UNL     1      -1.291  13.474  22.842  0.00  0.00    +0.000 A 
ATOM      9  N   UNL     1      -0.783  12.330  23.167  0.00  0.00    +0.000 NA
ATOM     10  C   UNL     1      -0.453  11.475  22.119  0.00  0.00    +0.000 A 
ATOM     11  C   UNL     1       0.236  10.301  22.406  0.00  0.00    +0.000 A 
ENDROOT
BRANCH   8  12
ATOM     12  C   UNL     1      -1.715  14.497  23.811  0.00  0.00    +0.000 A 
ATOM     13  C   UNL     1      -0.709  15.361  24.282  0.00  0.00    +0.000 A 
ATOM     14  C   UNL     1      -1.066  16.484  25.010  0.00  0.00    +0.000 A 
ATOM     15  C   UNL     1      -2.410  16.688  25.249  0.00  0.00    +0.000 A 
ATOM     16  N   UNL     1      -3.388  15.834  24.864  0.00  0.00    +0.000 NA
ATOM     17  C   UNL     1      -3.059  14.718  24.165  0.00  0.00    +0.000 A 
BRANCH  17  18
ATOM     18  N   UNL     1      -4.092  13.887  23.776  0.00  0.00    +0.000 N 
ATOM     19  C   UNL     1      -4.593  13.841  22.394  0.00  0.00    +0.000 C 
ATOM     20  C   UNL     1      -6.113  13.536  22.434  0.00  0.00    +0.000 C 
ATOM     21  N   UNL     1      -6.460  12.296  23.168  0.00  0.00    +0.000 NA
ATOM     22  C   UNL     1      -7.916  12.225  23.326  0.00  0.00    +0.000 C 
ATOM     23  C   UNL     1      -5.816  12.312  24.509  0.00  0.00    +0.000 C 
ATOM     24  C   UNL     1      -4.292  12.608  24.473  0.00  0.00    +0.000 C 
ENDBRANCH  17  18
ENDBRANCH   8  12
BRANCH   3  25
ATOM     25  C   UNL     1      -1.256  10.972  18.260  0.00  0.00    +0.000 C 
ATOM     26  C   UNL     1      -1.131   9.747  17.298  0.00  0.00    +0.000 C 
ATOM     27  C   UNL     1      -2.548  10.022  16.787  0.00  0.00    +0.000 C 
ATOM     28  C   UNL     1      -2.798  10.866  18.044  0.00  0.00    +0.000 C 
ENDBRANCH   3  25
BRANCH   1  30
ATOM     29  C   UNL     1       1.457   7.367  20.704  0.00  0.00    +0.000 C 
ATOM     30  O   UNL     1       1.372   8.372  21.718  0.00  0.00    +0.000 OA
ENDBRANCH   1  30
TORSDOF 4
ENDMDL
MODEL 6
REMARK VINA RESULT:      -7.0      8.378     10.633
REMARK  Name = 
REMARK  6 active torsions:
REMARK  status: ('A' for Active; 'I' for Inactive)
REMARK    1  A    between atoms: C_1  and  O_2
REMARK    2  A    between atoms: O_2  and  C_3
REMARK    3  A    between atoms: C_5  and  C_6
REMARK    4  A    between atoms: C_14  and  C_15
REMARK    5  A    between atoms: C_20  and  N_21
REMARK    6  A    between atoms: N_24  and  C_25
REMARK                            x       y       z     vdW  Elec       q    Type
REMARK                         _______ _______ _______ _____ _____    ______ ____
ROOT
ATOM      1  C   UNL     1       6.438  12.026  24.529  0.00  0.00    +0.000 A 
ATOM      2  C   UNL     1       6.886  13.078  25.335  0.00  0.00    +0.000 A 
ATOM      3  C   UNL     1       7.943  13.932  24.959  0.00  0.00    +0.000 A 
ATOM      4  C   UNL     1       8.465  13.696  23.661  0.00  0.00    +0.000 A 
ATOM      5  C   UNL     1       9.291  14.693  22.968  0.00  0.00    +0.000 A 
ATOM      6  O   UNL     1       9.464  15.815  23.434  0.00  0.00    +0.000 OA
ATOM      7  O   UNL     1       9.826  14.353  21.777  0.00  0.00    +0.000 OA
ATOM      8  C   UNL     1       9.623  13.125  21.271  0.00  0.00    +0.000 A 
ATOM      9  N   UNL     1       8.793  12.243  21.727  0.00  0.00    +0.000 NA
ATOM     10  C   UNL     1       8.131  12.564  22.909  0.00  0.00    +0.000 A 
ATOM     11  C   UNL     1       7.118  11.723  23.358  0.00  0.00    +0.000 A 
ENDROOT
BRANCH   8  12
ATOM     12  C   UNL     1      10.421  12.954  20.047  0.00  0.00    +0.000 A 
ATOM     13  C   UNL     1      11.482  12.033  20.121  0.00  0.00    +0.000 A 
ATOM     14  C   UNL     1      12.129  11.647  18.959  0.00  0.00    +0.000 A 
ATOM     15  C   UNL     1      11.699  12.211  17.773  0.00  0.00    +0.000 A 
ATOM     16  N   UNL     1      10.727  13.150  17.688  0.00  0.00    +0.000 NA
ATOM     17  C   UNL     1      10.092  13.554  18.817  0.00  0.00    +0.000 A 
BRANCH  17  18
ATOM     18  N   UNL     1       9.093  14.499  18.678  0.00  0.00    +0.000 N 
ATOM     19  C   UNL     1       9.376  15.927  18.476  0.00  0.00    +0.000 C 
ATOM     20  C   UNL     1       8.251  16.751  19.154  0.00  0.00    +0.000 C 
ATOM     21  N   UNL     1       6.887  16.407  18.687  0.00  0.00    +0.000 NA
ATOM     22  C   UNL     1       5.904  17.083  19.540  0.00  0.00    +0.000 C 
ATOM     23  C   UNL     1       6.686  14.935  18.769  0.00  0.00    +0.000 C 
ATOM     24  C   UNL     1       7.806  14.107  18.084  0.00  0.00    +0.000 C 
ENDBRANCH  17  18
ENDBRANCH   8  12
BRANCH   3  25
ATOM     25  C   UNL     1       8.462  15.072  25.974  0.00  0.00    +0.000 C 
ATOM     26  C   UNL     1       7.616  15.326  27.262  0.00  0.00    +0.000 C 
ATOM     27  C   UNL     1       8.910  15.475  28.066  0.00  0.00    +0.000 C 
ATOM     28  C   UNL     1       9.654  14.758  26.931  0.00  0.00    +0.000 C 
ENDBRANCH   3  25
BRANCH   1  30
ATOM     29  C   UNL     1       5.223  10.975  26.237  0.00  0.00    +0.000 C 
ATOM     30  O   UNL     1       5.372  11.227  24.836  0.00  0.00    +0.000 OA
ENDBRANCH   1  30
TORSDOF 4
ENDMDL
MODEL 7
REMARK VINA RESULT:      -7.0      5.515      9.003
REMARK  Name = 
REMARK  6 active torsions:
REMARK  status: ('A' for Active; 'I' for Inactive)
REMARK    1  A    between atoms: C_1  and  O_2
REMARK    2  A    between atoms: O_2  and  C_3
REMARK    3  A    between atoms: C_5  and  C_6
REMARK    4  A    between atoms: C_14  and  C_15
REMARK    5  A    between atoms: C_20  and  N_21
REMARK    6  A    between atoms: N_24  and  C_25
REMARK                            x       y       z     vdW  Elec       q    Type
REMARK                         _______ _______ _______ _____ _____    ______ ____
ROOT
ATOM      1  C   UNL     1      -2.163  16.041  25.238  0.00  0.00    +0.000 A 
ATOM      2  C   UNL     1      -3.481  16.015  24.771  0.00  0.00    +0.000 A 
ATOM      3  C   UNL     1      -3.960  15.023  23.890  0.00  0.00    +0.000 A 
ATOM      4  C   UNL     1      -3.024  14.004  23.578  0.00  0.00    +0.000 A 
ATOM      5  C   UNL     1      -3.444  12.723  22.993  0.00  0.00    +0.000 A 
ATOM      6  O   UNL     1      -4.630  12.440  22.860  0.00  0.00    +0.000 OA
ATOM      7  O   UNL     1      -2.483  11.845  22.639  0.00  0.00    +0.000 OA
ATOM      8  C   UNL     1      -1.186  12.162  22.797  0.00  0.00    +0.000 A 
ATOM      9  N   UNL     1      -0.728  13.187  23.439  0.00  0.00    +0.000 NA
ATOM     10  C   UNL     1      -1.669  14.095  23.916  0.00  0.00    +0.000 A 
ATOM     11  C   UNL     1      -1.242  15.129  24.743  0.00  0.00    +0.000 A 
ENDROOT
BRANCH   8  12
ATOM     12  C   UNL     1      -0.343  11.110  22.208  0.00  0.00    +0.000 A 
ATOM     13  C   UNL     1      -0.442   9.834  22.793  0.00  0.00    +0.000 A 
ATOM     14  C   UNL     1       0.137   8.749  22.157  0.00  0.00    +0.000 A 
ATOM     15  C   UNL     1       0.804   8.986  20.971  0.00  0.00    +0.000 A 
ATOM     16  N   UNL     1       0.969  10.215  20.426  0.00  0.00    +0.000 NA
ATOM     17  C   UNL     1       0.425  11.294  21.043  0.00  0.00    +0.000 A 
BRANCH  17  18
ATOM     18  N   UNL     1       0.602  12.525  20.439  0.00  0.00    +0.000 N 
ATOM     19  C   UNL     1       1.865  13.273  20.520  0.00  0.00    +0.000 C 
ATOM     20  C   UNL     1       1.538  14.789  20.519  0.00  0.00    +0.000 C 
ATOM     21  N   UNL     1       0.732  15.230  19.357  0.00  0.00    +0.000 NA
ATOM     22  C   UNL     1       0.305  16.617  19.569  0.00  0.00    +0.000 C 
ATOM     23  C   UNL     1      -0.465  14.358  19.217  0.00  0.00    +0.000 C 
ATOM     24  C   UNL     1      -0.142  12.840  19.209  0.00  0.00    +0.000 C 
ENDBRANCH  17  18
ENDBRANCH   8  12
BRANCH   3  25
ATOM     25  C   UNL     1      -5.468  15.103  23.326  0.00  0.00    +0.000 C 
ATOM     26  C   UNL     1      -6.434  16.129  23.999  0.00  0.00    +0.000 C 
ATOM     27  C   UNL     1      -6.999  16.480  22.621  0.00  0.00    +0.000 C 
ATOM     28  C   UNL     1      -5.745  15.860  21.990  0.00  0.00    +0.000 C 
ENDBRANCH   3  25
BRANCH   1  30
ATOM     29  C   UNL     1      -0.460  16.563  26.764  0.00  0.00    +0.000 C 
ATOM     30  O   UNL     1      -1.692  16.949  26.146  0.00  0.00    +0.000 OA
ENDBRANCH   1  30
TORSDOF 4
ENDMDL
MODEL 8
REMARK VINA RESULT:      -7.0      5.311     10.411
REMARK  Name = 
REMARK  6 active torsions:
REMARK  status: ('A' for Active; 'I' for Inactive)
REMARK    1  A    between atoms: C_1  and  O_2
REMARK    2  A    between atoms: O_2  and  C_3
REMARK    3  A    between atoms: C_5  and  C_6
REMARK    4  A    between atoms: C_14  and  C_15
REMARK    5  A    between atoms: C_20  and  N_21
REMARK    6  A    between atoms: N_24  and  C_25
REMARK                            x       y       z     vdW  Elec       q    Type
REMARK                         _______ _______ _______ _____ _____    ______ ____
ROOT
ATOM      1  C   UNL     1      -2.098  10.710  17.930  0.00  0.00    +0.000 A 
ATOM      2  C   UNL     1      -0.886  10.022  18.040  0.00  0.00    +0.000 A 
ATOM      3  C   UNL     1       0.087  10.339  19.010  0.00  0.00    +0.000 A 
ATOM      4  C   UNL     1      -0.293  11.356  19.923  0.00  0.00    +0.000 A 
ATOM      5  C   UNL     1       0.414  11.555  21.195  0.00  0.00    +0.000 A 
ATOM      6  O   UNL     1       1.285  10.777  21.571  0.00  0.00    +0.000 OA
ATOM      7  O   UNL     1       0.050  12.604  21.963  0.00  0.00    +0.000 OA
ATOM      8  C   UNL     1      -0.912  13.445  21.546  0.00  0.00    +0.000 A 
ATOM      9  N   UNL     1      -1.690  13.264  20.528  0.00  0.00    +0.000 NA
ATOM     10  C   UNL     1      -1.432  12.148  19.738  0.00  0.00    +0.000 A 
ATOM     11  C   UNL     1      -2.329  11.823  18.726  0.00  0.00    +0.000 A 
ENDROOT
BRANCH   8  12
ATOM     12  C   UNL     1      -1.022  14.574  22.482  0.00  0.00    +0.000 A 
ATOM     13  C   UNL     1       0.107  15.407  22.587  0.00  0.00    +0.000 A 
ATOM     14  C   UNL     1       0.003  16.611  23.263  0.00  0.00    +0.000 A 
ATOM     15  C   UNL     1      -1.222  16.926  23.819  0.00  0.00    +0.000 A 
ATOM     16  N   UNL     1      -2.301  16.108  23.789  0.00  0.00    +0.000 NA
ATOM     17  C   UNL     1      -2.215  14.916  23.147  0.00  0.00    +0.000 A 
BRANCH  17  18
ATOM     18  N   UNL     1      -3.348  14.126  23.124  0.00  0.00    +0.000 N 
ATOM     19  C   UNL     1      -4.332  14.182  22.032  0.00  0.00    +0.000 C 
ATOM     20  C   UNL     1      -5.736  13.892  22.622  0.00  0.00    +0.000 C 
ATOM     21  N   UNL     1      -5.828  12.607  23.354  0.00  0.00    +0.000 NA
ATOM     22  C   UNL     1      -7.120  12.539  24.044  0.00  0.00    +0.000 C 
ATOM     23  C   UNL     1      -4.728  12.520  24.353  0.00  0.00    +0.000 C 
ATOM     24  C   UNL     1      -3.319  12.802  23.765  0.00  0.00    +0.000 C 
ENDBRANCH  17  18
ENDBRANCH   8  12
BRANCH   3  25
ATOM     25  C   UNL     1       1.498   9.559  19.026  0.00  0.00    +0.000 C 
ATOM     26  C   UNL     1       1.527   8.138  19.674  0.00  0.00    +0.000 C 
ATOM     27  C   UNL     1       2.449   7.659  18.550  0.00  0.00    +0.000 C 
ATOM     28  C   UNL     1       2.005   8.871  17.720  0.00  0.00    +0.000 C 
ENDBRANCH   3  25
BRANCH   1  30
ATOM     29  C   UNL     1      -2.674  10.413  15.676  0.00  0.00    +0.000 C 
ATOM     30  O   UNL     1      -3.087  10.380  17.045  0.00  0.00    +0.000 OA
ENDBRANCH   1  30
TORSDOF 4
ENDMDL
MODEL 9
REMARK VINA RESULT:      -7.0      5.572     10.615
REMARK  Name = 
REMARK  6 active torsions:
REMARK  status: ('A' for Active; 'I' for Inactive)
REMARK    1  A    between atoms: C_1  and  O_2
REMARK    2  A    between atoms: O_2  and  C_3
REMARK    3  A    between atoms: C_5  and  C_6
REMARK    4  A    between atoms: C_14  and  C_15
REMARK    5  A    between atoms: C_20  and  N_21
REMARK    6  A    between atoms: N_24  and  C_25
REMARK                            x       y       z     vdW  Elec       q    Type
REMARK                         _______ _______ _______ _____ _____    ______ ____
ROOT
ATOM      1  C   UNL     1      -2.513  10.999  17.923  0.00  0.00    +0.000 A 
ATOM      2  C   UNL     1      -1.237  10.438  18.044  0.00  0.00    +0.000 A 
ATOM      3  C   UNL     1      -0.404  10.670  19.157  0.00  0.00    +0.000 A 
ATOM      4  C   UNL     1      -0.990  11.450  20.187  0.00  0.00    +0.000 A 
ATOM      5  C   UNL     1      -0.430  11.482  21.545  0.00  0.00    +0.000 A 
ATOM      6  O   UNL     1       0.496  10.746  21.873  0.00  0.00    +0.000 OA
ATOM      7  O   UNL     1      -0.991  12.321  22.440  0.00  0.00    +0.000 OA
ATOM      8  C   UNL     1      -2.011  13.117  22.074  0.00  0.00    +0.000 A 
ATOM      9  N   UNL     1      -2.665  13.048  20.961  0.00  0.00    +0.000 NA
ATOM     10  C   UNL     1      -2.198  12.135  20.019  0.00  0.00    +0.000 A 
ATOM     11  C   UNL     1      -2.953  11.911  18.872  0.00  0.00    +0.000 A 
ENDROOT
BRANCH   8  12
ATOM     12  C   UNL     1      -2.347  14.031  23.176  0.00  0.00    +0.000 A 
ATOM     13  C   UNL     1      -1.281  14.416  24.011  0.00  0.00    +0.000 A 
ATOM     14  C   UNL     1      -1.468  15.445  24.919  0.00  0.00    +0.000 A 
ATOM     15  C   UNL     1      -2.715  16.036  24.966  0.00  0.00    +0.000 A 
ATOM     16  N   UNL     1      -3.773  15.635  24.220  0.00  0.00    +0.000 NA
ATOM     17  C   UNL     1      -3.616  14.618  23.337  0.00  0.00    +0.000 A 
BRANCH  17  18
ATOM     18  N   UNL     1      -4.717  14.258  22.583  0.00  0.00    +0.000 N 
ATOM     19  C   UNL     1      -5.625  13.170  22.976  0.00  0.00    +0.000 C 
ATOM     20  C   UNL     1      -6.166  12.494  21.690  0.00  0.00    +0.000 C 
ATOM     21  N   UNL     1      -6.831  13.429  20.752  0.00  0.00    +0.000 NA
ATOM     22  C   UNL     1      -7.105  12.730  19.492  0.00  0.00    +0.000 C 
ATOM     23  C   UNL     1      -5.941  14.592  20.490  0.00  0.00    +0.000 C 
ATOM     24  C   UNL     1      -5.404  15.278  21.775  0.00  0.00    +0.000 C 
ENDBRANCH  17  18
ENDBRANCH   8  12
BRANCH   3  25
ATOM     25  C   UNL     1       1.088  10.059  19.192  0.00  0.00    +0.000 C 
ATOM     26  C   UNL     1       1.244   8.570  19.639  0.00  0.00    +0.000 C 
ATOM     27  C   UNL     1       2.298   8.368  18.547  0.00  0.00    +0.000 C 
ATOM     28  C   UNL     1       1.770   9.632  17.855  0.00  0.00    +0.000 C 
ENDBRANCH   3  25
BRANCH   1  30
ATOM     29  C   UNL     1      -2.755  10.065  15.786  0.00  0.00    +0.000 C 
ATOM     30  O   UNL     1      -3.369  10.737  16.890  0.00  0.00    +0.000 OA
ENDBRANCH   1  30
TORSDOF 4
ENDMDL
