MODEL 1
REMARK VINA RESULT:      -7.9      0.000      0.000
REMARK  Name = 
REMARK  13 active torsions:
REMARK  status: ('A' for Active; 'I' for Inactive)
REMARK    1  A    between atoms: C_1  and  C_2
REMARK    2  A    between atoms: C_6  and  C_7
REMARK    3  A    between atoms: C_8  and  C_9
REMARK    4  A    between atoms: C_9  and  N_10
REMARK    5  A    between atoms: C_12  and  C_13
REMARK    6  A    between atoms: C_13  and  N_14
REMARK    7  A    between atoms: N_17  and  C_18
REMARK    8  A    between atoms: C_18  and  C_19
REMARK    9  A    between atoms: C_18  and  C_23
REMARK   10  A    between atoms: C_19  and  C_20
REMARK   11  A    between atoms: C_20  and  C_21
REMARK   12  A    between atoms: C_20  and  C_22
REMARK   13  A    between atoms: N_25  and  O_26
REMARK                            x       y       z     vdW  Elec       q    Type
REMARK                         _______ _______ _______ _____ _____    ______ ____
ROOT
ATOM      1  N   UNL     1       8.496   8.211  18.621  0.00  0.00    +0.000 N 
ATOM      2  C   UNL     1       8.715   9.551  18.562  0.00  0.00    +0.000 C 
ATOM      3  O   UNL     1       8.322  10.284  17.665  0.00  0.00    +0.000 OA
ATOM      4  N   UNL     1       9.405  10.012  19.643  0.00  0.00    +0.000 N 
ATOM      5  H   UNL     1       8.461   7.800  19.539  0.00  0.00    +0.000 HD
ATOM      6  H   UNL     1       9.988   9.364  20.159  0.00  0.00    +0.000 HD
ENDROOT
BRANCH   1   7
ATOM      7  C   UNL     1       7.746   7.550  17.575  0.00  0.00    +0.000 C 
BRANCH   7  10
ATOM      8  N   UNL     1       5.473   4.868  18.481  0.00  0.00    +0.000 N 
ATOM      9  C   UNL     1       5.626   6.067  17.843  0.00  0.00    +0.000 A 
ATOM     10  C   UNL     1       6.924   6.440  18.125  0.00  0.00    +0.000 A 
ATOM     11  N   UNL     1       7.479   5.514  18.968  0.00  0.00    +0.000 NA
ATOM     12  N   UNL     1       6.603   4.538  19.144  0.00  0.00    +0.000 NA
BRANCH   8  13
ATOM     13  C   UNL     1       4.473   3.841  18.213  0.00  0.00    +0.000 C 
BRANCH  13  21
ATOM     14  C   UNL     1       4.714   1.874  20.564  0.00  0.00    +0.000 C 
ATOM     15  C   UNL     1       3.498   2.729  20.319  0.00  0.00    +0.000 A 
ATOM     16  C   UNL     1       2.403   2.510  21.178  0.00  0.00    +0.000 A 
ATOM     17  C   UNL     1       1.220   3.220  21.035  0.00  0.00    +0.000 A 
ATOM     18  C   UNL     1       1.109   4.168  20.028  0.00  0.00    +0.000 A 
ATOM     19  C   UNL     1       2.173   4.411  19.143  0.00  0.00    +0.000 A 
ATOM     20  C   UNL     1       1.946   5.444  18.065  0.00  0.00    +0.000 C 
ATOM     21  C   UNL     1       3.389   3.680  19.267  0.00  0.00    +0.000 A 
ENDBRANCH  13  21
ENDBRANCH   8  13
ENDBRANCH   7  10
ENDBRANCH   1   7
BRANCH   4  22
ATOM     22  C   UNL     1       9.593  11.433  19.911  0.00  0.00    +0.000 C 
BRANCH  22  23
ATOM     23  C   UNL     1      10.859  11.929  19.194  0.00  0.00    +0.000 C 
ATOM     24  O   UNL     1      11.931  11.315  19.217  0.00  0.00    +0.000 OA
ATOM     25  N   UNL     1      10.724  13.114  18.514  0.00  0.00    +0.000 N 
ATOM     26  H   UNL     1       9.901  13.707  18.519  0.00  0.00    +0.000 HD
BRANCH  25  27
ATOM     27  O   UNL     1      11.886  13.634  17.904  0.00  0.00    +0.000 OA
ATOM     28  H   UNL     1      11.519  14.299  17.281  0.00  0.00    +0.000 HD
ENDBRANCH  25  27
ENDBRANCH  22  23
BRANCH  22  29
ATOM     29  C   UNL     1       9.626  11.729  21.426  0.00  0.00    +0.000 C 
BRANCH  29  30
ATOM     30  C   UNL     1       8.776  12.933  21.895  0.00  0.00    +0.000 C 
ATOM     31  C   UNL     1       8.096  12.626  23.237  0.00  0.00    +0.000 C 
ATOM     32  C   UNL     1       9.576  14.228  22.056  0.00  0.00    +0.000 C 
ENDBRANCH  29  30
ENDBRANCH  22  29
ENDBRANCH   4  22
TORSDOF 9
ENDMDL
MODEL 2
REMARK VINA RESULT:      -7.6      5.340      8.293
REMARK  Name = 
REMARK  13 active torsions:
REMARK  status: ('A' for Active; 'I' for Inactive)
REMARK    1  A    between atoms: C_1  and  C_2
REMARK    2  A    between atoms: C_6  and  C_7
REMARK    3  A    between atoms: C_8  and  C_9
REMARK    4  A    between atoms: C_9  and  N_10
REMARK    5  A    between atoms: C_12  and  C_13
REMARK    6  A    between atoms: C_13  and  N_14
REMARK    7  A    between atoms: N_17  and  C_18
REMARK    8  A    between atoms: C_18  and  C_19
REMARK    9  A    between atoms: C_18  and  C_23
REMARK   10  A    between atoms: C_19  and  C_20
REMARK   11  A    between atoms: C_20  and  C_21
REMARK   12  A    between atoms: C_20  and  C_22
REMARK   13  A    between atoms: N_25  and  O_26
REMARK                            x       y       z     vdW  Elec       q    Type
REMARK                         _______ _______ _______ _____ _____    ______ ____
ROOT
ATOM      1  N   UNL     1       2.999   3.791  17.083  0.00  0.00    +0.000 N 
ATOM      2  C   UNL     1       4.344   3.692  16.917  0.00  0.00    +0.000 C 
ATOM      3  O   UNL     1       5.108   3.157  17.710  0.00  0.00    +0.000 OA
ATOM      4  N   UNL     1       4.763   4.231  15.739  0.00  0.00    +0.000 N 
ATOM      5  H   UNL     1       2.443   3.834  16.246  0.00  0.00    +0.000 HD
ATOM      6  H   UNL     1       4.188   4.938  15.297  0.00  0.00    +0.000 HD
ENDROOT
BRANCH   1   7
ATOM      7  C   UNL     1       2.368   3.239  18.263  0.00  0.00    +0.000 C 
BRANCH   7  10
ATOM      8  N   UNL     1       2.062   6.111  20.461  0.00  0.00    +0.000 N 
ATOM      9  C   UNL     1       2.870   5.402  19.616  0.00  0.00    +0.000 A 
ATOM     10  C   UNL     1       2.121   4.292  19.281  0.00  0.00    +0.000 A 
ATOM     11  N   UNL     1       0.941   4.326  19.976  0.00  0.00    +0.000 NA
ATOM     12  N   UNL     1       0.896   5.459  20.657  0.00  0.00    +0.000 NA
BRANCH   8  13
ATOM     13  C   UNL     1       2.159   7.526  20.802  0.00  0.00    +0.000 C 
BRANCH  13  21
ATOM     14  C   UNL     1       2.727   8.242  17.865  0.00  0.00    +0.000 C 
ATOM     15  C   UNL     1       1.581   8.821  18.654  0.00  0.00    +0.000 A 
ATOM     16  C   UNL     1       0.819   9.811  18.003  0.00  0.00    +0.000 A 
ATOM     17  C   UNL     1      -0.247  10.433  18.636  0.00  0.00    +0.000 A 
ATOM     18  C   UNL     1      -0.573  10.077  19.936  0.00  0.00    +0.000 A 
ATOM     19  C   UNL     1       0.168   9.102  20.627  0.00  0.00    +0.000 A 
ATOM     20  C   UNL     1      -0.249   8.801  22.046  0.00  0.00    +0.000 C 
ATOM     21  C   UNL     1       1.274   8.464  19.996  0.00  0.00    +0.000 A 
ENDBRANCH  13  21
ENDBRANCH   8  13
ENDBRANCH   7  10
ENDBRANCH   1   7
BRANCH   4  22
ATOM     22  C   UNL     1       6.124   4.075  15.239  0.00  0.00    +0.000 C 
BRANCH  22  23
ATOM     23  C   UNL     1       7.087   4.907  16.103  0.00  0.00    +0.000 C 
ATOM     24  O   UNL     1       7.960   4.403  16.816  0.00  0.00    +0.000 OA
ATOM     25  N   UNL     1       6.915   6.268  16.030  0.00  0.00    +0.000 N 
ATOM     26  H   UNL     1       6.171   6.743  15.529  0.00  0.00    +0.000 HD
BRANCH  25  27
ATOM     27  O   UNL     1       7.733   7.059  16.864  0.00  0.00    +0.000 OA
ATOM     28  H   UNL     1       7.133   7.794  17.115  0.00  0.00    +0.000 HD
ENDBRANCH  25  27
ENDBRANCH  22  23
BRANCH  22  29
ATOM     29  C   UNL     1       6.228   4.432  13.740  0.00  0.00    +0.000 C 
BRANCH  29  30
ATOM     30  C   UNL     1       5.981   3.267  12.753  0.00  0.00    +0.000 C 
ATOM     31  C   UNL     1       4.658   3.466  12.001  0.00  0.00    +0.000 C 
ATOM     32  C   UNL     1       7.093   3.091  11.716  0.00  0.00    +0.000 C 
ENDBRANCH  29  30
ENDBRANCH  22  29
ENDBRANCH   4  22
TORSDOF 9
ENDMDL
MODEL 3
REMARK VINA RESULT:      -7.5      1.058      1.250
REMARK  Name = 
REMARK  13 active torsions:
REMARK  status: ('A' for Active; 'I' for Inactive)
REMARK    1  A    between atoms: C_1  and  C_2
REMARK    2  A    between atoms: C_6  and  C_7
REMARK    3  A    between atoms: C_8  and  C_9
REMARK    4  A    between atoms: C_9  and  N_10
REMARK    5  A    between atoms: C_12  and  C_13
REMARK    6  A    between atoms: C_13  and  N_14
REMARK    7  A    between atoms: N_17  and  C_18
REMARK    8  A    between atoms: C_18  and  C_19
REMARK    9  A    between atoms: C_18  and  C_23
REMARK   10  A    between atoms: C_19  and  C_20
REMARK   11  A    between atoms: C_20  and  C_21
REMARK   12  A    between atoms: C_20  and  C_22
REMARK   13  A    between atoms: N_25  and  O_26
REMARK                            x       y       z     vdW  Elec       q    Type
REMARK                         _______ _______ _______ _____ _____    ______ ____
ROOT
ATOM      1  N   UNL     1       8.471   8.189  18.500  0.00  0.00    +0.000 N 
ATOM      2  C   UNL     1       8.657   9.533  18.448  0.00  0.00    +0.000 C 
ATOM      3  O   UNL     1       8.330  10.247  17.509  0.00  0.00    +0.000 OA
ATOM      4  N   UNL     1       9.227  10.024  19.584  0.00  0.00    +0.000 N 
ATOM      5  H   UNL     1       8.361   7.783  19.414  0.00  0.00    +0.000 HD
ATOM      6  H   UNL     1       9.776   9.397  20.160  0.00  0.00    +0.000 HD
ENDROOT
BRANCH   1   7
ATOM      7  C   UNL     1       7.844   7.497  17.395  0.00  0.00    +0.000 C 
BRANCH   7  10
ATOM      8  N   UNL     1       4.864   5.537  18.071  0.00  0.00    +0.000 N 
ATOM      9  C   UNL     1       5.392   6.630  17.442  0.00  0.00    +0.000 A 
ATOM     10  C   UNL     1       6.707   6.662  17.861  0.00  0.00    +0.000 A 
ATOM     11  N   UNL     1       6.908   5.655  18.768  0.00  0.00    +0.000 NA
ATOM     12  N   UNL     1       5.792   4.949  18.855  0.00  0.00    +0.000 NA
BRANCH   8  13
ATOM     13  C   UNL     1       3.662   4.798  17.704  0.00  0.00    +0.000 C 
BRANCH  13  21
ATOM     14  C   UNL     1       3.378   1.769  18.156  0.00  0.00    +0.000 C 
ATOM     15  C   UNL     1       2.708   2.803  19.023  0.00  0.00    +0.000 A 
ATOM     16  C   UNL     1       1.839   2.311  20.015  0.00  0.00    +0.000 A 
ATOM     17  C   UNL     1       1.147   3.168  20.858  0.00  0.00    +0.000 A 
ATOM     18  C   UNL     1       1.313   4.538  20.727  0.00  0.00    +0.000 A 
ATOM     19  C   UNL     1       2.162   5.073  19.743  0.00  0.00    +0.000 A 
ATOM     20  C   UNL     1       2.257   6.577  19.661  0.00  0.00    +0.000 C 
ATOM     21  C   UNL     1       2.869   4.207  18.859  0.00  0.00    +0.000 A 
ENDBRANCH  13  21
ENDBRANCH   8  13
ENDBRANCH   7  10
ENDBRANCH   1   7
BRANCH   4  22
ATOM     22  C   UNL     1       9.347  11.452  19.853  0.00  0.00    +0.000 C 
BRANCH  22  23
ATOM     23  C   UNL     1      10.207  12.110  18.762  0.00  0.00    +0.000 C 
ATOM     24  O   UNL     1      11.414  11.886  18.628  0.00  0.00    +0.000 OA
ATOM     25  N   UNL     1       9.540  12.976  17.930  0.00  0.00    +0.000 N 
ATOM     26  H   UNL     1       8.573  13.265  18.032  0.00  0.00    +0.000 HD
BRANCH  25  27
ATOM     27  O   UNL     1      10.313  13.652  16.963  0.00  0.00    +0.000 OA
ATOM     28  H   UNL     1      11.091  13.951  17.483  0.00  0.00    +0.000 HD
ENDBRANCH  25  27
ENDBRANCH  22  23
BRANCH  22  29
ATOM     29  C   UNL     1       9.895  11.722  21.271  0.00  0.00    +0.000 C 
BRANCH  29  30
ATOM     30  C   UNL     1       9.388  13.013  21.954  0.00  0.00    +0.000 C 
ATOM     31  C   UNL     1      10.201  14.228  21.487  0.00  0.00    +0.000 C 
ATOM     32  C   UNL     1       7.908  13.307  21.696  0.00  0.00    +0.000 C 
ENDBRANCH  29  30
ENDBRANCH  22  29
ENDBRANCH   4  22
TORSDOF 9
ENDMDL
MODEL 4
REMARK VINA RESULT:      -7.5      7.162     10.242
REMARK  Name = 
REMARK  13 active torsions:
REMARK  status: ('A' for Active; 'I' for Inactive)
REMARK    1  A    between atoms: C_1  and  C_2
REMARK    2  A    between atoms: C_6  and  C_7
REMARK    3  A    between atoms: C_8  and  C_9
REMARK    4  A    between atoms: C_9  and  N_10
REMARK    5  A    between atoms: C_12  and  C_13
REMARK    6  A    between atoms: C_13  and  N_14
REMARK    7  A    between atoms: N_17  and  C_18
REMARK    8  A    between atoms: C_18  and  C_19
REMARK    9  A    between atoms: C_18  and  C_23
REMARK   10  A    between atoms: C_19  and  C_20
REMARK   11  A    between atoms: C_20  and  C_21
REMARK   12  A    between atoms: C_20  and  C_22
REMARK   13  A    between atoms: N_25  and  O_26
REMARK                            x       y       z     vdW  Elec       q    Type
REMARK                         _______ _______ _______ _____ _____    ______ ____
ROOT
ATOM      1  N   UNL     1      -0.443  10.430  17.790  0.00  0.00    +0.000 N 
ATOM      2  C   UNL     1      -1.707  10.034  17.489  0.00  0.00    +0.000 C 
ATOM      3  O   UNL     1      -2.425   9.370  18.225  0.00  0.00    +0.000 OA
ATOM      4  N   UNL     1      -2.118  10.487  16.271  0.00  0.00    +0.000 N 
ATOM      5  H   UNL     1      -0.122  11.281  17.360  0.00  0.00    +0.000 HD
ATOM      6  H   UNL     1      -1.416  10.719  15.579  0.00  0.00    +0.000 HD
ENDROOT
BRANCH   1   7
ATOM      7  C   UNL     1       0.149  10.072  19.061  0.00  0.00    +0.000 C 
BRANCH   7  10
ATOM      8  N   UNL     1       2.773   7.564  19.031  0.00  0.00    +0.000 N 
ATOM      9  C   UNL     1       1.960   8.356  19.794  0.00  0.00    +0.000 A 
ATOM     10  C   UNL     1       1.293   9.142  18.877  0.00  0.00    +0.000 A 
ATOM     11  N   UNL     1       1.766   8.860  17.622  0.00  0.00    +0.000 NA
ATOM     12  N   UNL     1       2.635   7.867  17.722  0.00  0.00    +0.000 NA
BRANCH   8  13
ATOM     13  C   UNL     1       3.391   6.300  19.413  0.00  0.00    +0.000 C 
BRANCH  13  21
ATOM     14  C   UNL     1       0.979   4.696  20.445  0.00  0.00    +0.000 C 
ATOM     15  C   UNL     1       1.774   4.306  19.227  0.00  0.00    +0.000 A 
ATOM     16  C   UNL     1       1.421   3.084  18.621  0.00  0.00    +0.000 A 
ATOM     17  C   UNL     1       2.096   2.609  17.507  0.00  0.00    +0.000 A 
ATOM     18  C   UNL     1       3.142   3.348  16.974  0.00  0.00    +0.000 A 
ATOM     19  C   UNL     1       3.535   4.567  17.553  0.00  0.00    +0.000 A 
ATOM     20  C   UNL     1       4.699   5.286  16.916  0.00  0.00    +0.000 C 
ATOM     21  C   UNL     1       2.860   5.062  18.706  0.00  0.00    +0.000 A 
ENDBRANCH  13  21
ENDBRANCH   8  13
ENDBRANCH   7  10
ENDBRANCH   1   7
BRANCH   4  22
ATOM     22  C   UNL     1      -3.495  10.366  15.807  0.00  0.00    +0.000 C 
BRANCH  22  23
ATOM     23  C   UNL     1      -3.504  10.035  14.306  0.00  0.00    +0.000 C 
ATOM     24  O   UNL     1      -2.473   9.889  13.642  0.00  0.00    +0.000 OA
ATOM     25  N   UNL     1      -4.748   9.909  13.739  0.00  0.00    +0.000 N 
ATOM     26  H   UNL     1      -5.630  10.093  14.205  0.00  0.00    +0.000 HD
BRANCH  25  27
ATOM     27  O   UNL     1      -4.794   9.677  12.348  0.00  0.00    +0.000 OA
ATOM     28  H   UNL     1      -5.750   9.777  12.147  0.00  0.00    +0.000 HD
ENDBRANCH  25  27
ENDBRANCH  22  23
BRANCH  22  29
ATOM     29  C   UNL     1      -4.320  11.630  16.132  0.00  0.00    +0.000 C 
BRANCH  29  30
ATOM     30  C   UNL     1      -5.280  11.515  17.339  0.00  0.00    +0.000 C 
ATOM     31  C   UNL     1      -4.584  11.969  18.629  0.00  0.00    +0.000 C 
ATOM     32  C   UNL     1      -6.567  12.329  17.184  0.00  0.00    +0.000 C 
ENDBRANCH  29  30
ENDBRANCH  22  29
ENDBRANCH   4  22
TORSDOF 9
ENDMDL
MODEL 5
REMARK VINA RESULT:      -7.5      6.263      9.639
REMARK  Name = 
REMARK  13 active torsions:
REMARK  status: ('A' for Active; 'I' for Inactive)
REMARK    1  A    between atoms: C_1  and  C_2
REMARK    2  A    between atoms: C_6  and  C_7
REMARK    3  A    between atoms: C_8  and  C_9
REMARK    4  A    between atoms: C_9  and  N_10
REMARK    5  A    between atoms: C_12  and  C_13
REMARK    6  A    between atoms: C_13  and  N_14
REMARK    7  A    between atoms: N_17  and  C_18
REMARK    8  A    between atoms: C_18  and  C_19
REMARK    9  A    between atoms: C_18  and  C_23
REMARK   10  A    between atoms: C_19  and  C_20
REMARK   11  A    between atoms: C_20  and  C_21
REMARK   12  A    between atoms: C_20  and  C_22
REMARK   13  A    between atoms: N_25  and  O_26
REMARK                            x       y       z     vdW  Elec       q    Type
REMARK                         _______ _______ _______ _____ _____    ______ ____
ROOT
ATOM      1  N   UNL     1       2.546   6.689  20.307  0.00  0.00    +0.000 N 
ATOM      2  C   UNL     1       2.431   5.506  19.649  0.00  0.00    +0.000 C 
ATOM      3  O   UNL     1       1.415   4.826  19.607  0.00  0.00    +0.000 OA
ATOM      4  N   UNL     1       3.578   5.160  18.998  0.00  0.00    +0.000 N 
ATOM      5  H   UNL     1       3.215   7.346  19.942  0.00  0.00    +0.000 HD
ATOM      6  H   UNL     1       4.456   5.545  19.326  0.00  0.00    +0.000 HD
ENDROOT
BRANCH   1   7
ATOM      7  C   UNL     1       1.415   7.235  21.026  0.00  0.00    +0.000 C 
BRANCH   7  10
ATOM      8  N   UNL     1       0.861  10.686  20.046  0.00  0.00    +0.000 N 
ATOM      9  C   UNL     1       1.115   9.408  19.630  0.00  0.00    +0.000 A 
ATOM     10  C   UNL     1       1.292   8.698  20.800  0.00  0.00    +0.000 A 
ATOM     11  N   UNL     1       1.216   9.563  21.860  0.00  0.00    +0.000 NA
ATOM     12  N   UNL     1       0.910  10.763  21.393  0.00  0.00    +0.000 NA
BRANCH   8  13
ATOM     13  C   UNL     1       0.218  11.753  19.289  0.00  0.00    +0.000 C 
BRANCH  13  21
ATOM     14  C   UNL     1      -1.481  10.082  17.345  0.00  0.00    +0.000 C 
ATOM     15  C   UNL     1      -2.071  11.015  18.371  0.00  0.00    +0.000 A 
ATOM     16  C   UNL     1      -3.470  11.172  18.333  0.00  0.00    +0.000 A 
ATOM     17  C   UNL     1      -4.124  12.021  19.213  0.00  0.00    +0.000 A 
ATOM     18  C   UNL     1      -3.391  12.732  20.151  0.00  0.00    +0.000 A 
ATOM     19  C   UNL     1      -1.992  12.613  20.216  0.00  0.00    +0.000 A 
ATOM     20  C   UNL     1      -1.281  13.446  21.255  0.00  0.00    +0.000 C 
ATOM     21  C   UNL     1      -1.303  11.756  19.311  0.00  0.00    +0.000 A 
ENDBRANCH  13  21
ENDBRANCH   8  13
ENDBRANCH   7  10
ENDBRANCH   1   7
BRANCH   4  22
ATOM     22  C   UNL     1       3.648   4.043  18.064  0.00  0.00    +0.000 C 
BRANCH  22  23
ATOM     23  C   UNL     1       4.171   2.795  18.794  0.00  0.00    +0.000 C 
ATOM     24  O   UNL     1       4.798   2.849  19.857  0.00  0.00    +0.000 OA
ATOM     25  N   UNL     1       3.894   1.597  18.183  0.00  0.00    +0.000 N 
ATOM     26  H   UNL     1       3.456   1.485  17.275  0.00  0.00    +0.000 HD
BRANCH  25  27
ATOM     27  O   UNL     1       4.421   0.436  18.789  0.00  0.00    +0.000 OA
ATOM     28  H   UNL     1       4.301   0.623  19.746  0.00  0.00    +0.000 HD
ENDBRANCH  25  27
ENDBRANCH  22  23
BRANCH  22  29
ATOM     29  C   UNL     1       4.496   4.390  16.821  0.00  0.00    +0.000 C 
BRANCH  29  30
ATOM     30  C   UNL     1       5.375   5.657  16.938  0.00  0.00    +0.000 C 
ATOM     31  C   UNL     1       6.860   5.301  16.797  0.00  0.00    +0.000 C 
ATOM     32  C   UNL     1       5.046   6.735  15.902  0.00  0.00    +0.000 C 
ENDBRANCH  29  30
ENDBRANCH  22  29
ENDBRANCH   4  22
TORSDOF 9
ENDMDL
MODEL 6
REMARK VINA RESULT:      -7.4      6.532      9.868
REMARK  Name = 
REMARK  13 active torsions:
REMARK  status: ('A' for Active; 'I' for Inactive)
REMARK    1  A    between atoms: C_1  and  C_2
REMARK    2  A    between atoms: C_6  and  C_7
REMARK    3  A    between atoms: C_8  and  C_9
REMARK    4  A    between atoms: C_9  and  N_10
REMARK    5  A    between atoms: C_12  and  C_13
REMARK    6  A    between atoms: C_13  and  N_14
REMARK    7  A    between atoms: N_17  and  C_18
REMARK    8  A    between atoms: C_18  and  C_19
REMARK    9  A    between atoms: C_18  and  C_23
REMARK   10  A    between atoms: C_19  and  C_20
REMARK   11  A    between atoms: C_20  and  C_21
REMARK   12  A    between atoms: C_20  and  C_22
REMARK   13  A    between atoms: N_25  and  O_26
REMARK                            x       y       z     vdW  Elec       q    Type
REMARK                         _______ _______ _______ _____ _____    ______ ____
ROOT
ATOM      1  N   UNL     1       2.392   7.227  20.521  0.00  0.00    +0.000 N 
ATOM      2  C   UNL     1       2.188   5.940  20.137  0.00  0.00    +0.000 C 
ATOM      3  O   UNL     1       1.128   5.338  20.247  0.00  0.00    +0.000 OA
ATOM      4  N   UNL     1       3.298   5.383  19.576  0.00  0.00    +0.000 N 
ATOM      5  H   UNL     1       3.096   7.741  20.020  0.00  0.00    +0.000 HD
ATOM      6  H   UNL     1       4.205   5.769  19.810  0.00  0.00    +0.000 HD
ENDROOT
BRANCH   1   7
ATOM      7  C   UNL     1       1.312   7.992  21.106  0.00  0.00    +0.000 C 
BRANCH   7  10
ATOM      8  N   UNL     1      -0.186  10.653  19.143  0.00  0.00    +0.000 N 
ATOM      9  C   UNL     1      -0.263   9.886  20.273  0.00  0.00    +0.000 A 
ATOM     10  C   UNL     1       0.762   8.973  20.135  0.00  0.00    +0.000 A 
ATOM     11  N   UNL     1       1.366   9.163  18.920  0.00  0.00    +0.000 NA
ATOM     12  N   UNL     1       0.810  10.216  18.343  0.00  0.00    +0.000 NA
BRANCH   8  13
ATOM     13  C   UNL     1      -0.740  11.986  18.937  0.00  0.00    +0.000 C 
BRANCH  13  21
ATOM     14  C   UNL     1      -2.214  13.234  21.330  0.00  0.00    +0.000 C 
ATOM     15  C   UNL     1      -2.920  12.627  20.145  0.00  0.00    +0.000 A 
ATOM     16  C   UNL     1      -4.325  12.561  20.228  0.00  0.00    +0.000 A 
ATOM     17  C   UNL     1      -5.082  12.003  19.209  0.00  0.00    +0.000 A 
ATOM     18  C   UNL     1      -4.449  11.499  18.083  0.00  0.00    +0.000 A 
ATOM     19  C   UNL     1      -3.049  11.535  17.964  0.00  0.00    +0.000 A 
ATOM     20  C   UNL     1      -2.452  10.939  16.712  0.00  0.00    +0.000 C 
ATOM     21  C   UNL     1      -2.256  12.092  19.007  0.00  0.00    +0.000 A 
ENDBRANCH  13  21
ENDBRANCH   8  13
ENDBRANCH   7  10
ENDBRANCH   1   7
BRANCH   4  22
ATOM     22  C   UNL     1       3.278   4.087  18.908  0.00  0.00    +0.000 C 
BRANCH  22  23
ATOM     23  C   UNL     1       3.730   2.995  19.892  0.00  0.00    +0.000 C 
ATOM     24  O   UNL     1       3.094   2.698  20.908  0.00  0.00    +0.000 OA
ATOM     25  N   UNL     1       4.903   2.359  19.566  0.00  0.00    +0.000 N 
ATOM     26  H   UNL     1       5.513   2.605  18.794  0.00  0.00    +0.000 HD
BRANCH  25  27
ATOM     27  O   UNL     1       5.384   1.401  20.483  0.00  0.00    +0.000 OA
ATOM     28  H   UNL     1       6.304   1.254  20.174  0.00  0.00    +0.000 HD
ENDBRANCH  25  27
ENDBRANCH  22  23
BRANCH  22  29
ATOM     29  C   UNL     1       4.126   4.097  17.617  0.00  0.00    +0.000 C 
BRANCH  29  30
ATOM     30  C   UNL     1       5.196   5.210  17.523  0.00  0.00    +0.000 C 
ATOM     31  C   UNL     1       6.572   4.613  17.202  0.00  0.00    +0.000 C 
ATOM     32  C   UNL     1       4.886   6.277  16.470  0.00  0.00    +0.000 C 
ENDBRANCH  29  30
ENDBRANCH  22  29
ENDBRANCH   4  22
TORSDOF 9
ENDMDL
MODEL 7
REMARK VINA RESULT:      -7.4      5.916      9.550
REMARK  Name = 
REMARK  13 active torsions:
REMARK  status: ('A' for Active; 'I' for Inactive)
REMARK    1  A    between atoms: C_1  and  C_2
REMARK    2  A    between atoms: C_6  and  C_7
REMARK    3  A    between atoms: C_8  and  C_9
REMARK    4  A    between atoms: C_9  and  N_10
REMARK    5  A    between atoms: C_12  and  C_13
REMARK    6  A    between atoms: C_13  and  N_14
REMARK    7  A    between atoms: N_17  and  C_18
REMARK    8  A    between atoms: C_18  and  C_19
REMARK    9  A    between atoms: C_18  and  C_23
REMARK   10  A    between atoms: C_19  and  C_20
REMARK   11  A    between atoms: C_20  and  C_21
REMARK   12  A    between atoms: C_20  and  C_22
REMARK   13  A    between atoms: N_25  and  O_26
REMARK                            x       y       z     vdW  Elec       q    Type
REMARK                         _______ _______ _______ _____ _____    ______ ____
ROOT
ATOM      1  N   UNL     1       2.495   7.037  19.944  0.00  0.00    +0.000 N 
ATOM      2  C   UNL     1       3.015   5.783  19.902  0.00  0.00    +0.000 C 
ATOM      3  O   UNL     1       2.713   4.876  20.666  0.00  0.00    +0.000 OA
ATOM      4  N   UNL     1       3.905   5.624  18.882  0.00  0.00    +0.000 N 
ATOM      5  H   UNL     1       2.461   7.542  19.075  0.00  0.00    +0.000 HD
ATOM      6  H   UNL     1       4.369   6.444  18.512  0.00  0.00    +0.000 HD
ENDROOT
BRANCH   1   7
ATOM      7  C   UNL     1       1.504   7.381  20.942  0.00  0.00    +0.000 C 
BRANCH   7  10
ATOM      8  N   UNL     1       0.223  10.597  19.849  0.00  0.00    +0.000 N 
ATOM      9  C   UNL     1       1.142   9.606  19.644  0.00  0.00    +0.000 A 
ATOM     10  C   UNL     1       0.945   8.736  20.697  0.00  0.00    +0.000 A 
ATOM     11  N   UNL     1      -0.012   9.255  21.529  0.00  0.00    +0.000 NA
ATOM     12  N   UNL     1      -0.477  10.366  20.980  0.00  0.00    +0.000 NA
BRANCH   8  13
ATOM     13  C   UNL     1      -0.292  11.546  18.869  0.00  0.00    +0.000 C 
BRANCH  13  21
ATOM     14  C   UNL     1      -2.110  13.442  20.468  0.00  0.00    +0.000 C 
ATOM     15  C   UNL     1      -2.631  12.423  19.488  0.00  0.00    +0.000 A 
ATOM     16  C   UNL     1      -4.032  12.301  19.408  0.00  0.00    +0.000 A 
ATOM     17  C   UNL     1      -4.628  11.381  18.559  0.00  0.00    +0.000 A 
ATOM     18  C   UNL     1      -3.834  10.563  17.769  0.00  0.00    +0.000 A 
ATOM     19  C   UNL     1      -2.432  10.644  17.826  0.00  0.00    +0.000 A 
ATOM     20  C   UNL     1      -1.654   9.695  16.948  0.00  0.00    +0.000 C 
ATOM     21  C   UNL     1      -1.803  11.574  18.703  0.00  0.00    +0.000 A 
ENDBRANCH  13  21
ENDBRANCH   8  13
ENDBRANCH   7  10
ENDBRANCH   1   7
BRANCH   4  22
ATOM     22  C   UNL     1       4.448   4.324  18.505  0.00  0.00    +0.000 C 
BRANCH  22  23
ATOM     23  C   UNL     1       5.939   4.472  18.159  0.00  0.00    +0.000 C 
ATOM     24  O   UNL     1       6.809   4.692  19.007  0.00  0.00    +0.000 OA
ATOM     25  N   UNL     1       6.249   4.341  16.828  0.00  0.00    +0.000 N 
ATOM     26  H   UNL     1       5.579   4.239  16.073  0.00  0.00    +0.000 HD
BRANCH  25  27
ATOM     27  O   UNL     1       7.598   4.542  16.466  0.00  0.00    +0.000 OA
ATOM     28  H   UNL     1       7.548   4.603  15.487  0.00  0.00    +0.000 HD
ENDBRANCH  25  27
ENDBRANCH  22  23
BRANCH  22  29
ATOM     29  C   UNL     1       3.643   3.680  17.356  0.00  0.00    +0.000 C 
BRANCH  29  30
ATOM     30  C   UNL     1       2.846   2.407  17.724  0.00  0.00    +0.000 C 
ATOM     31  C   UNL     1       3.569   1.614  18.820  0.00  0.00    +0.000 C 
ATOM     32  C   UNL     1       1.421   2.689  18.206  0.00  0.00    +0.000 C 
ENDBRANCH  29  30
ENDBRANCH  22  29
ENDBRANCH   4  22
TORSDOF 9
ENDMDL
MODEL 8
REMARK VINA RESULT:      -7.4      5.303      7.417
REMARK  Name = 
REMARK  13 active torsions:
REMARK  status: ('A' for Active; 'I' for Inactive)
REMARK    1  A    between atoms: C_1  and  C_2
REMARK    2  A    between atoms: C_6  and  C_7
REMARK    3  A    between atoms: C_8  and  C_9
REMARK    4  A    between atoms: C_9  and  N_10
REMARK    5  A    between atoms: C_12  and  C_13
REMARK    6  A    between atoms: C_13  and  N_14
REMARK    7  A    between atoms: N_17  and  C_18
REMARK    8  A    between atoms: C_18  and  C_19
REMARK    9  A    between atoms: C_18  and  C_23
REMARK   10  A    between atoms: C_19  and  C_20
REMARK   11  A    between atoms: C_20  and  C_21
REMARK   12  A    between atoms: C_20  and  C_22
REMARK   13  A    between atoms: N_25  and  O_26
REMARK                            x       y       z     vdW  Elec       q    Type
REMARK                         _______ _______ _______ _____ _____    ______ ____
ROOT
ATOM      1  N   UNL     1       4.342   2.532  17.911  0.00  0.00    +0.000 N 
ATOM      2  C   UNL     1       4.432   3.537  17.002  0.00  0.00    +0.000 C 
ATOM      3  O   UNL     1       3.486   4.202  16.601  0.00  0.00    +0.000 OA
ATOM      4  N   UNL     1       5.714   3.758  16.596  0.00  0.00    +0.000 N 
ATOM      5  H   UNL     1       5.156   2.360  18.476  0.00  0.00    +0.000 HD
ATOM      6  H   UNL     1       6.384   3.002  16.675  0.00  0.00    +0.000 HD
ENDROOT
BRANCH   1   7
ATOM      7  C   UNL     1       3.060   2.179  18.483  0.00  0.00    +0.000 C 
BRANCH   7  10
ATOM      8  N   UNL     1       2.138   5.147  20.360  0.00  0.00    +0.000 N 
ATOM      9  C   UNL     1       3.113   4.228  20.084  0.00  0.00    +0.000 A 
ATOM     10  C   UNL     1       2.492   3.309  19.263  0.00  0.00    +0.000 A 
ATOM     11  N   UNL     1       1.172   3.652  19.131  0.00  0.00    +0.000 NA
ATOM     12  N   UNL     1       0.977   4.796  19.766  0.00  0.00    +0.000 NA
BRANCH   8  13
ATOM     13  C   UNL     1       2.317   6.514  20.834  0.00  0.00    +0.000 C 
BRANCH  13  21
ATOM     14  C   UNL     1       3.526   6.938  18.038  0.00  0.00    +0.000 C 
ATOM     15  C   UNL     1       2.452   7.820  18.620  0.00  0.00    +0.000 A 
ATOM     16  C   UNL     1       2.087   8.941  17.849  0.00  0.00    +0.000 A 
ATOM     17  C   UNL     1       1.127   9.839  18.292  0.00  0.00    +0.000 A 
ATOM     18  C   UNL     1       0.510   9.632  19.517  0.00  0.00    +0.000 A 
ATOM     19  C   UNL     1       0.852   8.533  20.323  0.00  0.00    +0.000 A 
ATOM     20  C   UNL     1       0.144   8.407  21.650  0.00  0.00    +0.000 C 
ATOM     21  C   UNL     1       1.847   7.610  19.889  0.00  0.00    +0.000 A 
ENDBRANCH  13  21
ENDBRANCH   8  13
ENDBRANCH   7  10
ENDBRANCH   1   7
BRANCH   4  22
ATOM     22  C   UNL     1       6.097   4.904  15.781  0.00  0.00    +0.000 C 
BRANCH  22  23
ATOM     23  C   UNL     1       6.314   4.451  14.328  0.00  0.00    +0.000 C 
ATOM     24  O   UNL     1       7.392   4.570  13.738  0.00  0.00    +0.000 OA
ATOM     25  N   UNL     1       5.217   3.896  13.715  0.00  0.00    +0.000 N 
ATOM     26  H   UNL     1       4.285   3.840  14.112  0.00  0.00    +0.000 HD
BRANCH  25  27
ATOM     27  O   UNL     1       5.360   3.535  12.359  0.00  0.00    +0.000 OA
ATOM     28  H   UNL     1       4.924   4.282  11.893  0.00  0.00    +0.000 HD
ENDBRANCH  25  27
ENDBRANCH  22  23
BRANCH  22  29
ATOM     29  C   UNL     1       7.333   5.628  16.358  0.00  0.00    +0.000 C 
BRANCH  29  30
ATOM     30  C   UNL     1       7.084   6.480  17.624  0.00  0.00    +0.000 C 
ATOM     31  C   UNL     1       7.692   5.804  18.860  0.00  0.00    +0.000 C 
ATOM     32  C   UNL     1       7.652   7.899  17.534  0.00  0.00    +0.000 C 
ENDBRANCH  29  30
ENDBRANCH  22  29
ENDBRANCH   4  22
TORSDOF 9
ENDMDL
MODEL 9
REMARK VINA RESULT:      -7.4      6.408     10.031
REMARK  Name = 
REMARK  13 active torsions:
REMARK  status: ('A' for Active; 'I' for Inactive)
REMARK    1  A    between atoms: C_1  and  C_2
REMARK    2  A    between atoms: C_6  and  C_7
REMARK    3  A    between atoms: C_8  and  C_9
REMARK    4  A    between atoms: C_9  and  N_10
REMARK    5  A    between atoms: C_12  and  C_13
REMARK    6  A    between atoms: C_13  and  N_14
REMARK    7  A    between atoms: N_17  and  C_18
REMARK    8  A    between atoms: C_18  and  C_19
REMARK    9  A    between atoms: C_18  and  C_23
REMARK   10  A    between atoms: C_19  and  C_20
REMARK   11  A    between atoms: C_20  and  C_21
REMARK   12  A    between atoms: C_20  and  C_22
REMARK   13  A    between atoms: N_25  and  O_26
REMARK                            x       y       z     vdW  Elec       q    Type
REMARK                         _______ _______ _______ _____ _____    ______ ____
ROOT
ATOM      1  N   UNL     1       2.266   7.142  20.215  0.00  0.00    +0.000 N 
ATOM      2  C   UNL     1       2.806   5.898  20.135  0.00  0.00    +0.000 C 
ATOM      3  O   UNL     1       2.470   4.945  20.825  0.00  0.00    +0.000 OA
ATOM      4  N   UNL     1       3.759   5.807  19.166  0.00  0.00    +0.000 N 
ATOM      5  H   UNL     1       2.279   7.695  19.375  0.00  0.00    +0.000 HD
ATOM      6  H   UNL     1       4.234   6.652  18.872  0.00  0.00    +0.000 HD
ENDROOT
BRANCH   1   7
ATOM      7  C   UNL     1       1.210   7.417  21.166  0.00  0.00    +0.000 C 
BRANCH   7  10
ATOM      8  N   UNL     1      -0.006  10.832  20.972  0.00  0.00    +0.000 N 
ATOM      9  C   UNL     1       0.116   9.627  20.338  0.00  0.00    +0.000 A 
ATOM     10  C   UNL     1       0.882   8.866  21.198  0.00  0.00    +0.000 A 
ATOM     11  N   UNL     1       1.254   9.641  22.265  0.00  0.00    +0.000 NA
ATOM     12  N   UNL     1       0.672  10.823  22.139  0.00  0.00    +0.000 NA
BRANCH   8  13
ATOM     13  C   UNL     1      -1.012  11.861  20.734  0.00  0.00    +0.000 C 
BRANCH  13  21
ATOM     14  C   UNL     1       0.840  14.236  20.113  0.00  0.00    +0.000 C 
ATOM     15  C   UNL     1      -0.024  14.158  21.345  0.00  0.00    +0.000 A 
ATOM     16  C   UNL     1       0.133  15.201  22.279  0.00  0.00    +0.000 A 
ATOM     17  C   UNL     1      -0.591  15.225  23.462  0.00  0.00    +0.000 A 
ATOM     18  C   UNL     1      -1.490  14.204  23.735  0.00  0.00    +0.000 A 
ATOM     19  C   UNL     1      -1.669  13.139  22.836  0.00  0.00    +0.000 A 
ATOM     20  C   UNL     1      -2.651  12.063  23.234  0.00  0.00    +0.000 C 
ATOM     21  C   UNL     1      -0.923  13.092  21.624  0.00  0.00    +0.000 A 
ENDBRANCH  13  21
ENDBRANCH   8  13
ENDBRANCH   7  10
ENDBRANCH   1   7
BRANCH   4  22
ATOM     22  C   UNL     1       4.343   4.537  18.750  0.00  0.00    +0.000 C 
BRANCH  22  23
ATOM     23  C   UNL     1       5.876   4.663  18.720  0.00  0.00    +0.000 C 
ATOM     24  O   UNL     1       6.528   5.174  19.636  0.00  0.00    +0.000 OA
ATOM     25  N   UNL     1       6.485   4.162  17.596  0.00  0.00    +0.000 N 
ATOM     26  H   UNL     1       6.007   3.803  16.776  0.00  0.00    +0.000 HD
BRANCH  25  27
ATOM     27  O   UNL     1       7.883   4.325  17.503  0.00  0.00    +0.000 OA
ATOM     28  H   UNL     1       8.057   4.131  16.556  0.00  0.00    +0.000 HD
ENDBRANCH  25  27
ENDBRANCH  22  23
BRANCH  22  29
ATOM     29  C   UNL     1       3.770   4.060  17.398  0.00  0.00    +0.000 C 
BRANCH  29  30
ATOM     30  C   UNL     1       2.814   2.846  17.464  0.00  0.00    +0.000 C 
ATOM     31  C   UNL     1       3.446   1.701  18.267  0.00  0.00    +0.000 C 
ATOM     32  C   UNL     1       1.453   3.166  18.088  0.00  0.00    +0.000 C 
ENDBRANCH  29  30
ENDBRANCH  22  29
ENDBRANCH   4  22
TORSDOF 9
ENDMDL
