MODEL 1
REMARK VINA RESULT:      -6.4      0.000      0.000
REMARK  Name = 
REMARK  2 active torsions:
REMARK  status: ('A' for Active; 'I' for Inactive)
REMARK    1  A    between atoms: C_1  and  N_2
REMARK    2  A    between atoms: C_7  and  C_8
REMARK                            x       y       z     vdW  Elec       q    Type
REMARK                         _______ _______ _______ _____ _____    ______ ____
ROOT
ATOM      1  C   UNL     1       7.364   5.756  19.094  0.00  0.00    +0.000 C 
ATOM      2  N   UNL     1       6.273   5.646  18.127  0.00  0.00    +0.000 NA
ATOM      3  C   UNL     1       6.256   6.800  17.225  0.00  0.00    +0.000 C 
ATOM      4  C   UNL     1       5.209   6.672  16.114  0.00  0.00    +0.000 C 
ATOM      5  C   UNL     1       5.504   5.526  15.149  0.00  0.00    +0.000 C 
ATOM      6  O   UNL     1       4.979   4.270  15.561  0.00  0.00    +0.000 OA
ATOM      7  C   UNL     1       5.433   3.793  16.837  0.00  0.00    +0.000 C 
ATOM      8  O   UNL     1       6.617   4.471  17.325  0.00  0.00    +0.000 OA
ENDROOT
BRANCH   7   9
ATOM      9  C   UNL     1       4.270   3.650  17.824  0.00  0.00    +0.000 A 
ATOM     10  C   UNL     1       2.975   4.099  17.506  0.00  0.00    +0.000 A 
ATOM     11  C   UNL     1       1.923   3.965  18.415  0.00  0.00    +0.000 A 
ATOM     12  C   UNL     1       2.151   3.374  19.653  0.00  0.00    +0.000 A 
ATOM     13 CL   UNL     1       0.858   3.217  20.777  0.00  0.00    +0.000 Cl
ATOM     14  C   UNL     1       3.421   2.906  19.986  0.00  0.00    +0.000 A 
ATOM     15  C   UNL     1       4.472   3.037  19.074  0.00  0.00    +0.000 A 
ENDBRANCH   7   9
TORSDOF 1
ENDMDL
MODEL 2
REMARK VINA RESULT:      -6.3      0.033      1.247
REMARK  Name = 
REMARK  2 active torsions:
REMARK  status: ('A' for Active; 'I' for Inactive)
REMARK    1  A    between atoms: C_1  and  N_2
REMARK    2  A    between atoms: C_7  and  C_8
REMARK                            x       y       z     vdW  Elec       q    Type
REMARK                         _______ _______ _______ _____ _____    ______ ____
ROOT
ATOM      1  C   UNL     1       7.376   5.753  19.105  0.00  0.00    +0.000 C 
ATOM      2  N   UNL     1       6.280   5.641  18.144  0.00  0.00    +0.000 NA
ATOM      3  C   UNL     1       6.248   6.802  17.250  0.00  0.00    +0.000 C 
ATOM      4  C   UNL     1       5.196   6.673  16.145  0.00  0.00    +0.000 C 
ATOM      5  C   UNL     1       5.494   5.536  15.171  0.00  0.00    +0.000 C 
ATOM      6  O   UNL     1       4.981   4.274  15.576  0.00  0.00    +0.000 OA
ATOM      7  C   UNL     1       5.447   3.791  16.846  0.00  0.00    +0.000 C 
ATOM      8  O   UNL     1       6.628   4.475  17.331  0.00  0.00    +0.000 OA
ENDROOT
BRANCH   7   9
ATOM      9  C   UNL     1       4.291   3.631  17.839  0.00  0.00    +0.000 A 
ATOM     10  C   UNL     1       4.488   3.064  19.112  0.00  0.00    +0.000 A 
ATOM     11  C   UNL     1       3.426   2.921  20.008  0.00  0.00    +0.000 A 
ATOM     12  C   UNL     1       2.153   3.349  19.644  0.00  0.00    +0.000 A 
ATOM     13 CL   UNL     1       0.843   3.164  20.744  0.00  0.00    +0.000 Cl
ATOM     14  C   UNL     1       1.936   3.929  18.396  0.00  0.00    +0.000 A 
ATOM     15  C   UNL     1       3.000   4.075  17.502  0.00  0.00    +0.000 A 
ENDBRANCH   7   9
TORSDOF 1
ENDMDL
MODEL 3
REMARK VINA RESULT:      -6.3      3.354      5.012
REMARK  Name = 
REMARK  2 active torsions:
REMARK  status: ('A' for Active; 'I' for Inactive)
REMARK    1  A    between atoms: C_1  and  N_2
REMARK    2  A    between atoms: C_7  and  C_8
REMARK                            x       y       z     vdW  Elec       q    Type
REMARK                         _______ _______ _______ _____ _____    ______ ____
ROOT
ATOM      1  C   UNL     1       3.659   1.470  18.564  0.00  0.00    +0.000 C 
ATOM      2  N   UNL     1       3.448   2.891  18.290  0.00  0.00    +0.000 NA
ATOM      3  C   UNL     1       2.021   3.221  18.309  0.00  0.00    +0.000 C 
ATOM      4  C   UNL     1       1.754   4.721  18.152  0.00  0.00    +0.000 C 
ATOM      5  C   UNL     1       2.281   5.544  19.325  0.00  0.00    +0.000 C 
ATOM      6  O   UNL     1       3.640   5.941  19.192  0.00  0.00    +0.000 OA
ATOM      7  C   UNL     1       4.589   4.872  19.046  0.00  0.00    +0.000 C 
ATOM      8  O   UNL     1       4.069   3.575  19.425  0.00  0.00    +0.000 OA
ENDROOT
BRANCH   7   9
ATOM      9  C   UNL     1       5.315   4.953  17.699  0.00  0.00    +0.000 A 
ATOM     10  C   UNL     1       4.753   5.626  16.599  0.00  0.00    +0.000 A 
ATOM     11  C   UNL     1       5.423   5.690  15.375  0.00  0.00    +0.000 A 
ATOM     12  C   UNL     1       6.669   5.088  15.238  0.00  0.00    +0.000 A 
ATOM     13 CL   UNL     1       7.491   5.159  13.728  0.00  0.00    +0.000 Cl
ATOM     14  C   UNL     1       7.255   4.429  16.317  0.00  0.00    +0.000 A 
ATOM     15  C   UNL     1       6.584   4.369  17.542  0.00  0.00    +0.000 A 
ENDBRANCH   7   9
TORSDOF 1
ENDMDL
MODEL 4
REMARK VINA RESULT:      -6.2      3.344      5.146
REMARK  Name = 
REMARK  2 active torsions:
REMARK  status: ('A' for Active; 'I' for Inactive)
REMARK    1  A    between atoms: C_1  and  N_2
REMARK    2  A    between atoms: C_7  and  C_8
REMARK                            x       y       z     vdW  Elec       q    Type
REMARK                         _______ _______ _______ _____ _____    ______ ____
ROOT
ATOM      1  C   UNL     1       3.722   1.510  18.643  0.00  0.00    +0.000 C 
ATOM      2  N   UNL     1       3.515   2.924  18.338  0.00  0.00    +0.000 NA
ATOM      3  C   UNL     1       2.090   3.262  18.363  0.00  0.00    +0.000 C 
ATOM      4  C   UNL     1       1.829   4.759  18.172  0.00  0.00    +0.000 C 
ATOM      5  C   UNL     1       2.372   5.607  19.320  0.00  0.00    +0.000 C 
ATOM      6  O   UNL     1       3.731   5.994  19.164  0.00  0.00    +0.000 OA
ATOM      7  C   UNL     1       4.673   4.918  19.035  0.00  0.00    +0.000 C 
ATOM      8  O   UNL     1       4.151   3.632  19.450  0.00  0.00    +0.000 OA
ENDROOT
BRANCH   7   9
ATOM      9  C   UNL     1       5.386   4.962  17.679  0.00  0.00    +0.000 A 
ATOM     10  C   UNL     1       6.655   4.382  17.495  0.00  0.00    +0.000 A 
ATOM     11  C   UNL     1       7.297   4.432  16.256  0.00  0.00    +0.000 A 
ATOM     12  C   UNL     1       6.674   5.057  15.180  0.00  0.00    +0.000 A 
ATOM     13 CL   UNL     1       7.468   5.127  13.656  0.00  0.00    +0.000 Cl
ATOM     14  C   UNL     1       5.410   5.625  15.332  0.00  0.00    +0.000 A 
ATOM     15  C   UNL     1       4.768   5.572  16.573  0.00  0.00    +0.000 A 
ENDBRANCH   7   9
TORSDOF 1
ENDMDL
MODEL 5
REMARK VINA RESULT:      -6.2      3.042      5.028
REMARK  Name = 
REMARK  2 active torsions:
REMARK  status: ('A' for Active; 'I' for Inactive)
REMARK    1  A    between atoms: C_1  and  N_2
REMARK    2  A    between atoms: C_7  and  C_8
REMARK                            x       y       z     vdW  Elec       q    Type
REMARK                         _______ _______ _______ _____ _____    ______ ____
ROOT
ATOM      1  C   UNL     1       1.780   5.208  20.378  0.00  0.00    +0.000 C 
ATOM      2  N   UNL     1       2.824   4.366  19.798  0.00  0.00    +0.000 NA
ATOM      3  C   UNL     1       3.010   3.146  20.586  0.00  0.00    +0.000 C 
ATOM      4  C   UNL     1       4.006   2.171  19.949  0.00  0.00    +0.000 C 
ATOM      5  C   UNL     1       3.517   1.611  18.615  0.00  0.00    +0.000 C 
ATOM      6  O   UNL     1       3.843   2.418  17.491  0.00  0.00    +0.000 OA
ATOM      7  C   UNL     1       3.339   3.762  17.523  0.00  0.00    +0.000 C 
ATOM      8  O   UNL     1       2.286   3.967  18.496  0.00  0.00    +0.000 OA
ENDROOT
BRANCH   7   9
ATOM      9  C   UNL     1       4.480   4.785  17.523  0.00  0.00    +0.000 A 
ATOM     10  C   UNL     1       5.800   4.416  17.845  0.00  0.00    +0.000 A 
ATOM     11  C   UNL     1       6.831   5.358  17.844  0.00  0.00    +0.000 A 
ATOM     12  C   UNL     1       6.557   6.681  17.515  0.00  0.00    +0.000 A 
ATOM     13 CL   UNL     1       7.826   7.844  17.523  0.00  0.00    +0.000 Cl
ATOM     14  C   UNL     1       5.262   7.069  17.177  0.00  0.00    +0.000 A 
ATOM     15  C   UNL     1       4.232   6.124  17.175  0.00  0.00    +0.000 A 
ENDBRANCH   7   9
TORSDOF 1
ENDMDL
MODEL 6
REMARK VINA RESULT:      -6.2      3.045      4.884
REMARK  Name = 
REMARK  2 active torsions:
REMARK  status: ('A' for Active; 'I' for Inactive)
REMARK    1  A    between atoms: C_1  and  N_2
REMARK    2  A    between atoms: C_7  and  C_8
REMARK                            x       y       z     vdW  Elec       q    Type
REMARK                         _______ _______ _______ _____ _____    ______ ____
ROOT
ATOM      1  C   UNL     1       1.803   5.146  20.447  0.00  0.00    +0.000 C 
ATOM      2  N   UNL     1       2.842   4.322  19.830  0.00  0.00    +0.000 NA
ATOM      3  C   UNL     1       3.056   3.092  20.595  0.00  0.00    +0.000 C 
ATOM      4  C   UNL     1       4.046   2.136  19.921  0.00  0.00    +0.000 C 
ATOM      5  C   UNL     1       3.532   1.592  18.590  0.00  0.00    +0.000 C 
ATOM      6  O   UNL     1       3.826   2.419  17.472  0.00  0.00    +0.000 OA
ATOM      7  C   UNL     1       3.311   3.758  17.536  0.00  0.00    +0.000 C 
ATOM      8  O   UNL     1       2.278   3.938  18.535  0.00  0.00    +0.000 OA
ENDROOT
BRANCH   7   9
ATOM      9  C   UNL     1       4.443   4.791  17.526  0.00  0.00    +0.000 A 
ATOM     10  C   UNL     1       4.201   6.144  17.224  0.00  0.00    +0.000 A 
ATOM     11  C   UNL     1       5.241   7.076  17.215  0.00  0.00    +0.000 A 
ATOM     12  C   UNL     1       6.537   6.668  17.516  0.00  0.00    +0.000 A 
ATOM     13 CL   UNL     1       7.820   7.814  17.496  0.00  0.00    +0.000 Cl
ATOM     14  C   UNL     1       6.799   5.337  17.834  0.00  0.00    +0.000 A 
ATOM     15  C   UNL     1       5.756   4.406  17.846  0.00  0.00    +0.000 A 
ENDBRANCH   7   9
TORSDOF 1
ENDMDL
MODEL 7
REMARK VINA RESULT:      -6.1      3.150      5.005
REMARK  Name = 
REMARK  2 active torsions:
REMARK  status: ('A' for Active; 'I' for Inactive)
REMARK    1  A    between atoms: C_1  and  N_2
REMARK    2  A    between atoms: C_7  and  C_8
REMARK                            x       y       z     vdW  Elec       q    Type
REMARK                         _______ _______ _______ _____ _____    ______ ____
ROOT
ATOM      1  C   UNL     1       2.192   4.770  21.139  0.00  0.00    +0.000 C 
ATOM      2  N   UNL     1       2.727   4.081  19.966  0.00  0.00    +0.000 NA
ATOM      3  C   UNL     1       2.771   2.633  20.184  0.00  0.00    +0.000 C 
ATOM      4  C   UNL     1       3.207   1.856  18.938  0.00  0.00    +0.000 C 
ATOM      5  C   UNL     1       2.209   1.969  17.789  0.00  0.00    +0.000 C 
ATOM      6  O   UNL     1       2.413   3.100  16.951  0.00  0.00    +0.000 OA
ATOM      7  C   UNL     1       2.355   4.377  17.605  0.00  0.00    +0.000 C 
ATOM      8  O   UNL     1       1.740   4.334  18.915  0.00  0.00    +0.000 OA
ENDROOT
BRANCH   7   9
ATOM      9  C   UNL     1       3.693   5.118  17.499  0.00  0.00    +0.000 A 
ATOM     10  C   UNL     1       4.891   4.436  17.213  0.00  0.00    +0.000 A 
ATOM     11  C   UNL     1       6.104   5.121  17.123  0.00  0.00    +0.000 A 
ATOM     12  C   UNL     1       6.135   6.499  17.311  0.00  0.00    +0.000 A 
ATOM     13 CL   UNL     1       7.631   7.342  17.208  0.00  0.00    +0.000 Cl
ATOM     14  C   UNL     1       4.960   7.199  17.579  0.00  0.00    +0.000 A 
ATOM     15  C   UNL     1       3.746   6.513  17.666  0.00  0.00    +0.000 A 
ENDBRANCH   7   9
TORSDOF 1
ENDMDL
MODEL 8
REMARK VINA RESULT:      -6.1      1.628      2.694
REMARK  Name = 
REMARK  2 active torsions:
REMARK  status: ('A' for Active; 'I' for Inactive)
REMARK    1  A    between atoms: C_1  and  N_2
REMARK    2  A    between atoms: C_7  and  C_8
REMARK                            x       y       z     vdW  Elec       q    Type
REMARK                         _______ _______ _______ _____ _____    ______ ____
ROOT
ATOM      1  C   UNL     1       5.854   3.433  15.327  0.00  0.00    +0.000 C 
ATOM      2  N   UNL     1       5.883   4.363  16.455  0.00  0.00    +0.000 NA
ATOM      3  C   UNL     1       7.259   4.634  16.875  0.00  0.00    +0.000 C 
ATOM      4  C   UNL     1       7.349   5.699  17.972  0.00  0.00    +0.000 C 
ATOM      5  C   UNL     1       6.889   7.077  17.500  0.00  0.00    +0.000 C 
ATOM      6  O   UNL     1       5.491   7.299  17.630  0.00  0.00    +0.000 OA
ATOM      7  C   UNL     1       4.646   6.376  16.924  0.00  0.00    +0.000 C 
ATOM      8  O   UNL     1       5.340   5.609  15.911  0.00  0.00    +0.000 OA
ENDROOT
BRANCH   7   9
ATOM      9  C   UNL     1       3.754   5.588  17.890  0.00  0.00    +0.000 A 
ATOM     10  C   UNL     1       3.904   5.696  19.285  0.00  0.00    +0.000 A 
ATOM     11  C   UNL     1       3.087   4.970  20.155  0.00  0.00    +0.000 A 
ATOM     12  C   UNL     1       2.103   4.132  19.640  0.00  0.00    +0.000 A 
ATOM     13 CL   UNL     1       1.103   3.231  20.711  0.00  0.00    +0.000 Cl
ATOM     14  C   UNL     1       1.924   4.021  18.262  0.00  0.00    +0.000 A 
ATOM     15  C   UNL     1       2.740   4.750  17.393  0.00  0.00    +0.000 A 
ENDBRANCH   7   9
TORSDOF 1
ENDMDL
MODEL 9
REMARK VINA RESULT:      -6.1      1.638      2.523
REMARK  Name = 
REMARK  2 active torsions:
REMARK  status: ('A' for Active; 'I' for Inactive)
REMARK    1  A    between atoms: C_1  and  N_2
REMARK    2  A    between atoms: C_7  and  C_8
REMARK                            x       y       z     vdW  Elec       q    Type
REMARK                         _______ _______ _______ _____ _____    ______ ____
ROOT
ATOM      1  C   UNL     1       5.900   3.462  15.264  0.00  0.00    +0.000 C 
ATOM      2  N   UNL     1       5.930   4.368  16.410  0.00  0.00    +0.000 NA
ATOM      3  C   UNL     1       7.305   4.602  16.856  0.00  0.00    +0.000 C 
ATOM      4  C   UNL     1       7.400   5.643  17.975  0.00  0.00    +0.000 C 
ATOM      5  C   UNL     1       6.976   7.039  17.524  0.00  0.00    +0.000 C 
ATOM      6  O   UNL     1       5.581   7.288  17.638  0.00  0.00    +0.000 OA
ATOM      7  C   UNL     1       4.728   6.397  16.901  0.00  0.00    +0.000 C 
ATOM      8  O   UNL     1       5.421   5.636  15.883  0.00  0.00    +0.000 OA
ENDROOT
BRANCH   7   9
ATOM      9  C   UNL     1       3.805   5.609  17.837  0.00  0.00    +0.000 A 
ATOM     10  C   UNL     1       2.808   4.751  17.336  0.00  0.00    +0.000 A 
ATOM     11  C   UNL     1       1.971   4.041  18.199  0.00  0.00    +0.000 A 
ATOM     12  C   UNL     1       2.124   4.173  19.575  0.00  0.00    +0.000 A 
ATOM     13 CL   UNL     1       1.087   3.304  20.638  0.00  0.00    +0.000 Cl
ATOM     14  C   UNL     1       3.115   5.003  20.096  0.00  0.00    +0.000 A 
ATOM     15  C   UNL     1       3.955   5.711  19.231  0.00  0.00    +0.000 A 
ENDBRANCH   7   9
TORSDOF 1
ENDMDL
