MODEL 1
REMARK VINA RESULT:      -7.3      0.000      0.000
REMARK  Name = 
REMARK  8 active torsions:
REMARK  status: ('A' for Active; 'I' for Inactive)
REMARK    1  A    between atoms: C_2  and  C_3
REMARK    2  A    between atoms: C_8  and  C_10
REMARK    3  A    between atoms: C_10  and  N_11
REMARK    4  A    between atoms: N_11  and  N_12
REMARK    5  A    between atoms: N_11  and  C_13
REMARK    6  A    between atoms: N_16  and  C_17
REMARK    7  A    between atoms: C_17  and  C_18
REMARK    8  A    between atoms: C_21  and  N_22
REMARK                            x       y       z     vdW  Elec       q    Type
REMARK                         _______ _______ _______ _____ _____    ______ ____
ROOT
ATOM      1  C   UNL     1       0.547  10.814  19.208  0.00  0.00    +0.000 C 
ATOM      2  C   UNL     1       1.677  10.581  18.186  0.00  0.00    +0.000 C 
ATOM      3  C   UNL     1       1.854   9.100  17.865  0.00  0.00    +0.000 C 
ATOM      4  N   UNL     1       2.157   8.282  19.060  0.00  0.00    +0.000 NA
ATOM      5  C   UNL     1       1.158   8.502  20.120  0.00  0.00    +0.000 C 
ATOM      6  C   UNL     1       0.960   9.984  20.444  0.00  0.00    +0.000 C 
ENDROOT
BRANCH   1   7
ATOM      7  N   UNL     1      -0.835  10.495  18.684  0.00  0.00    +0.000 NA
BRANCH   7   8
ATOM      8  N   UNL     1      -0.712   9.819  17.389  0.00  0.00    +0.000 NA
ATOM      9  H   UNL     1      -1.656   9.660  17.003  0.00  0.00    +0.000 HD
ATOM     10  H   UNL     1      -0.372   8.863  17.527  0.00  0.00    +0.000 HD
ENDBRANCH   7   8
BRANCH   7  11
ATOM     11  C   UNL     1      -1.572  11.776  18.463  0.00  0.00    +0.000 C 
BRANCH  11  17
ATOM     12  C   UNL     1      -4.606  11.283  17.965  0.00  0.00    +0.000 C 
ATOM     13  C   UNL     1      -5.916  11.977  17.605  0.00  0.00    +0.000 C 
ATOM     14  S   UNL     1      -6.564  12.627  19.167  0.00  0.00    +0.000 S 
ATOM     15  C   UNL     1      -4.991  12.477  20.050  0.00  0.00    +0.000 C 
ATOM     16  N   UNL     1      -3.998  12.070  19.082  0.00  0.00    +0.000 N 
ATOM     17  C   UNL     1      -2.656  12.146  19.493  0.00  0.00    +0.000 C 
ATOM     18  O   UNL     1      -2.376  12.542  20.630  0.00  0.00    +0.000 OA
BRANCH  12  20
ATOM     19  N   UNL     1      -2.982  11.178  15.710  0.00  0.00    +0.000 NA
ATOM     20  C   UNL     1      -3.718  11.226  16.732  0.00  0.00    +0.000 C 
ENDBRANCH  12  20
ENDBRANCH  11  17
ENDBRANCH   7  11
ENDBRANCH   1   7
BRANCH   4  21
ATOM     21  C   UNL     1       2.202   6.861  18.650  0.00  0.00    +0.000 C 
BRANCH  21  22
ATOM     22  C   UNL     1       3.582   6.270  18.465  0.00  0.00    +0.000 A 
ATOM     23  C   UNL     1       4.355   6.621  17.346  0.00  0.00    +0.000 A 
ATOM     24  C   UNL     1       5.661   6.148  17.197  0.00  0.00    +0.000 A 
ATOM     25  C   UNL     1       6.203   5.311  18.181  0.00  0.00    +0.000 A 
ATOM     26  C   UNL     1       5.439   4.928  19.291  0.00  0.00    +0.000 A 
ATOM     27  C   UNL     1       4.129   5.409  19.429  0.00  0.00    +0.000 A 
BRANCH  25  28
ATOM     28  N   UNL     1       7.592   4.849  18.056  0.00  0.00    +0.000 N 
ATOM     29  O   UNL     1       7.957   4.418  16.952  0.00  0.00    +0.000 OA
ATOM     30  O   UNL     1       8.320   4.925  19.056  0.00  0.00    +0.000 OA
ENDBRANCH  25  28
ENDBRANCH  21  22
ENDBRANCH   4  21
TORSDOF 8
ENDMDL
MODEL 2
REMARK VINA RESULT:      -7.3      1.777      2.685
REMARK  Name = 
REMARK  8 active torsions:
REMARK  status: ('A' for Active; 'I' for Inactive)
REMARK    1  A    between atoms: C_2  and  C_3
REMARK    2  A    between atoms: C_8  and  C_10
REMARK    3  A    between atoms: C_10  and  N_11
REMARK    4  A    between atoms: N_11  and  N_12
REMARK    5  A    between atoms: N_11  and  C_13
REMARK    6  A    between atoms: N_16  and  C_17
REMARK    7  A    between atoms: C_17  and  C_18
REMARK    8  A    between atoms: C_21  and  N_22
REMARK                            x       y       z     vdW  Elec       q    Type
REMARK                         _______ _______ _______ _____ _____    ______ ____
ROOT
ATOM      1  C   UNL     1       0.203  12.105  19.717  0.00  0.00    +0.000 C 
ATOM      2  C   UNL     1       1.563  12.195  18.996  0.00  0.00    +0.000 C 
ATOM      3  C   UNL     1       1.789  11.008  18.063  0.00  0.00    +0.000 C 
ATOM      4  N   UNL     1       1.739   9.706  18.761  0.00  0.00    +0.000 NA
ATOM      5  C   UNL     1       0.496   9.569  19.539  0.00  0.00    +0.000 C 
ATOM      6  C   UNL     1       0.249  10.757  20.471  0.00  0.00    +0.000 C 
ENDROOT
BRANCH   1   7
ATOM      7  N   UNL     1      -0.992  12.262  18.803  0.00  0.00    +0.000 NA
BRANCH   7   8
ATOM      8  N   UNL     1      -0.940  13.583  18.170  0.00  0.00    +0.000 NA
ATOM      9  H   UNL     1      -0.534  13.485  17.226  0.00  0.00    +0.000 HD
ATOM     10  H   UNL     1      -0.246  14.168  18.644  0.00  0.00    +0.000 HD
ENDBRANCH   7   8
BRANCH   7  11
ATOM     11  C   UNL     1      -2.237  12.198  19.627  0.00  0.00    +0.000 C 
BRANCH  11  17
ATOM     12  C   UNL     1      -5.018  12.910  20.831  0.00  0.00    +0.000 C 
ATOM     13  C   UNL     1      -6.260  12.310  21.484  0.00  0.00    +0.000 C 
ATOM     14  S   UNL     1      -7.307  11.757  20.114  0.00  0.00    +0.000 S 
ATOM     15  C   UNL     1      -5.978  11.809  18.886  0.00  0.00    +0.000 C 
ATOM     16  N   UNL     1      -4.756  12.110  19.596  0.00  0.00    +0.000 N 
ATOM     17  C   UNL     1      -3.559  11.942  18.879  0.00  0.00    +0.000 C 
ATOM     18  O   UNL     1      -3.587  11.557  17.705  0.00  0.00    +0.000 OA
BRANCH  12  20
ATOM     19  N   UNL     1      -2.907  12.826  22.640  0.00  0.00    +0.000 NA
ATOM     20  C   UNL     1      -3.864  12.864  21.820  0.00  0.00    +0.000 C 
ENDBRANCH  12  20
ENDBRANCH  11  17
ENDBRANCH   7  11
ENDBRANCH   1   7
BRANCH   4  21
ATOM     21  C   UNL     1       1.863   8.632  17.751  0.00  0.00    +0.000 C 
BRANCH  21  22
ATOM     22  C   UNL     1       2.789   7.492  18.109  0.00  0.00    +0.000 A 
ATOM     23  C   UNL     1       3.959   7.271  17.361  0.00  0.00    +0.000 A 
ATOM     24  C   UNL     1       4.866   6.273  17.723  0.00  0.00    +0.000 A 
ATOM     25  C   UNL     1       4.602   5.483  18.848  0.00  0.00    +0.000 A 
ATOM     26  C   UNL     1       3.429   5.669  19.592  0.00  0.00    +0.000 A 
ATOM     27  C   UNL     1       2.526   6.674  19.218  0.00  0.00    +0.000 A 
BRANCH  25  28
ATOM     28  N   UNL     1       5.576   4.463  19.263  0.00  0.00    +0.000 N 
ATOM     29  O   UNL     1       5.139   3.348  19.583  0.00  0.00    +0.000 OA
ATOM     30  O   UNL     1       6.775   4.774  19.260  0.00  0.00    +0.000 OA
ENDBRANCH  25  28
ENDBRANCH  21  22
ENDBRANCH   4  21
TORSDOF 8
ENDMDL
MODEL 3
REMARK VINA RESULT:      -7.2      2.678      3.634
REMARK  Name = 
REMARK  8 active torsions:
REMARK  status: ('A' for Active; 'I' for Inactive)
REMARK    1  A    between atoms: C_2  and  C_3
REMARK    2  A    between atoms: C_8  and  C_10
REMARK    3  A    between atoms: C_10  and  N_11
REMARK    4  A    between atoms: N_11  and  N_12
REMARK    5  A    between atoms: N_11  and  C_13
REMARK    6  A    between atoms: N_16  and  C_17
REMARK    7  A    between atoms: C_17  and  C_18
REMARK    8  A    between atoms: C_21  and  N_22
REMARK                            x       y       z     vdW  Elec       q    Type
REMARK                         _______ _______ _______ _____ _____    ______ ____
ROOT
ATOM      1  C   UNL     1       0.902  10.408  19.436  0.00  0.00    +0.000 C 
ATOM      2  C   UNL     1       1.820  10.166  18.221  0.00  0.00    +0.000 C 
ATOM      3  C   UNL     1       1.866   8.691  17.830  0.00  0.00    +0.000 C 
ATOM      4  N   UNL     1       2.337   7.817  18.926  0.00  0.00    +0.000 NA
ATOM      5  C   UNL     1       1.555   8.040  20.155  0.00  0.00    +0.000 C 
ATOM      6  C   UNL     1       1.489   9.516  20.553  0.00  0.00    +0.000 C 
ENDROOT
BRANCH   1   7
ATOM      7  N   UNL     1      -0.565  10.166  19.159  0.00  0.00    +0.000 NA
BRANCH   7   8
ATOM      8  N   UNL     1      -0.807  10.290  17.719  0.00  0.00    +0.000 NA
ATOM      9  H   UNL     1      -0.607   9.383  17.267  0.00  0.00    +0.000 HD
ATOM     10  H   UNL     1      -0.100  10.900  17.299  0.00  0.00    +0.000 HD
ENDBRANCH   7   8
BRANCH   7  11
ATOM     11  C   UNL     1      -1.364  11.224  19.850  0.00  0.00    +0.000 C 
BRANCH  11  17
ATOM     12  C   UNL     1      -0.241  13.257  21.922  0.00  0.00    +0.000 C 
ATOM     13  C   UNL     1      -0.619  14.447  22.799  0.00  0.00    +0.000 C 
ATOM     14  S   UNL     1      -0.492  15.900  21.724  0.00  0.00    +0.000 S 
ATOM     15  C   UNL     1      -0.500  14.944  20.187  0.00  0.00    +0.000 C 
ATOM     16  N   UNL     1      -0.740  13.565  20.546  0.00  0.00    +0.000 N 
ATOM     17  C   UNL     1      -1.045  12.688  19.491  0.00  0.00    +0.000 C 
ATOM     18  O   UNL     1      -1.094  13.107  18.330  0.00  0.00    +0.000 OA
BRANCH  12  20
ATOM     19  N   UNL     1      -1.365  10.947  22.986  0.00  0.00    +0.000 NA
ATOM     20  C   UNL     1      -0.855  11.995  22.504  0.00  0.00    +0.000 C 
ENDBRANCH  12  20
ENDBRANCH  11  17
ENDBRANCH   7  11
ENDBRANCH   1   7
BRANCH   4  21
ATOM     21  C   UNL     1       2.240   6.412  18.474  0.00  0.00    +0.000 C 
BRANCH  21  22
ATOM     22  C   UNL     1       3.442   5.873  17.732  0.00  0.00    +0.000 A 
ATOM     23  C   UNL     1       3.556   4.495  17.479  0.00  0.00    +0.000 A 
ATOM     24  C   UNL     1       4.619   3.987  16.728  0.00  0.00    +0.000 A 
ATOM     25  C   UNL     1       5.582   4.868  16.222  0.00  0.00    +0.000 A 
ATOM     26  C   UNL     1       5.502   6.241  16.485  0.00  0.00    +0.000 A 
ATOM     27  C   UNL     1       4.431   6.739  17.240  0.00  0.00    +0.000 A 
BRANCH  25  28
ATOM     28  N   UNL     1       6.676   4.346  15.391  0.00  0.00    +0.000 N 
ATOM     29  O   UNL     1       6.371   3.748  14.348  0.00  0.00    +0.000 OA
ATOM     30  O   UNL     1       7.838   4.541  15.774  0.00  0.00    +0.000 OA
ENDBRANCH  25  28
ENDBRANCH  21  22
ENDBRANCH   4  21
TORSDOF 8
ENDMDL
MODEL 4
REMARK VINA RESULT:      -7.2      1.465      2.445
REMARK  Name = 
REMARK  8 active torsions:
REMARK  status: ('A' for Active; 'I' for Inactive)
REMARK    1  A    between atoms: C_2  and  C_3
REMARK    2  A    between atoms: C_8  and  C_10
REMARK    3  A    between atoms: C_10  and  N_11
REMARK    4  A    between atoms: N_11  and  N_12
REMARK    5  A    between atoms: N_11  and  C_13
REMARK    6  A    between atoms: N_16  and  C_17
REMARK    7  A    between atoms: C_17  and  C_18
REMARK    8  A    between atoms: C_21  and  N_22
REMARK                            x       y       z     vdW  Elec       q    Type
REMARK                         _______ _______ _______ _____ _____    ______ ____
ROOT
ATOM      1  C   UNL     1       0.532  11.656  19.265  0.00  0.00    +0.000 C 
ATOM      2  C   UNL     1       1.805  11.464  18.416  0.00  0.00    +0.000 C 
ATOM      3  C   UNL     1       1.915  10.041  17.875  0.00  0.00    +0.000 C 
ATOM      4  N   UNL     1       1.930   9.016  18.941  0.00  0.00    +0.000 NA
ATOM      5  C   UNL     1       0.780   9.175  19.847  0.00  0.00    +0.000 C 
ATOM      6  C   UNL     1       0.648  10.600  20.388  0.00  0.00    +0.000 C 
ENDROOT
BRANCH   1   7
ATOM      7  N   UNL     1      -0.755  11.578  18.475  0.00  0.00    +0.000 NA
BRANCH   7   8
ATOM      8  N   UNL     1      -0.862  12.761  17.617  0.00  0.00    +0.000 NA
ATOM      9  H   UNL     1      -0.870  13.605  18.211  0.00  0.00    +0.000 HD
ATOM     10  H   UNL     1      -1.789  12.793  17.183  0.00  0.00    +0.000 HD
ENDBRANCH   7   8
BRANCH   7  11
ATOM     11  C   UNL     1      -1.905  11.600  19.429  0.00  0.00    +0.000 C 
BRANCH  11  17
ATOM     12  C   UNL     1      -4.155  13.086  20.985  0.00  0.00    +0.000 C 
ATOM     13  C   UNL     1      -5.455  12.876  21.756  0.00  0.00    +0.000 C 
ATOM     14  S   UNL     1      -6.757  12.807  20.498  0.00  0.00    +0.000 S 
ATOM     15  C   UNL     1      -5.615  12.518  19.124  0.00  0.00    +0.000 C 
ATOM     16  N   UNL     1      -4.299  12.345  19.695  0.00  0.00    +0.000 N 
ATOM     17  C   UNL     1      -3.304  11.851  18.833  0.00  0.00    +0.000 C 
ATOM     18  O   UNL     1      -3.574  11.592  17.656  0.00  0.00    +0.000 OA
BRANCH  12  20
ATOM     19  N   UNL     1      -2.027  12.171  22.524  0.00  0.00    +0.000 NA
ATOM     20  C   UNL     1      -2.992  12.585  21.827  0.00  0.00    +0.000 C 
ENDBRANCH  12  20
ENDBRANCH  11  17
ENDBRANCH   7  11
ENDBRANCH   1   7
BRANCH   4  21
ATOM     21  C   UNL     1       1.932   7.681  18.302  0.00  0.00    +0.000 C 
BRANCH  21  22
ATOM     22  C   UNL     1       3.275   6.992  18.216  0.00  0.00    +0.000 A 
ATOM     23  C   UNL     1       3.618   5.996  19.147  0.00  0.00    +0.000 A 
ATOM     24  C   UNL     1       4.820   5.293  19.038  0.00  0.00    +0.000 A 
ATOM     25  C   UNL     1       5.693   5.589  17.984  0.00  0.00    +0.000 A 
ATOM     26  C   UNL     1       5.382   6.596  17.061  0.00  0.00    +0.000 A 
ATOM     27  C   UNL     1       4.173   7.295  17.181  0.00  0.00    +0.000 A 
BRANCH  25  28
ATOM     28  N   UNL     1       6.937   4.820  17.835  0.00  0.00    +0.000 N 
ATOM     29  O   UNL     1       7.178   4.326  16.724  0.00  0.00    +0.000 OA
ATOM     30  O   UNL     1       7.675   4.718  18.825  0.00  0.00    +0.000 OA
ENDBRANCH  25  28
ENDBRANCH  21  22
ENDBRANCH   4  21
TORSDOF 8
ENDMDL
MODEL 5
REMARK VINA RESULT:      -7.2      1.402      1.767
REMARK  Name = 
REMARK  8 active torsions:
REMARK  status: ('A' for Active; 'I' for Inactive)
REMARK    1  A    between atoms: C_2  and  C_3
REMARK    2  A    between atoms: C_8  and  C_10
REMARK    3  A    between atoms: C_10  and  N_11
REMARK    4  A    between atoms: N_11  and  N_12
REMARK    5  A    between atoms: N_11  and  C_13
REMARK    6  A    between atoms: N_16  and  C_17
REMARK    7  A    between atoms: C_17  and  C_18
REMARK    8  A    between atoms: C_21  and  N_22
REMARK                            x       y       z     vdW  Elec       q    Type
REMARK                         _______ _______ _______ _____ _____    ______ ____
ROOT
ATOM      1  C   UNL     1       0.591  12.346  19.564  0.00  0.00    +0.000 C 
ATOM      2  C   UNL     1       1.953  12.235  18.851  0.00  0.00    +0.000 C 
ATOM      3  C   UNL     1       2.040  10.978  17.990  0.00  0.00    +0.000 C 
ATOM      4  N   UNL     1       1.837   9.733  18.762  0.00  0.00    +0.000 NA
ATOM      5  C   UNL     1       0.585   9.787  19.536  0.00  0.00    +0.000 C 
ATOM      6  C   UNL     1       0.477  11.048  20.395  0.00  0.00    +0.000 C 
ENDROOT
BRANCH   1   7
ATOM      7  N   UNL     1      -0.576  12.588  18.633  0.00  0.00    +0.000 NA
BRANCH   7   8
ATOM      8  N   UNL     1      -1.033  13.971  18.787  0.00  0.00    +0.000 NA
ATOM      9  H   UNL     1      -0.237  14.554  19.094  0.00  0.00    +0.000 HD
ATOM     10  H   UNL     1      -1.671  14.040  19.586  0.00  0.00    +0.000 HD
ENDBRANCH   7   8
BRANCH   7  11
ATOM     11  C   UNL     1      -1.701  11.687  19.030  0.00  0.00    +0.000 C 
BRANCH  11  17
ATOM     12  C   UNL     1      -4.664  11.530  18.088  0.00  0.00    +0.000 C 
ATOM     13  C   UNL     1      -5.788  12.335  17.442  0.00  0.00    +0.000 C 
ATOM     14  S   UNL     1      -6.561  13.258  18.796  0.00  0.00    +0.000 S 
ATOM     15  C   UNL     1      -5.178  13.021  19.940  0.00  0.00    +0.000 C 
ATOM     16  N   UNL     1      -4.122  12.368  19.200  0.00  0.00    +0.000 N 
ATOM     17  C   UNL     1      -2.861  12.323  19.820  0.00  0.00    +0.000 C 
ATOM     18  O   UNL     1      -2.700  12.822  20.938  0.00  0.00    +0.000 OA
BRANCH  12  20
ATOM     19  N   UNL     1      -2.752  10.929  16.159  0.00  0.00    +0.000 NA
ATOM     20  C   UNL     1      -3.619  11.201  17.034  0.00  0.00    +0.000 C 
ENDBRANCH  12  20
ENDBRANCH  11  17
ENDBRANCH   7  11
ENDBRANCH   1   7
BRANCH   4  21
ATOM     21  C   UNL     1       1.837   8.595  17.816  0.00  0.00    +0.000 C 
BRANCH  21  22
ATOM     22  C   UNL     1       2.765   7.451  18.158  0.00  0.00    +0.000 A 
ATOM     23  C   UNL     1       3.907   7.210  17.374  0.00  0.00    +0.000 A 
ATOM     24  C   UNL     1       4.817   6.208  17.719  0.00  0.00    +0.000 A 
ATOM     25  C   UNL     1       4.584   5.435  18.864  0.00  0.00    +0.000 A 
ATOM     26  C   UNL     1       3.439   5.642  19.643  0.00  0.00    +0.000 A 
ATOM     27  C   UNL     1       2.532   6.650  19.287  0.00  0.00    +0.000 A 
BRANCH  25  28
ATOM     28  N   UNL     1       5.562   4.413  19.260  0.00  0.00    +0.000 N 
ATOM     29  O   UNL     1       6.730   4.779  19.453  0.00  0.00    +0.000 OA
ATOM     30  O   UNL     1       5.161   3.247  19.386  0.00  0.00    +0.000 OA
ENDBRANCH  25  28
ENDBRANCH  21  22
ENDBRANCH   4  21
TORSDOF 8
ENDMDL
MODEL 6
REMARK VINA RESULT:      -7.0      1.586      2.548
REMARK  Name = 
REMARK  8 active torsions:
REMARK  status: ('A' for Active; 'I' for Inactive)
REMARK    1  A    between atoms: C_2  and  C_3
REMARK    2  A    between atoms: C_8  and  C_10
REMARK    3  A    between atoms: C_10  and  N_11
REMARK    4  A    between atoms: N_11  and  N_12
REMARK    5  A    between atoms: N_11  and  C_13
REMARK    6  A    between atoms: N_16  and  C_17
REMARK    7  A    between atoms: C_17  and  C_18
REMARK    8  A    between atoms: C_21  and  N_22
REMARK                            x       y       z     vdW  Elec       q    Type
REMARK                         _______ _______ _______ _____ _____    ______ ____
ROOT
ATOM      1  C   UNL     1       0.813  10.678  19.222  0.00  0.00    +0.000 C 
ATOM      2  C   UNL     1       1.803  10.372  18.081  0.00  0.00    +0.000 C 
ATOM      3  C   UNL     1       1.843   8.883  17.750  0.00  0.00    +0.000 C 
ATOM      4  N   UNL     1       2.222   8.043  18.907  0.00  0.00    +0.000 NA
ATOM      5  C   UNL     1       1.366   8.328  20.072  0.00  0.00    +0.000 C 
ATOM      6  C   UNL     1       1.306   9.819  20.409  0.00  0.00    +0.000 C 
ENDROOT
BRANCH   1   7
ATOM      7  N   UNL     1      -0.638  10.453  18.857  0.00  0.00    +0.000 NA
BRANCH   7   8
ATOM      8  N   UNL     1      -0.729  10.138  17.429  0.00  0.00    +0.000 NA
ATOM      9  H   UNL     1      -0.034   9.408  17.203  0.00  0.00    +0.000 HD
ATOM     10  H   UNL     1      -0.396  10.932  16.876  0.00  0.00    +0.000 HD
ENDBRANCH   7   8
BRANCH   7  11
ATOM     11  C   UNL     1      -1.393  11.721  19.095  0.00  0.00    +0.000 C 
BRANCH  11  17
ATOM     12  C   UNL     1      -3.616  13.032  20.837  0.00  0.00    +0.000 C 
ATOM     13  C   UNL     1      -4.769  12.723  21.787  0.00  0.00    +0.000 C 
ATOM     14  S   UNL     1      -6.195  12.383  20.723  0.00  0.00    +0.000 S 
ATOM     15  C   UNL     1      -5.203  12.128  19.230  0.00  0.00    +0.000 C 
ATOM     16  N   UNL     1      -3.815  12.173  19.629  0.00  0.00    +0.000 N 
ATOM     17  C   UNL     1      -2.876  11.740  18.677  0.00  0.00    +0.000 C 
ATOM     18  O   UNL     1      -3.252  11.350  17.567  0.00  0.00    +0.000 OA
BRANCH  12  20
ATOM     19  N   UNL     1      -1.207  12.531  22.134  0.00  0.00    +0.000 NA
ATOM     20  C   UNL     1      -2.299  12.758  21.545  0.00  0.00    +0.000 C 
ENDBRANCH  12  20
ENDBRANCH  11  17
ENDBRANCH   7  11
ENDBRANCH   1   7
BRANCH   4  21
ATOM     21  C   UNL     1       2.126   6.623  18.502  0.00  0.00    +0.000 C 
BRANCH  21  22
ATOM     22  C   UNL     1       3.359   6.036  17.853  0.00  0.00    +0.000 A 
ATOM     23  C   UNL     1       3.426   4.658  17.585  0.00  0.00    +0.000 A 
ATOM     24  C   UNL     1       4.523   4.109  16.917  0.00  0.00    +0.000 A 
ATOM     25  C   UNL     1       5.568   4.948  16.509  0.00  0.00    +0.000 A 
ATOM     26  C   UNL     1       5.531   6.320  16.790  0.00  0.00    +0.000 A 
ATOM     27  C   UNL     1       4.426   6.859  17.463  0.00  0.00    +0.000 A 
BRANCH  25  28
ATOM     28  N   UNL     1       6.701   4.385  15.763  0.00  0.00    +0.000 N 
ATOM     29  O   UNL     1       7.832   4.507  16.256  0.00  0.00    +0.000 OA
ATOM     30  O   UNL     1       6.460   3.813  14.690  0.00  0.00    +0.000 OA
ENDBRANCH  25  28
ENDBRANCH  21  22
ENDBRANCH   4  21
TORSDOF 8
ENDMDL
MODEL 7
REMARK VINA RESULT:      -7.0      2.845      3.392
REMARK  Name = 
REMARK  8 active torsions:
REMARK  status: ('A' for Active; 'I' for Inactive)
REMARK    1  A    between atoms: C_2  and  C_3
REMARK    2  A    between atoms: C_8  and  C_10
REMARK    3  A    between atoms: C_10  and  N_11
REMARK    4  A    between atoms: N_11  and  N_12
REMARK    5  A    between atoms: N_11  and  C_13
REMARK    6  A    between atoms: N_16  and  C_17
REMARK    7  A    between atoms: C_17  and  C_18
REMARK    8  A    between atoms: C_21  and  N_22
REMARK                            x       y       z     vdW  Elec       q    Type
REMARK                         _______ _______ _______ _____ _____    ______ ____
ROOT
ATOM      1  C   UNL     1       0.188   9.907  20.116  0.00  0.00    +0.000 C 
ATOM      2  C   UNL     1       0.357   8.406  20.425  0.00  0.00    +0.000 C 
ATOM      3  C   UNL     1       1.686   7.867  19.903  0.00  0.00    +0.000 C 
ATOM      4  N   UNL     1       1.849   8.044  18.444  0.00  0.00    +0.000 NA
ATOM      5  C   UNL     1       1.628   9.447  18.051  0.00  0.00    +0.000 C 
ATOM      6  C   UNL     1       0.305  10.005  18.578  0.00  0.00    +0.000 C 
ENDROOT
BRANCH   1   7
ATOM      7  N   UNL     1       1.145  10.804  20.868  0.00  0.00    +0.000 NA
BRANCH   7   8
ATOM      8  N   UNL     1       1.589  10.118  22.084  0.00  0.00    +0.000 NA
ATOM      9  H   UNL     1       0.782  10.005  22.718  0.00  0.00    +0.000 HD
ATOM     10  H   UNL     1       2.204  10.733  22.626  0.00  0.00    +0.000 HD
ENDBRANCH   7   8
BRANCH   7  11
ATOM     11  C   UNL     1       0.418  12.043  21.281  0.00  0.00    +0.000 C 
BRANCH  11  17
ATOM     12  C   UNL     1      -2.527  12.724  20.536  0.00  0.00    +0.000 C 
ATOM     13  C   UNL     1      -3.631  13.759  20.731  0.00  0.00    +0.000 C 
ATOM     14  S   UNL     1      -4.423  13.331  22.303  0.00  0.00    +0.000 S 
ATOM     15  C   UNL     1      -3.065  12.274  22.866  0.00  0.00    +0.000 C 
ATOM     16  N   UNL     1      -2.000  12.400  21.897  0.00  0.00    +0.000 N 
ATOM     17  C   UNL     1      -0.752  11.871  22.268  0.00  0.00    +0.000 C 
ATOM     18  O   UNL     1      -0.609  11.331  23.371  0.00  0.00    +0.000 OA
BRANCH  12  20
ATOM     19  N   UNL     1      -0.582  13.775  18.849  0.00  0.00    +0.000 NA
ATOM     20  C   UNL     1      -1.464  13.299  19.614  0.00  0.00    +0.000 C 
ENDBRANCH  12  20
ENDBRANCH  11  17
ENDBRANCH   7  11
ENDBRANCH   1   7
BRANCH   4  21
ATOM     21  C   UNL     1       3.205   7.586  18.068  0.00  0.00    +0.000 C 
BRANCH  21  22
ATOM     22  C   UNL     1       3.496   6.121  18.303  0.00  0.00    +0.000 A 
ATOM     23  C   UNL     1       4.661   5.735  18.989  0.00  0.00    +0.000 A 
ATOM     24  C   UNL     1       4.909   4.392  19.284  0.00  0.00    +0.000 A 
ATOM     25  C   UNL     1       3.981   3.421  18.888  0.00  0.00    +0.000 A 
ATOM     26  C   UNL     1       2.827   3.783  18.181  0.00  0.00    +0.000 A 
ATOM     27  C   UNL     1       2.589   5.133  17.890  0.00  0.00    +0.000 A 
BRANCH  25  28
ATOM     28  N   UNL     1       4.212   2.012  19.238  0.00  0.00    +0.000 N 
ATOM     29  O   UNL     1       3.682   1.148  18.524  0.00  0.00    +0.000 OA
ATOM     30  O   UNL     1       4.929   1.770  20.219  0.00  0.00    +0.000 OA
ENDBRANCH  25  28
ENDBRANCH  21  22
ENDBRANCH   4  21
TORSDOF 8
ENDMDL
MODEL 8
REMARK VINA RESULT:      -7.0      1.893      2.298
REMARK  Name = 
REMARK  8 active torsions:
REMARK  status: ('A' for Active; 'I' for Inactive)
REMARK    1  A    between atoms: C_2  and  C_3
REMARK    2  A    between atoms: C_8  and  C_10
REMARK    3  A    between atoms: C_10  and  N_11
REMARK    4  A    between atoms: N_11  and  N_12
REMARK    5  A    between atoms: N_11  and  C_13
REMARK    6  A    between atoms: N_16  and  C_17
REMARK    7  A    between atoms: C_17  and  C_18
REMARK    8  A    between atoms: C_21  and  N_22
REMARK                            x       y       z     vdW  Elec       q    Type
REMARK                         _______ _______ _______ _____ _____    ______ ____
ROOT
ATOM      1  C   UNL     1       0.424  10.732  18.497  0.00  0.00    +0.000 C 
ATOM      2  C   UNL     1       1.384   9.625  18.017  0.00  0.00    +0.000 C 
ATOM      3  C   UNL     1       1.236   8.351  18.844  0.00  0.00    +0.000 C 
ATOM      4  N   UNL     1       1.486   8.565  20.286  0.00  0.00    +0.000 NA
ATOM      5  C   UNL     1       0.657   9.664  20.811  0.00  0.00    +0.000 C 
ATOM      6  C   UNL     1       0.784  10.945  19.985  0.00  0.00    +0.000 C 
ENDROOT
BRANCH   1   7
ATOM      7  N   UNL     1      -1.038  10.431  18.252  0.00  0.00    +0.000 NA
BRANCH   7   8
ATOM      8  N   UNL     1      -1.170   9.697  16.991  0.00  0.00    +0.000 NA
ATOM      9  H   UNL     1      -0.321   9.851  16.423  0.00  0.00    +0.000 HD
ATOM     10  H   UNL     1      -1.897  10.128  16.412  0.00  0.00    +0.000 HD
ENDBRANCH   7   8
BRANCH   7  11
ATOM     11  C   UNL     1      -1.776  11.723  18.110  0.00  0.00    +0.000 C 
BRANCH  11  17
ATOM     12  C   UNL     1      -4.851  11.290  17.901  0.00  0.00    +0.000 C 
ATOM     13  C   UNL     1      -6.178  12.011  17.675  0.00  0.00    +0.000 C 
ATOM     14  S   UNL     1      -6.661  12.655  19.298  0.00  0.00    +0.000 S 
ATOM     15  C   UNL     1      -5.013  12.467  20.024  0.00  0.00    +0.000 C 
ATOM     16  N   UNL     1      -4.125  12.053  18.962  0.00  0.00    +0.000 N 
ATOM     17  C   UNL     1      -2.749  12.101  19.243  0.00  0.00    +0.000 C 
ATOM     18  O   UNL     1      -2.354  12.480  20.350  0.00  0.00    +0.000 OA
BRANCH  12  20
ATOM     19  N   UNL     1      -3.454  11.181  15.499  0.00  0.00    +0.000 NA
ATOM     20  C   UNL     1      -4.087  11.231  16.588  0.00  0.00    +0.000 C 
ENDBRANCH  12  20
ENDBRANCH  11  17
ENDBRANCH   7  11
ENDBRANCH   1   7
BRANCH   4  21
ATOM     21  C   UNL     1       1.214   7.297  20.998  0.00  0.00    +0.000 C 
BRANCH  21  22
ATOM     22  C   UNL     1       1.915   6.072  20.457  0.00  0.00    +0.000 A 
ATOM     23  C   UNL     1       3.152   6.199  19.801  0.00  0.00    +0.000 A 
ATOM     24  C   UNL     1       3.853   5.073  19.363  0.00  0.00    +0.000 A 
ATOM     25  C   UNL     1       3.311   3.800  19.584  0.00  0.00    +0.000 A 
ATOM     26  C   UNL     1       2.067   3.654  20.212  0.00  0.00    +0.000 A 
ATOM     27  C   UNL     1       1.373   4.791  20.646  0.00  0.00    +0.000 A 
BRANCH  25  28
ATOM     28  N   UNL     1       4.065   2.609  19.169  0.00  0.00    +0.000 N 
ATOM     29  O   UNL     1       4.828   2.094  20.000  0.00  0.00    +0.000 OA
ATOM     30  O   UNL     1       3.889   2.184  18.019  0.00  0.00    +0.000 OA
ENDBRANCH  25  28
ENDBRANCH  21  22
ENDBRANCH   4  21
TORSDOF 8
ENDMDL
MODEL 9
REMARK VINA RESULT:      -7.0      1.471      2.303
REMARK  Name = 
REMARK  8 active torsions:
REMARK  status: ('A' for Active; 'I' for Inactive)
REMARK    1  A    between atoms: C_2  and  C_3
REMARK    2  A    between atoms: C_8  and  C_10
REMARK    3  A    between atoms: C_10  and  N_11
REMARK    4  A    between atoms: N_11  and  N_12
REMARK    5  A    between atoms: N_11  and  C_13
REMARK    6  A    between atoms: N_16  and  C_17
REMARK    7  A    between atoms: C_17  and  C_18
REMARK    8  A    between atoms: C_21  and  N_22
REMARK                            x       y       z     vdW  Elec       q    Type
REMARK                         _______ _______ _______ _____ _____    ______ ____
ROOT
ATOM      1  C   UNL     1       0.374  11.725  19.325  0.00  0.00    +0.000 C 
ATOM      2  C   UNL     1       1.700  11.590  18.551  0.00  0.00    +0.000 C 
ATOM      3  C   UNL     1       1.846  10.211  17.913  0.00  0.00    +0.000 C 
ATOM      4  N   UNL     1       1.790   9.109  18.898  0.00  0.00    +0.000 NA
ATOM      5  C   UNL     1       0.581   9.207  19.734  0.00  0.00    +0.000 C 
ATOM      6  C   UNL     1       0.414  10.588  20.371  0.00  0.00    +0.000 C 
ENDROOT
BRANCH   1   7
ATOM      7  N   UNL     1      -0.858  11.713  18.447  0.00  0.00    +0.000 NA
BRANCH   7   8
ATOM      8  N   UNL     1      -0.865  12.920  17.616  0.00  0.00    +0.000 NA
ATOM      9  H   UNL     1      -0.135  12.832  16.892  0.00  0.00    +0.000 HD
ATOM     10  H   UNL     1      -0.531  13.720  18.162  0.00  0.00    +0.000 HD
ENDBRANCH   7   8
BRANCH   7  11
ATOM     11  C   UNL     1      -2.070  11.751  19.320  0.00  0.00    +0.000 C 
BRANCH  11  17
ATOM     12  C   UNL     1      -4.621  12.943  20.647  0.00  0.00    +0.000 C 
ATOM     13  C   UNL     1      -5.934  12.571  21.330  0.00  0.00    +0.000 C 
ATOM     14  S   UNL     1      -7.112  12.276  19.985  0.00  0.00    +0.000 S 
ATOM     15  C   UNL     1      -5.838  12.113  18.710  0.00  0.00    +0.000 C 
ATOM     16  N   UNL     1      -4.558  12.150  19.381  0.00  0.00    +0.000 N 
ATOM     17  C   UNL     1      -3.440  11.779  18.615  0.00  0.00    +0.000 C 
ATOM     18  O   UNL     1      -3.579  11.447  17.433  0.00  0.00    +0.000 OA
BRANCH  12  20
ATOM     19  N   UNL     1      -2.510  12.393  22.371  0.00  0.00    +0.000 NA
ATOM     20  C   UNL     1      -3.468  12.643  21.590  0.00  0.00    +0.000 C 
ENDBRANCH  12  20
ENDBRANCH  11  17
ENDBRANCH   7  11
ENDBRANCH   1   7
BRANCH   4  21
ATOM     21  C   UNL     1       1.834   7.826  18.162  0.00  0.00    +0.000 C 
BRANCH  21  22
ATOM     22  C   UNL     1       3.158   7.097  18.186  0.00  0.00    +0.000 A 
ATOM     23  C   UNL     1       4.164   7.430  17.262  0.00  0.00    +0.000 A 
ATOM     24  C   UNL     1       5.421   6.823  17.317  0.00  0.00    +0.000 A 
ATOM     25  C   UNL     1       5.677   5.868  18.310  0.00  0.00    +0.000 A 
ATOM     26  C   UNL     1       4.680   5.503  19.223  0.00  0.00    +0.000 A 
ATOM     27  C   UNL     1       3.423   6.119  19.158  0.00  0.00    +0.000 A 
BRANCH  25  28
ATOM     28  N   UNL     1       7.012   5.261  18.404  0.00  0.00    +0.000 N 
ATOM     29  O   UNL     1       7.909   5.926  18.943  0.00  0.00    +0.000 OA
ATOM     30  O   UNL     1       7.162   4.119  17.947  0.00  0.00    +0.000 OA
ENDBRANCH  25  28
ENDBRANCH  21  22
ENDBRANCH   4  21
TORSDOF 8
ENDMDL
