MODEL 1
REMARK VINA RESULT:      -6.6      0.000      0.000
REMARK  Name = 
REMARK  12 active torsions:
REMARK  status: ('A' for Active; 'I' for Inactive)
REMARK    1  A    between atoms: C_1  and  C_2
REMARK    2  A    between atoms: C_3  and  C_4
REMARK    3  A    between atoms: C_7  and  C_8
REMARK    4  A    between atoms: C_9  and  O_10
REMARK    5  A    between atoms: C_13  and  C_14
REMARK    6  A    between atoms: C_13  and  C_15
REMARK    7  A    between atoms: C_15  and  O_16
REMARK    8  A    between atoms: O_16  and  C_17
REMARK    9  A    between atoms: C_17  and  C_18
REMARK   10  A    between atoms: C_18  and  C_19
REMARK   11  A    between atoms: C_19  and  O_20
REMARK   12  A    between atoms: O_20  and  N_21
REMARK                            x       y       z     vdW  Elec       q    Type
REMARK                         _______ _______ _______ _____ _____    ______ ____
ROOT
ATOM      1  C   UNL     1       0.882   4.025  20.458  0.00  0.00    +0.000 C 
ATOM      2  C   UNL     1       2.090   4.024  19.553  0.00  0.00    +0.000 A 
ATOM      3  C   UNL     1       2.847   5.175  19.237  0.00  0.00    +0.000 A 
ATOM      4  C   UNL     1       2.515   6.550  19.763  0.00  0.00    +0.000 C 
ATOM      5  C   UNL     1       3.973   5.042  18.389  0.00  0.00    +0.000 A 
ATOM      6  C   UNL     1       4.321   3.800  17.813  0.00  0.00    +0.000 A 
ATOM      7  C   UNL     1       3.590   2.642  18.158  0.00  0.00    +0.000 A 
ATOM      8  C   UNL     1       3.981   1.281  17.641  0.00  0.00    +0.000 C 
ATOM      9  C   UNL     1       2.484   2.782  19.015  0.00  0.00    +0.000 A 
ATOM     10  C   UNL     1       5.485   3.706  16.865  0.00  0.00    +0.000 C 
ATOM     11  C   UNL     1       5.966   5.070  16.425  0.00  0.00    +0.000 C 
ATOM     12  C   UNL     1       6.038   6.018  17.624  0.00  0.00    +0.000 C 
ATOM     13  C   UNL     1       6.979   5.532  18.742  0.00  0.00    +0.000 C 
ATOM     14  O   UNL     1       4.714   6.192  18.174  0.00  0.00    +0.000 OA
ENDROOT
BRANCH   9  15
ATOM     15  O   UNL     1       1.727   1.694  19.378  0.00  0.00    +0.000 OA
ATOM     16  H   UNL     1       2.077   0.890  18.972  0.00  0.00    +0.000 HD
ENDBRANCH   9  15
BRANCH  12  17
ATOM     17  C   UNL     1       6.559   7.394  17.129  0.00  0.00    +0.000 C 
BRANCH  17  18
ATOM     18  O   UNL     1       7.724   7.783  17.865  0.00  0.00    +0.000 OA
BRANCH  18  19
ATOM     19  C   UNL     1       8.030   9.166  17.733  0.00  0.00    +0.000 C 
BRANCH  19  20
ATOM     20  C   UNL     1       8.833   9.593  18.957  0.00  0.00    +0.000 C 
BRANCH  20  21
ATOM     21  C   UNL     1       9.744  10.781  18.643  0.00  0.00    +0.000 C 
BRANCH  21  22
ATOM     22  O   UNL     1       9.018  11.697  17.825  0.00  0.00    +0.000 OA
BRANCH  22  23
ATOM     23  N   UNL     1       9.668  12.953  17.715  0.00  0.00    +0.000 N 
ATOM     24  O   UNL     1      10.752  12.984  17.132  0.00  0.00    +0.000 OA
ATOM     25  O   UNL     1       9.020  13.868  18.222  0.00  0.00    +0.000 OA
ENDBRANCH  22  23
ENDBRANCH  21  22
ENDBRANCH  20  21
ENDBRANCH  19  20
ENDBRANCH  18  19
ENDBRANCH  17  18
ENDBRANCH  12  17
TORSDOF 8
ENDMDL
MODEL 2
REMARK VINA RESULT:      -6.5      1.162      1.162
REMARK  Name = 
REMARK  12 active torsions:
REMARK  status: ('A' for Active; 'I' for Inactive)
REMARK    1  A    between atoms: C_1  and  C_2
REMARK    2  A    between atoms: C_3  and  C_4
REMARK    3  A    between atoms: C_7  and  C_8
REMARK    4  A    between atoms: C_9  and  O_10
REMARK    5  A    between atoms: C_13  and  C_14
REMARK    6  A    between atoms: C_13  and  C_15
REMARK    7  A    between atoms: C_15  and  O_16
REMARK    8  A    between atoms: O_16  and  C_17
REMARK    9  A    between atoms: C_17  and  C_18
REMARK   10  A    between atoms: C_18  and  C_19
REMARK   11  A    between atoms: C_19  and  O_20
REMARK   12  A    between atoms: O_20  and  N_21
REMARK                            x       y       z     vdW  Elec       q    Type
REMARK                         _______ _______ _______ _____ _____    ______ ____
ROOT
ATOM      1  C   UNL     1       0.783   4.420  20.444  0.00  0.00    +0.000 C 
ATOM      2  C   UNL     1       2.022   4.324  19.586  0.00  0.00    +0.000 A 
ATOM      3  C   UNL     1       2.826   5.430  19.224  0.00  0.00    +0.000 A 
ATOM      4  C   UNL     1       2.518   6.846  19.647  0.00  0.00    +0.000 C 
ATOM      5  C   UNL     1       3.976   5.210  18.430  0.00  0.00    +0.000 A 
ATOM      6  C   UNL     1       4.304   3.922  17.948  0.00  0.00    +0.000 A 
ATOM      7  C   UNL     1       3.526   2.811  18.340  0.00  0.00    +0.000 A 
ATOM      8  C   UNL     1       3.893   1.409  17.928  0.00  0.00    +0.000 C 
ATOM      9  C   UNL     1       2.396   3.039  19.144  0.00  0.00    +0.000 A 
ATOM     10  C   UNL     1       5.498   3.732  17.052  0.00  0.00    +0.000 C 
ATOM     11  C   UNL     1       6.036   5.051  16.543  0.00  0.00    +0.000 C 
ATOM     12  C   UNL     1       6.096   6.073  17.679  0.00  0.00    +0.000 C 
ATOM     13  C   UNL     1       6.981   5.635  18.861  0.00  0.00    +0.000 C 
ATOM     14  O   UNL     1       4.759   6.321  18.168  0.00  0.00    +0.000 OA
ENDROOT
BRANCH   9  15
ATOM     15  O   UNL     1       1.593   1.999  19.550  0.00  0.00    +0.000 OA
ATOM     16  H   UNL     1       0.959   2.303  20.212  0.00  0.00    +0.000 HD
ENDBRANCH   9  15
BRANCH  12  17
ATOM     17  C   UNL     1       6.677   7.398  17.116  0.00  0.00    +0.000 C 
BRANCH  17  18
ATOM     18  O   UNL     1       7.821   7.805  17.872  0.00  0.00    +0.000 OA
BRANCH  18  19
ATOM     19  C   UNL     1       8.118   9.189  17.733  0.00  0.00    +0.000 C 
BRANCH  19  20
ATOM     20  C   UNL     1       9.001   9.606  18.904  0.00  0.00    +0.000 C 
BRANCH  20  21
ATOM     21  C   UNL     1       9.431  11.069  18.788  0.00  0.00    +0.000 C 
BRANCH  21  22
ATOM     22  O   UNL     1       9.390  11.652  20.090  0.00  0.00    +0.000 OA
BRANCH  22  23
ATOM     23  N   UNL     1      10.491  12.513  20.329  0.00  0.00    +0.000 N 
ATOM     24  O   UNL     1      11.460  12.421  19.575  0.00  0.00    +0.000 OA
ATOM     25  O   UNL     1      10.304  13.269  21.282  0.00  0.00    +0.000 OA
ENDBRANCH  22  23
ENDBRANCH  21  22
ENDBRANCH  20  21
ENDBRANCH  19  20
ENDBRANCH  18  19
ENDBRANCH  17  18
ENDBRANCH  12  17
TORSDOF 8
ENDMDL
MODEL 3
REMARK VINA RESULT:      -6.2      4.520      6.121
REMARK  Name = 
REMARK  12 active torsions:
REMARK  status: ('A' for Active; 'I' for Inactive)
REMARK    1  A    between atoms: C_1  and  C_2
REMARK    2  A    between atoms: C_3  and  C_4
REMARK    3  A    between atoms: C_7  and  C_8
REMARK    4  A    between atoms: C_9  and  O_10
REMARK    5  A    between atoms: C_13  and  C_14
REMARK    6  A    between atoms: C_13  and  C_15
REMARK    7  A    between atoms: C_15  and  O_16
REMARK    8  A    between atoms: O_16  and  C_17
REMARK    9  A    between atoms: C_17  and  C_18
REMARK   10  A    between atoms: C_18  and  C_19
REMARK   11  A    between atoms: C_19  and  O_20
REMARK   12  A    between atoms: O_20  and  N_21
REMARK                            x       y       z     vdW  Elec       q    Type
REMARK                         _______ _______ _______ _____ _____    ______ ____
ROOT
ATOM      1  C   UNL     1       1.020   6.406  20.951  0.00  0.00    +0.000 C 
ATOM      2  C   UNL     1       1.874   5.637  19.971  0.00  0.00    +0.000 A 
ATOM      3  C   UNL     1       2.637   6.236  18.942  0.00  0.00    +0.000 A 
ATOM      4  C   UNL     1       2.669   7.725  18.698  0.00  0.00    +0.000 C 
ATOM      5  C   UNL     1       3.414   5.408  18.097  0.00  0.00    +0.000 A 
ATOM      6  C   UNL     1       3.398   4.001  18.225  0.00  0.00    +0.000 A 
ATOM      7  C   UNL     1       2.667   3.403  19.275  0.00  0.00    +0.000 A 
ATOM      8  C   UNL     1       2.696   1.915  19.507  0.00  0.00    +0.000 C 
ATOM      9  C   UNL     1       1.914   4.237  20.120  0.00  0.00    +0.000 A 
ATOM     10  C   UNL     1       4.185   3.146  17.268  0.00  0.00    +0.000 C 
ATOM     11  C   UNL     1       4.678   3.938  16.078  0.00  0.00    +0.000 C 
ATOM     12  C   UNL     1       5.244   5.283  16.536  0.00  0.00    +0.000 C 
ATOM     13  C   UNL     1       6.416   5.157  17.527  0.00  0.00    +0.000 C 
ATOM     14  O   UNL     1       4.193   6.057  17.155  0.00  0.00    +0.000 OA
ENDROOT
BRANCH   9  15
ATOM     15  O   UNL     1       1.173   3.714  21.154  0.00  0.00    +0.000 OA
ATOM     16  H   UNL     1       1.755   3.403  21.860  0.00  0.00    +0.000 HD
ENDBRANCH   9  15
BRANCH  12  17
ATOM     17  C   UNL     1       5.759   6.048  15.286  0.00  0.00    +0.000 C 
BRANCH  17  18
ATOM     18  O   UNL     1       7.145   5.770  15.064  0.00  0.00    +0.000 OA
BRANCH  18  19
ATOM     19  C   UNL     1       7.364   4.569  14.335  0.00  0.00    +0.000 C 
BRANCH  19  20
ATOM     20  C   UNL     1       7.800   4.943  12.923  0.00  0.00    +0.000 C 
BRANCH  20  21
ATOM     21  C   UNL     1       6.950   4.234  11.868  0.00  0.00    +0.000 C 
BRANCH  21  22
ATOM     22  O   UNL     1       6.009   3.398  12.540  0.00  0.00    +0.000 OA
BRANCH  22  23
ATOM     23  N   UNL     1       5.289   2.568  11.643  0.00  0.00    +0.000 N 
ATOM     24  O   UNL     1       5.807   1.500  11.316  0.00  0.00    +0.000 OA
ATOM     25  O   UNL     1       4.201   3.046  11.323  0.00  0.00    +0.000 OA
ENDBRANCH  22  23
ENDBRANCH  21  22
ENDBRANCH  20  21
ENDBRANCH  19  20
ENDBRANCH  18  19
ENDBRANCH  17  18
ENDBRANCH  12  17
TORSDOF 8
ENDMDL
MODEL 4
REMARK VINA RESULT:      -6.1      6.262      9.099
REMARK  Name = 
REMARK  12 active torsions:
REMARK  status: ('A' for Active; 'I' for Inactive)
REMARK    1  A    between atoms: C_1  and  C_2
REMARK    2  A    between atoms: C_3  and  C_4
REMARK    3  A    between atoms: C_7  and  C_8
REMARK    4  A    between atoms: C_9  and  O_10
REMARK    5  A    between atoms: C_13  and  C_14
REMARK    6  A    between atoms: C_13  and  C_15
REMARK    7  A    between atoms: C_15  and  O_16
REMARK    8  A    between atoms: O_16  and  C_17
REMARK    9  A    between atoms: C_17  and  C_18
REMARK   10  A    between atoms: C_18  and  C_19
REMARK   11  A    between atoms: C_19  and  O_20
REMARK   12  A    between atoms: O_20  and  N_21
REMARK                            x       y       z     vdW  Elec       q    Type
REMARK                         _______ _______ _______ _____ _____    ______ ____
ROOT
ATOM      1  C   UNL     1      -4.874  11.713  17.088  0.00  0.00    +0.000 C 
ATOM      2  C   UNL     1      -3.692  11.566  18.016  0.00  0.00    +0.000 A 
ATOM      3  C   UNL     1      -2.602  10.696  17.784  0.00  0.00    +0.000 A 
ATOM      4  C   UNL     1      -2.509   9.795  16.576  0.00  0.00    +0.000 C 
ATOM      5  C   UNL     1      -1.542  10.661  18.721  0.00  0.00    +0.000 A 
ATOM      6  C   UNL     1      -1.577  11.433  19.903  0.00  0.00    +0.000 A 
ATOM      7  C   UNL     1      -2.645  12.332  20.120  0.00  0.00    +0.000 A 
ATOM      8  C   UNL     1      -2.678  13.242  21.320  0.00  0.00    +0.000 C 
ATOM      9  C   UNL     1      -3.684  12.371  19.173  0.00  0.00    +0.000 A 
ATOM     10  C   UNL     1      -0.464  11.324  20.911  0.00  0.00    +0.000 C 
ATOM     11  C   UNL     1       0.434  10.140  20.632  0.00  0.00    +0.000 C 
ATOM     12  C   UNL     1       0.752  10.056  19.138  0.00  0.00    +0.000 C 
ATOM     13  C   UNL     1       1.451  11.310  18.582  0.00  0.00    +0.000 C 
ATOM     14  O   UNL     1      -0.473   9.842  18.402  0.00  0.00    +0.000 OA
ENDROOT
BRANCH   9  15
ATOM     15  O   UNL     1      -4.756  13.217  19.333  0.00  0.00    +0.000 OA
ATOM     16  H   UNL     1      -4.784  13.557  20.237  0.00  0.00    +0.000 HD
ENDBRANCH   9  15
BRANCH  12  17
ATOM     17  C   UNL     1       1.694   8.844  18.906  0.00  0.00    +0.000 C 
BRANCH  17  18
ATOM     18  O   UNL     1       2.376   8.972  17.654  0.00  0.00    +0.000 OA
BRANCH  18  19
ATOM     19  C   UNL     1       3.269   7.897  17.392  0.00  0.00    +0.000 C 
BRANCH  19  20
ATOM     20  C   UNL     1       2.956   6.770  18.371  0.00  0.00    +0.000 C 
BRANCH  20  21
ATOM     21  C   UNL     1       3.828   5.542  18.108  0.00  0.00    +0.000 C 
BRANCH  21  22
ATOM     22  O   UNL     1       4.991   5.635  18.930  0.00  0.00    +0.000 OA
BRANCH  22  23
ATOM     23  N   UNL     1       5.742   4.432  18.939  0.00  0.00    +0.000 N 
ATOM     24  O   UNL     1       6.892   4.476  18.501  0.00  0.00    +0.000 OA
ATOM     25  O   UNL     1       5.118   3.487  19.419  0.00  0.00    +0.000 OA
ENDBRANCH  22  23
ENDBRANCH  21  22
ENDBRANCH  20  21
ENDBRANCH  19  20
ENDBRANCH  18  19
ENDBRANCH  17  18
ENDBRANCH  12  17
TORSDOF 8
ENDMDL
MODEL 5
REMARK VINA RESULT:      -6.1      5.986      9.091
REMARK  Name = 
REMARK  12 active torsions:
REMARK  status: ('A' for Active; 'I' for Inactive)
REMARK    1  A    between atoms: C_1  and  C_2
REMARK    2  A    between atoms: C_3  and  C_4
REMARK    3  A    between atoms: C_7  and  C_8
REMARK    4  A    between atoms: C_9  and  O_10
REMARK    5  A    between atoms: C_13  and  C_14
REMARK    6  A    between atoms: C_13  and  C_15
REMARK    7  A    between atoms: C_15  and  O_16
REMARK    8  A    between atoms: O_16  and  C_17
REMARK    9  A    between atoms: C_17  and  C_18
REMARK   10  A    between atoms: C_18  and  C_19
REMARK   11  A    between atoms: C_19  and  O_20
REMARK   12  A    between atoms: O_20  and  N_21
REMARK                            x       y       z     vdW  Elec       q    Type
REMARK                         _______ _______ _______ _____ _____    ______ ____
ROOT
ATOM      1  C   UNL     1      -4.527  11.575  17.162  0.00  0.00    +0.000 C 
ATOM      2  C   UNL     1      -3.254  11.347  17.941  0.00  0.00    +0.000 A 
ATOM      3  C   UNL     1      -2.169  10.566  17.482  0.00  0.00    +0.000 A 
ATOM      4  C   UNL     1      -2.173   9.851  16.152  0.00  0.00    +0.000 C 
ATOM      5  C   UNL     1      -1.020  10.443  18.298  0.00  0.00    +0.000 A 
ATOM      6  C   UNL     1      -0.958  11.037  19.579  0.00  0.00    +0.000 A 
ATOM      7  C   UNL     1      -2.024  11.849  20.024  0.00  0.00    +0.000 A 
ATOM      8  C   UNL     1      -1.961  12.578  21.342  0.00  0.00    +0.000 C 
ATOM      9  C   UNL     1      -3.153  11.979  19.197  0.00  0.00    +0.000 A 
ATOM     10  C   UNL     1       0.253  10.833  20.449  0.00  0.00    +0.000 C 
ATOM     11  C   UNL     1       1.152   9.739  19.917  0.00  0.00    +0.000 C 
ATOM     12  C   UNL     1       1.320   9.882  18.403  0.00  0.00    +0.000 C 
ATOM     13  C   UNL     1       1.925  11.231  17.971  0.00  0.00    +0.000 C 
ATOM     14  O   UNL     1       0.034   9.723  17.763  0.00  0.00    +0.000 OA
ENDROOT
BRANCH   9  15
ATOM     15  O   UNL     1      -4.226  12.748  19.580  0.00  0.00    +0.000 OA
ATOM     16  H   UNL     1      -4.355  13.478  18.960  0.00  0.00    +0.000 HD
ENDBRANCH   9  15
BRANCH  12  17
ATOM     17  C   UNL     1       2.269   8.756  17.908  0.00  0.00    +0.000 C 
BRANCH  17  18
ATOM     18  O   UNL     1       1.794   7.476  18.336  0.00  0.00    +0.000 OA
BRANCH  18  19
ATOM     19  C   UNL     1       2.724   6.428  18.098  0.00  0.00    +0.000 C 
BRANCH  19  20
ATOM     20  C   UNL     1       1.977   5.101  18.179  0.00  0.00    +0.000 C 
BRANCH  20  21
ATOM     21  C   UNL     1       2.930   3.938  18.454  0.00  0.00    +0.000 C 
BRANCH  21  22
ATOM     22  O   UNL     1       3.837   4.335  19.481  0.00  0.00    +0.000 OA
BRANCH  22  23
ATOM     23  N   UNL     1       5.000   3.524  19.517  0.00  0.00    +0.000 N 
ATOM     24  O   UNL     1       4.890   2.391  19.986  0.00  0.00    +0.000 OA
ATOM     25  O   UNL     1       5.984   4.085  19.038  0.00  0.00    +0.000 OA
ENDBRANCH  22  23
ENDBRANCH  21  22
ENDBRANCH  20  21
ENDBRANCH  19  20
ENDBRANCH  18  19
ENDBRANCH  17  18
ENDBRANCH  12  17
TORSDOF 8
ENDMDL
MODEL 6
REMARK VINA RESULT:      -6.0      4.503      6.495
REMARK  Name = 
REMARK  12 active torsions:
REMARK  status: ('A' for Active; 'I' for Inactive)
REMARK    1  A    between atoms: C_1  and  C_2
REMARK    2  A    between atoms: C_3  and  C_4
REMARK    3  A    between atoms: C_7  and  C_8
REMARK    4  A    between atoms: C_9  and  O_10
REMARK    5  A    between atoms: C_13  and  C_14
REMARK    6  A    between atoms: C_13  and  C_15
REMARK    7  A    between atoms: C_15  and  O_16
REMARK    8  A    between atoms: O_16  and  C_17
REMARK    9  A    between atoms: C_17  and  C_18
REMARK   10  A    between atoms: C_18  and  C_19
REMARK   11  A    between atoms: C_19  and  O_20
REMARK   12  A    between atoms: O_20  and  N_21
REMARK                            x       y       z     vdW  Elec       q    Type
REMARK                         _______ _______ _______ _____ _____    ______ ____
ROOT
ATOM      1  C   UNL     1       0.652   1.981  18.643  0.00  0.00    +0.000 C 
ATOM      2  C   UNL     1       1.687   3.076  18.759  0.00  0.00    +0.000 A 
ATOM      3  C   UNL     1       2.882   3.122  18.006  0.00  0.00    +0.000 A 
ATOM      4  C   UNL     1       3.268   2.060  17.005  0.00  0.00    +0.000 C 
ATOM      5  C   UNL     1       3.766   4.212  18.190  0.00  0.00    +0.000 A 
ATOM      6  C   UNL     1       3.504   5.220  19.145  0.00  0.00    +0.000 A 
ATOM      7  C   UNL     1       2.292   5.197  19.871  0.00  0.00    +0.000 A 
ATOM      8  C   UNL     1       1.929   6.300  20.831  0.00  0.00    +0.000 C 
ATOM      9  C   UNL     1       1.414   4.119  19.666  0.00  0.00    +0.000 A 
ATOM     10  C   UNL     1       4.495   6.331  19.362  0.00  0.00    +0.000 C 
ATOM     11  C   UNL     1       5.822   6.042  18.696  0.00  0.00    +0.000 C 
ATOM     12  C   UNL     1       5.597   5.490  17.288  0.00  0.00    +0.000 C 
ATOM     13  C   UNL     1       4.813   6.443  16.366  0.00  0.00    +0.000 C 
ATOM     14  O   UNL     1       4.884   4.236  17.375  0.00  0.00    +0.000 OA
ENDROOT
BRANCH   9  15
ATOM     15  O   UNL     1       0.224   4.035  20.350  0.00  0.00    +0.000 OA
ATOM     16  H   UNL     1      -0.342   3.357  19.957  0.00  0.00    +0.000 HD
ENDBRANCH   9  15
BRANCH  12  17
ATOM     17  C   UNL     1       6.983   5.233  16.636  0.00  0.00    +0.000 C 
BRANCH  17  18
ATOM     18  O   UNL     1       6.968   5.617  15.258  0.00  0.00    +0.000 OA
BRANCH  18  19
ATOM     19  C   UNL     1       7.033   4.509  14.369  0.00  0.00    +0.000 C 
BRANCH  19  20
ATOM     20  C   UNL     1       7.550   5.008  13.024  0.00  0.00    +0.000 C 
BRANCH  20  21
ATOM     21  C   UNL     1       7.079   4.114  11.876  0.00  0.00    +0.000 C 
BRANCH  21  22
ATOM     22  O   UNL     1       6.494   2.939  12.436  0.00  0.00    +0.000 OA
BRANCH  22  23
ATOM     23  N   UNL     1       5.484   2.391  11.604  0.00  0.00    +0.000 N 
ATOM     24  O   UNL     1       5.667   1.258  11.157  0.00  0.00    +0.000 OA
ATOM     25  O   UNL     1       4.527   3.150  11.458  0.00  0.00    +0.000 OA
ENDBRANCH  22  23
ENDBRANCH  21  22
ENDBRANCH  20  21
ENDBRANCH  19  20
ENDBRANCH  18  19
ENDBRANCH  17  18
ENDBRANCH  12  17
TORSDOF 8
ENDMDL
MODEL 7
REMARK VINA RESULT:      -6.0      5.725      8.607
REMARK  Name = 
REMARK  12 active torsions:
REMARK  status: ('A' for Active; 'I' for Inactive)
REMARK    1  A    between atoms: C_1  and  C_2
REMARK    2  A    between atoms: C_3  and  C_4
REMARK    3  A    between atoms: C_7  and  C_8
REMARK    4  A    between atoms: C_9  and  O_10
REMARK    5  A    between atoms: C_13  and  C_14
REMARK    6  A    between atoms: C_13  and  C_15
REMARK    7  A    between atoms: C_15  and  O_16
REMARK    8  A    between atoms: O_16  and  C_17
REMARK    9  A    between atoms: C_17  and  C_18
REMARK   10  A    between atoms: C_18  and  C_19
REMARK   11  A    between atoms: C_19  and  O_20
REMARK   12  A    between atoms: O_20  and  N_21
REMARK                            x       y       z     vdW  Elec       q    Type
REMARK                         _______ _______ _______ _____ _____    ______ ____
ROOT
ATOM      1  C   UNL     1      -4.443  11.805  17.224  0.00  0.00    +0.000 C 
ATOM      2  C   UNL     1      -3.191  11.437  17.984  0.00  0.00    +0.000 A 
ATOM      3  C   UNL     1      -2.223  10.515  17.522  0.00  0.00    +0.000 A 
ATOM      4  C   UNL     1      -2.347   9.776  16.212  0.00  0.00    +0.000 C 
ATOM      5  C   UNL     1      -1.080  10.267  18.319  0.00  0.00    +0.000 A 
ATOM      6  C   UNL     1      -0.914  10.877  19.582  0.00  0.00    +0.000 A 
ATOM      7  C   UNL     1      -1.859  11.827  20.028  0.00  0.00    +0.000 A 
ATOM      8  C   UNL     1      -1.675  12.572  21.325  0.00  0.00    +0.000 C 
ATOM      9  C   UNL     1      -2.982  12.080  19.221  0.00  0.00    +0.000 A 
ATOM     10  C   UNL     1       0.281  10.542  20.433  0.00  0.00    +0.000 C 
ATOM     11  C   UNL     1       1.023   9.332  19.911  0.00  0.00    +0.000 C 
ATOM     12  C   UNL     1       1.173   9.418  18.391  0.00  0.00    +0.000 C 
ATOM     13  C   UNL     1       1.932  10.670  17.913  0.00  0.00    +0.000 C 
ATOM     14  O   UNL     1      -0.137   9.408  17.781  0.00  0.00    +0.000 OA
ENDROOT
BRANCH   9  15
ATOM     15  O   UNL     1      -3.942  12.986  19.605  0.00  0.00    +0.000 OA
ATOM     16  H   UNL     1      -4.405  13.333  18.831  0.00  0.00    +0.000 HD
ENDBRANCH   9  15
BRANCH  12  17
ATOM     17  C   UNL     1       1.961   8.171  17.906  0.00  0.00    +0.000 C 
BRANCH  17  18
ATOM     18  O   UNL     1       2.931   7.780  18.883  0.00  0.00    +0.000 OA
BRANCH  18  19
ATOM     19  C   UNL     1       2.908   6.386  19.164  0.00  0.00    +0.000 C 
BRANCH  19  20
ATOM     20  C   UNL     1       2.419   5.657  17.917  0.00  0.00    +0.000 C 
BRANCH  20  21
ATOM     21  C   UNL     1       3.423   4.600  17.457  0.00  0.00    +0.000 C 
BRANCH  21  22
ATOM     22  O   UNL     1       4.731   5.166  17.525  0.00  0.00    +0.000 OA
BRANCH  22  23
ATOM     23  N   UNL     1       5.208   5.574  16.254  0.00  0.00    +0.000 N 
ATOM     24  O   UNL     1       5.206   4.738  15.349  0.00  0.00    +0.000 OA
ATOM     25  O   UNL     1       5.552   6.756  16.233  0.00  0.00    +0.000 OA
ENDBRANCH  22  23
ENDBRANCH  21  22
ENDBRANCH  20  21
ENDBRANCH  19  20
ENDBRANCH  18  19
ENDBRANCH  17  18
ENDBRANCH  12  17
TORSDOF 8
ENDMDL
MODEL 8
REMARK VINA RESULT:      -6.0      5.990      9.135
REMARK  Name = 
REMARK  12 active torsions:
REMARK  status: ('A' for Active; 'I' for Inactive)
REMARK    1  A    between atoms: C_1  and  C_2
REMARK    2  A    between atoms: C_3  and  C_4
REMARK    3  A    between atoms: C_7  and  C_8
REMARK    4  A    between atoms: C_9  and  O_10
REMARK    5  A    between atoms: C_13  and  C_14
REMARK    6  A    between atoms: C_13  and  C_15
REMARK    7  A    between atoms: C_15  and  O_16
REMARK    8  A    between atoms: O_16  and  C_17
REMARK    9  A    between atoms: C_17  and  C_18
REMARK   10  A    between atoms: C_18  and  C_19
REMARK   11  A    between atoms: C_19  and  O_20
REMARK   12  A    between atoms: O_20  and  N_21
REMARK                            x       y       z     vdW  Elec       q    Type
REMARK                         _______ _______ _______ _____ _____    ______ ____
ROOT
ATOM      1  C   UNL     1      -4.421  11.882  17.355  0.00  0.00    +0.000 C 
ATOM      2  C   UNL     1      -3.151  11.467  18.059  0.00  0.00    +0.000 A 
ATOM      3  C   UNL     1      -2.211  10.553  17.529  0.00  0.00    +0.000 A 
ATOM      4  C   UNL     1      -2.386   9.871  16.194  0.00  0.00    +0.000 C 
ATOM      5  C   UNL     1      -1.047  10.259  18.278  0.00  0.00    +0.000 A 
ATOM      6  C   UNL     1      -0.833  10.814  19.559  0.00  0.00    +0.000 A 
ATOM      7  C   UNL     1      -1.751  11.756  20.074  0.00  0.00    +0.000 A 
ATOM      8  C   UNL     1      -1.516  12.444  21.394  0.00  0.00    +0.000 C 
ATOM      9  C   UNL     1      -2.895  12.055  19.314  0.00  0.00    +0.000 A 
ATOM     10  C   UNL     1       0.384  10.430  20.357  0.00  0.00    +0.000 C 
ATOM     11  C   UNL     1       1.093   9.234  19.762  0.00  0.00    +0.000 C 
ATOM     12  C   UNL     1       1.196   9.381  18.243  0.00  0.00    +0.000 C 
ATOM     13  C   UNL     1       1.956  10.643  17.793  0.00  0.00    +0.000 C 
ATOM     14  O   UNL     1      -0.133   9.412  17.675  0.00  0.00    +0.000 OA
ENDROOT
BRANCH   9  15
ATOM     15  O   UNL     1      -3.830  12.956  19.766  0.00  0.00    +0.000 OA
ATOM     16  H   UNL     1      -4.706  12.549  19.789  0.00  0.00    +0.000 HD
ENDBRANCH   9  15
BRANCH  12  17
ATOM     17  C   UNL     1       1.951   8.146  17.681  0.00  0.00    +0.000 C 
BRANCH  17  18
ATOM     18  O   UNL     1       3.039   7.791  18.541  0.00  0.00    +0.000 OA
BRANCH  18  19
ATOM     19  C   UNL     1       4.041   7.023  17.885  0.00  0.00    +0.000 C 
BRANCH  19  20
ATOM     20  C   UNL     1       3.525   5.596  17.736  0.00  0.00    +0.000 C 
BRANCH  20  21
ATOM     21  C   UNL     1       3.448   4.884  19.087  0.00  0.00    +0.000 C 
BRANCH  21  22
ATOM     22  O   UNL     1       2.213   4.173  19.148  0.00  0.00    +0.000 OA
BRANCH  22  23
ATOM     23  N   UNL     1       1.513   4.412  20.358  0.00  0.00    +0.000 N 
ATOM     24  O   UNL     1       1.012   3.441  20.927  0.00  0.00    +0.000 OA
ATOM     25  O   UNL     1       1.524   5.598  20.686  0.00  0.00    +0.000 OA
ENDBRANCH  22  23
ENDBRANCH  21  22
ENDBRANCH  20  21
ENDBRANCH  19  20
ENDBRANCH  18  19
ENDBRANCH  17  18
ENDBRANCH  12  17
TORSDOF 8
ENDMDL
MODEL 9
REMARK VINA RESULT:      -5.9      4.593      6.622
REMARK  Name = 
REMARK  12 active torsions:
REMARK  status: ('A' for Active; 'I' for Inactive)
REMARK    1  A    between atoms: C_1  and  C_2
REMARK    2  A    between atoms: C_3  and  C_4
REMARK    3  A    between atoms: C_7  and  C_8
REMARK    4  A    between atoms: C_9  and  O_10
REMARK    5  A    between atoms: C_13  and  C_14
REMARK    6  A    between atoms: C_13  and  C_15
REMARK    7  A    between atoms: C_15  and  O_16
REMARK    8  A    between atoms: O_16  and  C_17
REMARK    9  A    between atoms: C_17  and  C_18
REMARK   10  A    between atoms: C_18  and  C_19
REMARK   11  A    between atoms: C_19  and  O_20
REMARK   12  A    between atoms: O_20  and  N_21
REMARK                            x       y       z     vdW  Elec       q    Type
REMARK                         _______ _______ _______ _____ _____    ______ ____
ROOT
ATOM      1  C   UNL     1       1.985   2.706  21.259  0.00  0.00    +0.000 C 
ATOM      2  C   UNL     1       2.645   3.708  20.341  0.00  0.00    +0.000 A 
ATOM      3  C   UNL     1       3.818   3.451  19.595  0.00  0.00    +0.000 A 
ATOM      4  C   UNL     1       4.558   2.137  19.649  0.00  0.00    +0.000 C 
ATOM      5  C   UNL     1       4.330   4.467  18.754  0.00  0.00    +0.000 A 
ATOM      6  C   UNL     1       3.727   5.743  18.686  0.00  0.00    +0.000 A 
ATOM      7  C   UNL     1       2.534   5.990  19.400  0.00  0.00    +0.000 A 
ATOM      8  C   UNL     1       1.805   7.304  19.285  0.00  0.00    +0.000 C 
ATOM      9  C   UNL     1       2.024   4.967  20.219  0.00  0.00    +0.000 A 
ATOM     10  C   UNL     1       4.334   6.822  17.831  0.00  0.00    +0.000 C 
ATOM     11  C   UNL     1       5.725   6.455  17.364  0.00  0.00    +0.000 C 
ATOM     12  C   UNL     1       5.759   5.002  16.889  0.00  0.00    +0.000 C 
ATOM     13  C   UNL     1       4.787   4.706  15.731  0.00  0.00    +0.000 C 
ATOM     14  O   UNL     1       5.440   4.131  17.997  0.00  0.00    +0.000 OA
ENDROOT
BRANCH   9  15
ATOM     15  O   UNL     1       0.872   5.151  20.946  0.00  0.00    +0.000 OA
ATOM     16  H   UNL     1       0.252   4.427  20.782  0.00  0.00    +0.000 HD
ENDBRANCH   9  15
BRANCH  12  17
ATOM     17  C   UNL     1       7.196   4.680  16.397  0.00  0.00    +0.000 C 
BRANCH  17  18
ATOM     18  O   UNL     1       7.487   5.399  15.195  0.00  0.00    +0.000 OA
BRANCH  18  19
ATOM     19  C   UNL     1       7.829   4.550  14.106  0.00  0.00    +0.000 C 
BRANCH  19  20
ATOM     20  C   UNL     1       7.154   5.091  12.850  0.00  0.00    +0.000 C 
BRANCH  20  21
ATOM     21  C   UNL     1       6.935   3.989  11.814  0.00  0.00    +0.000 C 
BRANCH  21  22
ATOM     22  O   UNL     1       6.203   2.932  12.433  0.00  0.00    +0.000 OA
BRANCH  22  23
ATOM     23  N   UNL     1       5.473   2.160  11.493  0.00  0.00    +0.000 N 
ATOM     24  O   UNL     1       5.976   1.103  11.111  0.00  0.00    +0.000 OA
ATOM     25  O   UNL     1       4.392   2.670  11.198  0.00  0.00    +0.000 OA
ENDBRANCH  22  23
ENDBRANCH  21  22
ENDBRANCH  20  21
ENDBRANCH  19  20
ENDBRANCH  18  19
ENDBRANCH  17  18
ENDBRANCH  12  17
TORSDOF 8
ENDMDL
