MODEL 1
REMARK VINA RESULT:      -8.9      0.000      0.000
REMARK  Name = 
REMARK  10 active torsions:
REMARK  status: ('A' for Active; 'I' for Inactive)
REMARK    1  A    between atoms: C_1  and  C_2
REMARK    2  A    between atoms: C_2  and  C_4
REMARK    3  A    between atoms: C_7  and  N_8
REMARK    4  A    between atoms: C_9  and  C_11
REMARK    5  A    between atoms: C_11  and  C_12
REMARK    6  A    between atoms: C_12  and  C_13
REMARK    7  A    between atoms: C_13  and  C_15
REMARK    8  A    between atoms: C_17  and  C_18
REMARK    9  A    between atoms: C_25  and  C_26
REMARK   10  A    between atoms: N_27  and  N_28
REMARK                            x       y       z     vdW  Elec       q    Type
REMARK                         _______ _______ _______ _____ _____    ______ ____
ROOT
ATOM      1  C   UNL     1       6.713   6.147  16.987  0.00  0.00    +0.000 C 
ATOM      2  N   UNL     1       7.422   5.291  16.301  0.00  0.00    +0.000 NA
ENDROOT
BRANCH   2   3
ATOM      3  N   UNL     1       6.798   4.446  15.425  0.00  0.00    +0.000 N 
ATOM      4  C   UNL     1       6.976   4.552  14.067  0.00  0.00    +0.000 C 
ATOM      5  N   UNL     1       7.892   5.475  13.686  0.00  0.00    +0.000 N 
ATOM      6  O   UNL     1       6.354   3.865  13.267  0.00  0.00    +0.000 OA
ATOM      7  H   UNL     1       6.079   3.793  15.709  0.00  0.00    +0.000 HD
ATOM      8  H   UNL     1       8.110   6.183  14.375  0.00  0.00    +0.000 HD
ATOM      9  H   UNL     1       7.944   5.704  12.704  0.00  0.00    +0.000 HD
ENDBRANCH   2   3
BRANCH   1  11
ATOM     10  N   UNL     1       7.654   8.453  17.336  0.00  0.00    +0.000 N 
ATOM     11  C   UNL     1       7.543   7.152  17.803  0.00  0.00    +0.000 C 
ATOM     12  O   UNL     1       8.055   6.704  18.824  0.00  0.00    +0.000 OA
ATOM     13  H   UNL     1       7.273   8.696  16.424  0.00  0.00    +0.000 HD
BRANCH  10  17
ATOM     14  C   UNL     1       9.557  11.699  19.330  0.00  0.00    +0.000 A 
ATOM     15  C   UNL     1       9.677  10.406  19.840  0.00  0.00    +0.000 A 
ATOM     16  C   UNL     1       9.061   9.328  19.190  0.00  0.00    +0.000 A 
ATOM     17  C   UNL     1       8.310   9.511  18.024  0.00  0.00    +0.000 A 
ATOM     18  C   UNL     1       8.179  10.812  17.524  0.00  0.00    +0.000 A 
ATOM     19  C   UNL     1       8.801  11.895  18.169  0.00  0.00    +0.000 A 
BRANCH  14  21
ATOM     20  C   UNL     1      11.284  13.622  19.238  0.00  0.00    +0.000 C 
ATOM     21  C   UNL     1      10.214  12.868  19.989  0.00  0.00    +0.000 C 
ATOM     22  O   UNL     1       9.869  13.205  21.119  0.00  0.00    +0.000 OA
ENDBRANCH  14  21
ENDBRANCH  10  17
ENDBRANCH   1  11
BRANCH   1  23
ATOM     23  C   UNL     1       5.212   6.249  16.897  0.00  0.00    +0.000 C 
BRANCH  23  24
ATOM     24  C   UNL     1       4.369   5.311  17.718  0.00  0.00    +0.000 C 
ATOM     25  O   UNL     1       4.607   4.102  17.653  0.00  0.00    +0.000 OA
BRANCH  24  26
ATOM     26  C   UNL     1       3.374   5.860  18.612  0.00  0.00    +0.000 A 
ATOM     27  S   UNL     1       2.797   7.446  18.379  0.00  0.00    +0.000 S 
ATOM     28  C   UNL     1       1.998   7.389  19.896  0.00  0.00    +0.000 A 
ATOM     29  N   UNL     1       1.993   6.202  20.459  0.00  0.00    +0.000 NA
ATOM     30  C   UNL     1       2.799   5.316  19.750  0.00  0.00    +0.000 A 
ATOM     31  C   UNL     1       2.956   3.931  20.272  0.00  0.00    +0.000 C 
BRANCH  28  32
ATOM     32  C   UNL     1       1.376   8.602  20.417  0.00  0.00    +0.000 A 
ATOM     33  C   UNL     1       0.849   9.601  19.586  0.00  0.00    +0.000 A 
ATOM     34  C   UNL     1       0.228  10.723  20.127  0.00  0.00    +0.000 A 
ATOM     35  C   UNL     1       0.164  10.827  21.507  0.00  0.00    +0.000 A 
ATOM     36  N   UNL     1       0.683   9.907  22.349  0.00  0.00    +0.000 NA
ATOM     37  C   UNL     1       1.282   8.824  21.789  0.00  0.00    +0.000 A 
ENDBRANCH  28  32
ENDBRANCH  24  26
ENDBRANCH  23  24
ENDBRANCH   1  23
TORSDOF 8
ENDMDL
MODEL 2
REMARK VINA RESULT:      -8.7      1.106      1.382
REMARK  Name = 
REMARK  10 active torsions:
REMARK  status: ('A' for Active; 'I' for Inactive)
REMARK    1  A    between atoms: C_1  and  C_2
REMARK    2  A    between atoms: C_2  and  C_4
REMARK    3  A    between atoms: C_7  and  N_8
REMARK    4  A    between atoms: C_9  and  C_11
REMARK    5  A    between atoms: C_11  and  C_12
REMARK    6  A    between atoms: C_12  and  C_13
REMARK    7  A    between atoms: C_13  and  C_15
REMARK    8  A    between atoms: C_17  and  C_18
REMARK    9  A    between atoms: C_25  and  C_26
REMARK   10  A    between atoms: N_27  and  N_28
REMARK                            x       y       z     vdW  Elec       q    Type
REMARK                         _______ _______ _______ _____ _____    ______ ____
ROOT
ATOM      1  C   UNL     1       7.251   5.940  17.235  0.00  0.00    +0.000 C 
ATOM      2  N   UNL     1       7.239   6.107  15.940  0.00  0.00    +0.000 NA
ENDROOT
BRANCH   2   3
ATOM      3  N   UNL     1       6.580   5.207  15.149  0.00  0.00    +0.000 N 
ATOM      4  C   UNL     1       7.016   4.904  13.882  0.00  0.00    +0.000 C 
ATOM      5  N   UNL     1       8.194   5.476  13.535  0.00  0.00    +0.000 N 
ATOM      6  O   UNL     1       6.387   4.173  13.127  0.00  0.00    +0.000 OA
ATOM      7  H   UNL     1       5.677   4.820  15.391  0.00  0.00    +0.000 HD
ATOM      8  H   UNL     1       8.465   6.282  14.084  0.00  0.00    +0.000 HD
ATOM      9  H   UNL     1       8.476   5.417  12.568  0.00  0.00    +0.000 HD
ENDBRANCH   2   3
BRANCH   1  11
ATOM     10  N   UNL     1       7.943   8.351  17.418  0.00  0.00    +0.000 N 
ATOM     11  C   UNL     1       7.873   7.105  18.022  0.00  0.00    +0.000 C 
ATOM     12  O   UNL     1       8.272   6.825  19.149  0.00  0.00    +0.000 OA
ATOM     13  H   UNL     1       7.675   8.453  16.441  0.00  0.00    +0.000 HD
BRANCH  10  17
ATOM     14  C   UNL     1       9.268  11.968  19.235  0.00  0.00    +0.000 A 
ATOM     15  C   UNL     1       9.508  10.747  19.865  0.00  0.00    +0.000 A 
ATOM     16  C   UNL     1       9.083   9.549  19.275  0.00  0.00    +0.000 A 
ATOM     17  C   UNL     1       8.407   9.537  18.049  0.00  0.00    +0.000 A 
ATOM     18  C   UNL     1       8.155  10.766  17.427  0.00  0.00    +0.000 A 
ATOM     19  C   UNL     1       8.586  11.970  18.012  0.00  0.00    +0.000 A 
BRANCH  14  21
ATOM     20  C   UNL     1       9.898  13.355  21.324  0.00  0.00    +0.000 C 
ATOM     21  C   UNL     1       9.722  13.261  19.828  0.00  0.00    +0.000 C 
ATOM     22  O   UNL     1       9.955  14.220  19.096  0.00  0.00    +0.000 OA
ENDBRANCH  14  21
ENDBRANCH  10  17
ENDBRANCH   1  11
BRANCH   1  23
ATOM     23  C   UNL     1       6.593   4.776  17.933  0.00  0.00    +0.000 C 
BRANCH  23  24
ATOM     24  C   UNL     1       5.179   4.416  17.566  0.00  0.00    +0.000 C 
ATOM     25  O   UNL     1       4.999   3.545  16.712  0.00  0.00    +0.000 OA
BRANCH  24  26
ATOM     26  C   UNL     1       4.088   5.040  18.282  0.00  0.00    +0.000 A 
ATOM     27  S   UNL     1       3.574   6.609  17.862  0.00  0.00    +0.000 S 
ATOM     28  C   UNL     1       2.587   6.673  19.265  0.00  0.00    +0.000 A 
ATOM     29  N   UNL     1       2.489   5.530  19.907  0.00  0.00    +0.000 NA
ATOM     30  C   UNL     1       3.362   4.587  19.374  0.00  0.00    +0.000 A 
ATOM     31  C   UNL     1       3.426   3.244  20.012  0.00  0.00    +0.000 C 
BRANCH  28  32
ATOM     32  C   UNL     1       1.926   7.926  19.611  0.00  0.00    +0.000 A 
ATOM     33  C   UNL     1       1.429   8.191  20.896  0.00  0.00    +0.000 A 
ATOM     34  C   UNL     1       0.840   9.416  21.192  0.00  0.00    +0.000 A 
ATOM     35  C   UNL     1       0.746  10.354  20.177  0.00  0.00    +0.000 A 
ATOM     36  N   UNL     1       1.181  10.135  18.917  0.00  0.00    +0.000 NA
ATOM     37  C   UNL     1       1.751   8.929  18.660  0.00  0.00    +0.000 A 
ENDBRANCH  28  32
ENDBRANCH  24  26
ENDBRANCH  23  24
ENDBRANCH   1  23
TORSDOF 8
ENDMDL
MODEL 3
REMARK VINA RESULT:      -8.6      0.917      1.347
REMARK  Name = 
REMARK  10 active torsions:
REMARK  status: ('A' for Active; 'I' for Inactive)
REMARK    1  A    between atoms: C_1  and  C_2
REMARK    2  A    between atoms: C_2  and  C_4
REMARK    3  A    between atoms: C_7  and  N_8
REMARK    4  A    between atoms: C_9  and  C_11
REMARK    5  A    between atoms: C_11  and  C_12
REMARK    6  A    between atoms: C_12  and  C_13
REMARK    7  A    between atoms: C_13  and  C_15
REMARK    8  A    between atoms: C_17  and  C_18
REMARK    9  A    between atoms: C_25  and  C_26
REMARK   10  A    between atoms: N_27  and  N_28
REMARK                            x       y       z     vdW  Elec       q    Type
REMARK                         _______ _______ _______ _____ _____    ______ ____
ROOT
ATOM      1  C   UNL     1       7.264   5.744  17.285  0.00  0.00    +0.000 C 
ATOM      2  N   UNL     1       7.476   5.739  15.997  0.00  0.00    +0.000 NA
ENDROOT
BRANCH   2   3
ATOM      3  N   UNL     1       6.895   4.777  15.219  0.00  0.00    +0.000 N 
ATOM      4  C   UNL     1       7.101   4.723  13.861  0.00  0.00    +0.000 C 
ATOM      5  N   UNL     1       8.000   5.618  13.388  0.00  0.00    +0.000 N 
ATOM      6  O   UNL     1       6.515   3.926  13.139  0.00  0.00    +0.000 OA
ATOM      7  H   UNL     1       6.188   4.142  15.567  0.00  0.00    +0.000 HD
ATOM      8  H   UNL     1       8.185   6.411  13.990  0.00  0.00    +0.000 HD
ATOM      9  H   UNL     1       8.069   5.729  12.387  0.00  0.00    +0.000 HD
ENDBRANCH   2   3
BRANCH   1  11
ATOM     10  N   UNL     1       7.880   8.182  17.346  0.00  0.00    +0.000 N 
ATOM     11  C   UNL     1       7.828   6.971  18.020  0.00  0.00    +0.000 C 
ATOM     12  O   UNL     1       8.200   6.769  19.172  0.00  0.00    +0.000 OA
ATOM     13  H   UNL     1       7.639   8.220  16.358  0.00  0.00    +0.000 HD
BRANCH  10  17
ATOM     14  C   UNL     1       9.179  11.818  19.143  0.00  0.00    +0.000 A 
ATOM     15  C   UNL     1       8.490  11.851  17.930  0.00  0.00    +0.000 A 
ATOM     16  C   UNL     1       8.052  10.663  17.332  0.00  0.00    +0.000 A 
ATOM     17  C   UNL     1       8.291   9.416  17.920  0.00  0.00    +0.000 A 
ATOM     18  C   UNL     1       8.996   9.385  19.130  0.00  0.00    +0.000 A 
ATOM     19  C   UNL     1       9.431  10.576  19.738  0.00  0.00    +0.000 A 
BRANCH  14  21
ATOM     20  C   UNL     1      10.277  12.965  21.184  0.00  0.00    +0.000 C 
ATOM     21  C   UNL     1       9.646  13.066  19.817  0.00  0.00    +0.000 C 
ATOM     22  O   UNL     1       9.522  14.149  19.249  0.00  0.00    +0.000 OA
ENDBRANCH  14  21
ENDBRANCH  10  17
ENDBRANCH   1  11
BRANCH   1  23
ATOM     23  C   UNL     1       6.420   4.716  17.995  0.00  0.00    +0.000 C 
BRANCH  23  24
ATOM     24  C   UNL     1       4.999   4.507  17.544  0.00  0.00    +0.000 C 
ATOM     25  O   UNL     1       4.783   3.688  16.649  0.00  0.00    +0.000 OA
BRANCH  24  26
ATOM     26  C   UNL     1       3.935   5.208  18.229  0.00  0.00    +0.000 A 
ATOM     27  S   UNL     1       3.463   6.762  17.712  0.00  0.00    +0.000 S 
ATOM     28  C   UNL     1       2.495   6.946  19.117  0.00  0.00    +0.000 A 
ATOM     29  N   UNL     1       2.370   5.851  19.834  0.00  0.00    +0.000 NA
ATOM     30  C   UNL     1       3.210   4.850  19.354  0.00  0.00    +0.000 A 
ATOM     31  C   UNL     1       3.242   3.549  20.078  0.00  0.00    +0.000 C 
BRANCH  28  32
ATOM     32  C   UNL     1       1.874   8.238  19.388  0.00  0.00    +0.000 A 
ATOM     33  C   UNL     1       1.740   9.235  18.410  0.00  0.00    +0.000 A 
ATOM     34  C   UNL     1       1.106  10.438  18.703  0.00  0.00    +0.000 A 
ATOM     35  C   UNL     1       0.628  10.625  19.990  0.00  0.00    +0.000 A 
ATOM     36  N   UNL     1       0.759   9.708  20.973  0.00  0.00    +0.000 NA
ATOM     37  C   UNL     1       1.384   8.544  20.655  0.00  0.00    +0.000 A 
ENDBRANCH  28  32
ENDBRANCH  24  26
ENDBRANCH  23  24
ENDBRANCH   1  23
TORSDOF 8
ENDMDL
MODEL 4
REMARK VINA RESULT:      -8.5      0.963      1.454
REMARK  Name = 
REMARK  10 active torsions:
REMARK  status: ('A' for Active; 'I' for Inactive)
REMARK    1  A    between atoms: C_1  and  C_2
REMARK    2  A    between atoms: C_2  and  C_4
REMARK    3  A    between atoms: C_7  and  N_8
REMARK    4  A    between atoms: C_9  and  C_11
REMARK    5  A    between atoms: C_11  and  C_12
REMARK    6  A    between atoms: C_12  and  C_13
REMARK    7  A    between atoms: C_13  and  C_15
REMARK    8  A    between atoms: C_17  and  C_18
REMARK    9  A    between atoms: C_25  and  C_26
REMARK   10  A    between atoms: N_27  and  N_28
REMARK                            x       y       z     vdW  Elec       q    Type
REMARK                         _______ _______ _______ _____ _____    ______ ____
ROOT
ATOM      1  C   UNL     1       7.000   6.259  17.383  0.00  0.00    +0.000 C 
ATOM      2  N   UNL     1       7.507   5.785  16.276  0.00  0.00    +0.000 NA
ENDROOT
BRANCH   2   3
ATOM      3  N   UNL     1       6.802   4.867  15.549  0.00  0.00    +0.000 N 
ATOM      4  C   UNL     1       6.943   4.764  14.186  0.00  0.00    +0.000 C 
ATOM      5  N   UNL     1       7.903   5.556  13.653  0.00  0.00    +0.000 N 
ATOM      6  O   UNL     1       6.252   4.012  13.509  0.00  0.00    +0.000 OA
ATOM      7  H   UNL     1       6.053   4.313  15.941  0.00  0.00    +0.000 HD
ATOM      8  H   UNL     1       8.189   6.340  14.226  0.00  0.00    +0.000 HD
ATOM      9  H   UNL     1       7.938   5.638  12.647  0.00  0.00    +0.000 HD
ENDBRANCH   2   3
BRANCH   1  11
ATOM     10  N   UNL     1       7.720   8.668  17.447  0.00  0.00    +0.000 N 
ATOM     11  C   UNL     1       7.806   7.405  18.014  0.00  0.00    +0.000 C 
ATOM     12  O   UNL     1       8.480   7.097  18.993  0.00  0.00    +0.000 OA
ATOM     13  H   UNL     1       7.210   8.795  16.575  0.00  0.00    +0.000 HD
BRANCH  10  17
ATOM     14  C   UNL     1       9.632  12.106  19.078  0.00  0.00    +0.000 A 
ATOM     15  C   UNL     1       8.775  12.242  17.985  0.00  0.00    +0.000 A 
ATOM     16  C   UNL     1       8.134  11.119  17.443  0.00  0.00    +0.000 A 
ATOM     17  C   UNL     1       8.334   9.839  17.970  0.00  0.00    +0.000 A 
ATOM     18  C   UNL     1       9.207   9.704  19.056  0.00  0.00    +0.000 A 
ATOM     19  C   UNL     1       9.846  10.828  19.608  0.00  0.00    +0.000 A 
BRANCH  14  21
ATOM     20  C   UNL     1      11.823  13.276  19.797  0.00  0.00    +0.000 C 
ATOM     21  C   UNL     1      10.317  13.283  19.690  0.00  0.00    +0.000 C 
ATOM     22  O   UNL     1       9.653  14.239  20.084  0.00  0.00    +0.000 OA
ENDBRANCH  14  21
ENDBRANCH  10  17
ENDBRANCH   1  11
BRANCH   1  23
ATOM     23  C   UNL     1       5.667   5.828  17.940  0.00  0.00    +0.000 C 
BRANCH  23  24
ATOM     24  C   UNL     1       4.422   6.530  17.469  0.00  0.00    +0.000 C 
ATOM     25  O   UNL     1       4.322   6.803  16.270  0.00  0.00    +0.000 OA
BRANCH  24  26
ATOM     26  C   UNL     1       3.358   6.785  18.415  0.00  0.00    +0.000 A 
ATOM     27  S   UNL     1       2.522   8.269  18.383  0.00  0.00    +0.000 S 
ATOM     28  C   UNL     1       1.759   7.882  19.871  0.00  0.00    +0.000 A 
ATOM     29  N   UNL     1       1.957   6.647  20.274  0.00  0.00    +0.000 NA
ATOM     30  C   UNL     1       2.893   6.009  19.465  0.00  0.00    +0.000 A 
ATOM     31  C   UNL     1       3.284   4.613  19.804  0.00  0.00    +0.000 C 
BRANCH  28  32
ATOM     32  C   UNL     1       0.948   8.895  20.538  0.00  0.00    +0.000 A 
ATOM     33  C   UNL     1       0.633   8.836  21.903  0.00  0.00    +0.000 A 
ATOM     34  C   UNL     1      -0.111   9.845  22.506  0.00  0.00    +0.000 A 
ATOM     35  C   UNL     1      -0.542  10.897  21.714  0.00  0.00    +0.000 A 
ATOM     36  N   UNL     1      -0.290  10.983  20.389  0.00  0.00    +0.000 NA
ATOM     37  C   UNL     1       0.438   9.982  19.831  0.00  0.00    +0.000 A 
ENDBRANCH  28  32
ENDBRANCH  24  26
ENDBRANCH  23  24
ENDBRANCH   1  23
TORSDOF 8
ENDMDL
MODEL 5
REMARK VINA RESULT:      -8.4      2.967      7.550
REMARK  Name = 
REMARK  10 active torsions:
REMARK  status: ('A' for Active; 'I' for Inactive)
REMARK    1  A    between atoms: C_1  and  C_2
REMARK    2  A    between atoms: C_2  and  C_4
REMARK    3  A    between atoms: C_7  and  N_8
REMARK    4  A    between atoms: C_9  and  C_11
REMARK    5  A    between atoms: C_11  and  C_12
REMARK    6  A    between atoms: C_12  and  C_13
REMARK    7  A    between atoms: C_13  and  C_15
REMARK    8  A    between atoms: C_17  and  C_18
REMARK    9  A    between atoms: C_25  and  C_26
REMARK   10  A    between atoms: N_27  and  N_28
REMARK                            x       y       z     vdW  Elec       q    Type
REMARK                         _______ _______ _______ _____ _____    ______ ____
ROOT
ATOM      1  C   UNL     1       4.182   4.550  19.108  0.00  0.00    +0.000 C 
ATOM      2  N   UNL     1       3.836   3.297  18.981  0.00  0.00    +0.000 NA
ENDROOT
BRANCH   2   3
ATOM      3  N   UNL     1       4.727   2.313  19.312  0.00  0.00    +0.000 N 
ATOM      4  C   UNL     1       4.710   1.709  20.545  0.00  0.00    +0.000 C 
ATOM      5  N   UNL     1       3.685   2.085  21.347  0.00  0.00    +0.000 N 
ATOM      6  O   UNL     1       5.557   0.895  20.890  0.00  0.00    +0.000 OA
ATOM      7  H   UNL     1       5.519   2.071  18.731  0.00  0.00    +0.000 HD
ATOM      8  H   UNL     1       3.240   2.960  21.104  0.00  0.00    +0.000 HD
ATOM      9  H   UNL     1       3.716   1.795  22.314  0.00  0.00    +0.000 HD
ENDBRANCH   2   3
BRANCH   1  11
ATOM     10  N   UNL     1       3.127   6.807  19.456  0.00  0.00    +0.000 N 
ATOM     11  C   UNL     1       3.041   5.553  18.870  0.00  0.00    +0.000 C 
ATOM     12  O   UNL     1       2.122   5.147  18.165  0.00  0.00    +0.000 OA
ATOM     13  H   UNL     1       3.885   7.009  20.105  0.00  0.00    +0.000 HD
BRANCH  10  17
ATOM     14  C   UNL     1       0.332   9.983  18.971  0.00  0.00    +0.000 A 
ATOM     15  C   UNL     1       1.110   9.573  17.888  0.00  0.00    +0.000 A 
ATOM     16  C   UNL     1       2.029   8.525  18.033  0.00  0.00    +0.000 A 
ATOM     17  C   UNL     1       2.199   7.865  19.255  0.00  0.00    +0.000 A 
ATOM     18  C   UNL     1       1.428   8.290  20.343  0.00  0.00    +0.000 A 
ATOM     19  C   UNL     1       0.500   9.336  20.201  0.00  0.00    +0.000 A 
BRANCH  14  21
ATOM     20  C   UNL     1      -1.815  10.925  17.880  0.00  0.00    +0.000 C 
ATOM     21  C   UNL     1      -0.668  11.086  18.848  0.00  0.00    +0.000 C 
ATOM     22  O   UNL     1      -0.552  12.096  19.538  0.00  0.00    +0.000 OA
ENDBRANCH  14  21
ENDBRANCH  10  17
ENDBRANCH   1  11
BRANCH   1  23
ATOM     23  C   UNL     1       5.542   4.996  19.582  0.00  0.00    +0.000 C 
BRANCH  23  24
ATOM     24  C   UNL     1       6.653   5.132  18.576  0.00  0.00    +0.000 C 
ATOM     25  O   UNL     1       7.179   4.104  18.143  0.00  0.00    +0.000 OA
BRANCH  24  26
ATOM     26  C   UNL     1       7.006   6.448  18.093  0.00  0.00    +0.000 A 
ATOM     27  S   UNL     1       8.311   7.294  18.791  0.00  0.00    +0.000 S 
ATOM     28  C   UNL     1       7.859   8.714  17.939  0.00  0.00    +0.000 A 
ATOM     29  N   UNL     1       6.917   8.528  17.042  0.00  0.00    +0.000 NA
ATOM     30  C   UNL     1       6.397   7.240  17.132  0.00  0.00    +0.000 A 
ATOM     31  C   UNL     1       5.279   6.864  16.223  0.00  0.00    +0.000 C 
BRANCH  28  32
ATOM     32  C   UNL     1       8.546   9.967  18.232  0.00  0.00    +0.000 A 
ATOM     33  C   UNL     1       9.540  10.074  19.215  0.00  0.00    +0.000 A 
ATOM     34  C   UNL     1      10.198  11.281  19.434  0.00  0.00    +0.000 A 
ATOM     35  C   UNL     1       9.827  12.371  18.663  0.00  0.00    +0.000 A 
ATOM     36  N   UNL     1       8.855  12.326  17.726  0.00  0.00    +0.000 NA
ATOM     37  C   UNL     1       8.233  11.133  17.538  0.00  0.00    +0.000 A 
ENDBRANCH  28  32
ENDBRANCH  24  26
ENDBRANCH  23  24
ENDBRANCH   1  23
TORSDOF 8
ENDMDL
MODEL 6
REMARK VINA RESULT:      -8.4      4.759      6.781
REMARK  Name = 
REMARK  10 active torsions:
REMARK  status: ('A' for Active; 'I' for Inactive)
REMARK    1  A    between atoms: C_1  and  C_2
REMARK    2  A    between atoms: C_2  and  C_4
REMARK    3  A    between atoms: C_7  and  N_8
REMARK    4  A    between atoms: C_9  and  C_11
REMARK    5  A    between atoms: C_11  and  C_12
REMARK    6  A    between atoms: C_12  and  C_13
REMARK    7  A    between atoms: C_13  and  C_15
REMARK    8  A    between atoms: C_17  and  C_18
REMARK    9  A    between atoms: C_25  and  C_26
REMARK   10  A    between atoms: N_27  and  N_28
REMARK                            x       y       z     vdW  Elec       q    Type
REMARK                         _______ _______ _______ _____ _____    ______ ____
ROOT
ATOM      1  C   UNL     1       1.941   4.001  19.063  0.00  0.00    +0.000 C 
ATOM      2  N   UNL     1       1.704   2.785  19.477  0.00  0.00    +0.000 NA
ENDROOT
BRANCH   2   3
ATOM      3  N   UNL     1       0.897   2.585  20.563  0.00  0.00    +0.000 N 
ATOM      4  C   UNL     1       1.412   2.440  21.828  0.00  0.00    +0.000 C 
ATOM      5  N   UNL     1       2.751   2.622  21.920  0.00  0.00    +0.000 N 
ATOM      6  O   UNL     1       0.712   2.168  22.795  0.00  0.00    +0.000 OA
ATOM      7  H   UNL     1      -0.094   2.401  20.484  0.00  0.00    +0.000 HD
ATOM      8  H   UNL     1       3.264   2.533  21.052  0.00  0.00    +0.000 HD
ATOM      9  H   UNL     1       3.199   2.372  22.790  0.00  0.00    +0.000 HD
ENDBRANCH   2   3
BRANCH   1  11
ATOM     10  N   UNL     1       3.915   4.781  17.714  0.00  0.00    +0.000 N 
ATOM     11  C   UNL     1       2.716   4.084  17.739  0.00  0.00    +0.000 C 
ATOM     12  O   UNL     1       2.192   3.514  16.786  0.00  0.00    +0.000 OA
ATOM     13  H   UNL     1       4.211   5.303  18.536  0.00  0.00    +0.000 HD
BRANCH  10  17
ATOM     14  C   UNL     1       6.514   4.923  14.344  0.00  0.00    +0.000 A 
ATOM     15  C   UNL     1       5.901   6.092  14.797  0.00  0.00    +0.000 A 
ATOM     16  C   UNL     1       5.049   6.060  15.909  0.00  0.00    +0.000 A 
ATOM     17  C   UNL     1       4.783   4.868  16.592  0.00  0.00    +0.000 A 
ATOM     18  C   UNL     1       5.387   3.695  16.124  0.00  0.00    +0.000 A 
ATOM     19  C   UNL     1       6.249   3.723  15.014  0.00  0.00    +0.000 A 
BRANCH  14  21
ATOM     20  C   UNL     1       7.136   4.023  12.000  0.00  0.00    +0.000 C 
ATOM     21  C   UNL     1       7.440   4.925  13.172  0.00  0.00    +0.000 C 
ATOM     22  O   UNL     1       8.423   5.662  13.172  0.00  0.00    +0.000 OA
ENDBRANCH  14  21
ENDBRANCH  10  17
ENDBRANCH   1  11
BRANCH   1  23
ATOM     23  C   UNL     1       1.392   5.233  19.737  0.00  0.00    +0.000 C 
BRANCH  23  24
ATOM     24  C   UNL     1       2.323   6.380  20.023  0.00  0.00    +0.000 C 
ATOM     25  O   UNL     1       3.525   6.139  20.157  0.00  0.00    +0.000 OA
BRANCH  24  26
ATOM     26  C   UNL     1       1.793   7.726  20.048  0.00  0.00    +0.000 A 
ATOM     27  S   UNL     1       1.071   8.335  21.466  0.00  0.00    +0.000 S 
ATOM     28  C   UNL     1       0.501   9.702  20.600  0.00  0.00    +0.000 A 
ATOM     29  N   UNL     1       0.977   9.805  19.379  0.00  0.00    +0.000 NA
ATOM     30  C   UNL     1       1.700   8.667  19.035  0.00  0.00    +0.000 A 
ATOM     31  C   UNL     1       2.273   8.583  17.663  0.00  0.00    +0.000 C 
BRANCH  28  32
ATOM     32  C   UNL     1      -0.405  10.635  21.262  0.00  0.00    +0.000 A 
ATOM     33  C   UNL     1      -0.965  11.742  20.607  0.00  0.00    +0.000 A 
ATOM     34  C   UNL     1      -1.855  12.583  21.267  0.00  0.00    +0.000 A 
ATOM     35  C   UNL     1      -2.156  12.302  22.590  0.00  0.00    +0.000 A 
ATOM     36  N   UNL     1      -1.620  11.267  23.272  0.00  0.00    +0.000 NA
ATOM     37  C   UNL     1      -0.754  10.465  22.599  0.00  0.00    +0.000 A 
ENDBRANCH  28  32
ENDBRANCH  24  26
ENDBRANCH  23  24
ENDBRANCH   1  23
TORSDOF 8
ENDMDL
MODEL 7
REMARK VINA RESULT:      -8.3      3.748      8.206
REMARK  Name = 
REMARK  10 active torsions:
REMARK  status: ('A' for Active; 'I' for Inactive)
REMARK    1  A    between atoms: C_1  and  C_2
REMARK    2  A    between atoms: C_2  and  C_4
REMARK    3  A    between atoms: C_7  and  N_8
REMARK    4  A    between atoms: C_9  and  C_11
REMARK    5  A    between atoms: C_11  and  C_12
REMARK    6  A    between atoms: C_12  and  C_13
REMARK    7  A    between atoms: C_13  and  C_15
REMARK    8  A    between atoms: C_17  and  C_18
REMARK    9  A    between atoms: C_25  and  C_26
REMARK   10  A    between atoms: N_27  and  N_28
REMARK                            x       y       z     vdW  Elec       q    Type
REMARK                         _______ _______ _______ _____ _____    ______ ____
ROOT
ATOM      1  C   UNL     1       2.916   5.889  19.041  0.00  0.00    +0.000 C 
ATOM      2  N   UNL     1       2.044   5.044  18.561  0.00  0.00    +0.000 NA
ENDROOT
BRANCH   2   3
ATOM      3  N   UNL     1       2.250   3.701  18.712  0.00  0.00    +0.000 N 
ATOM      4  C   UNL     1       1.491   2.946  19.573  0.00  0.00    +0.000 C 
ATOM      5  N   UNL     1       0.470   3.612  20.163  0.00  0.00    +0.000 N 
ATOM      6  O   UNL     1       1.724   1.763  19.789  0.00  0.00    +0.000 OA
ATOM      7  H   UNL     1       3.043   3.218  18.309  0.00  0.00    +0.000 HD
ATOM      8  H   UNL     1       0.550   4.620  20.164  0.00  0.00    +0.000 HD
ATOM      9  H   UNL     1      -0.015   3.151  20.919  0.00  0.00    +0.000 HD
ENDBRANCH   2   3
BRANCH   1  11
ATOM     10  N   UNL     1       1.522   7.823  19.845  0.00  0.00    +0.000 N 
ATOM     11  C   UNL     1       2.487   7.363  18.961  0.00  0.00    +0.000 C 
ATOM     12  O   UNL     1       3.047   8.027  18.093  0.00  0.00    +0.000 OA
ATOM     13  H   UNL     1       1.048   7.165  20.460  0.00  0.00    +0.000 HD
BRANCH  10  17
ATOM     14  C   UNL     1       0.194  11.864  20.044  0.00  0.00    +0.000 A 
ATOM     15  C   UNL     1       0.543  11.190  21.215  0.00  0.00    +0.000 A 
ATOM     16  C   UNL     1       0.988   9.863  21.163  0.00  0.00    +0.000 A 
ATOM     17  C   UNL     1       1.091   9.173  19.949  0.00  0.00    +0.000 A 
ATOM     18  C   UNL     1       0.725   9.848  18.778  0.00  0.00    +0.000 A 
ATOM     19  C   UNL     1       0.285  11.182  18.825  0.00  0.00    +0.000 A 
BRANCH  14  21
ATOM     20  C   UNL     1       0.628  14.335  20.673  0.00  0.00    +0.000 C 
ATOM     21  C   UNL     1      -0.269  13.284  20.063  0.00  0.00    +0.000 C 
ATOM     22  O   UNL     1      -1.357  13.578  19.575  0.00  0.00    +0.000 OA
ENDBRANCH  14  21
ENDBRANCH  10  17
ENDBRANCH   1  11
BRANCH   1  23
ATOM     23  C   UNL     1       4.182   5.471  19.745  0.00  0.00    +0.000 C 
BRANCH  23  24
ATOM     24  C   UNL     1       5.106   4.500  19.061  0.00  0.00    +0.000 C 
ATOM     25  O   UNL     1       5.216   3.366  19.532  0.00  0.00    +0.000 OA
BRANCH  24  26
ATOM     26  C   UNL     1       5.764   4.900  17.837  0.00  0.00    +0.000 A 
ATOM     27  S   UNL     1       5.156   4.383  16.331  0.00  0.00    +0.000 S 
ATOM     28  C   UNL     1       6.565   4.974  15.549  0.00  0.00    +0.000 A 
ATOM     29  N   UNL     1       7.353   5.686  16.323  0.00  0.00    +0.000 NA
ATOM     30  C   UNL     1       6.923   5.634  17.646  0.00  0.00    +0.000 A 
ATOM     31  C   UNL     1       7.729   6.343  18.678  0.00  0.00    +0.000 C 
BRANCH  28  32
ATOM     32  C   UNL     1       6.763   4.689  14.132  0.00  0.00    +0.000 A 
ATOM     33  C   UNL     1       7.644   5.425  13.326  0.00  0.00    +0.000 A 
ATOM     34  C   UNL     1       7.831   5.093  11.988  0.00  0.00    +0.000 A 
ATOM     35  C   UNL     1       7.109   4.027  11.476  0.00  0.00    +0.000 A 
ATOM     36  N   UNL     1       6.227   3.307  12.203  0.00  0.00    +0.000 NA
ATOM     37  C   UNL     1       6.067   3.657  13.506  0.00  0.00    +0.000 A 
ENDBRANCH  28  32
ENDBRANCH  24  26
ENDBRANCH  23  24
ENDBRANCH   1  23
TORSDOF 8
ENDMDL
MODEL 8
REMARK VINA RESULT:      -8.2      1.161      1.495
REMARK  Name = 
REMARK  10 active torsions:
REMARK  status: ('A' for Active; 'I' for Inactive)
REMARK    1  A    between atoms: C_1  and  C_2
REMARK    2  A    between atoms: C_2  and  C_4
REMARK    3  A    between atoms: C_7  and  N_8
REMARK    4  A    between atoms: C_9  and  C_11
REMARK    5  A    between atoms: C_11  and  C_12
REMARK    6  A    between atoms: C_12  and  C_13
REMARK    7  A    between atoms: C_13  and  C_15
REMARK    8  A    between atoms: C_17  and  C_18
REMARK    9  A    between atoms: C_25  and  C_26
REMARK   10  A    between atoms: N_27  and  N_28
REMARK                            x       y       z     vdW  Elec       q    Type
REMARK                         _______ _______ _______ _____ _____    ______ ____
ROOT
ATOM      1  C   UNL     1       7.278   6.654  17.561  0.00  0.00    +0.000 C 
ATOM      2  N   UNL     1       7.509   6.232  16.347  0.00  0.00    +0.000 NA
ENDROOT
BRANCH   2   3
ATOM      3  N   UNL     1       7.113   4.976  15.980  0.00  0.00    +0.000 N 
ATOM      4  C   UNL     1       7.051   4.594  14.661  0.00  0.00    +0.000 C 
ATOM      5  N   UNL     1       7.516   5.514  13.782  0.00  0.00    +0.000 N 
ATOM      6  O   UNL     1       6.610   3.506  14.312  0.00  0.00    +0.000 OA
ATOM      7  H   UNL     1       6.721   4.311  16.633  0.00  0.00    +0.000 HD
ATOM      8  H   UNL     1       7.561   6.464  14.128  0.00  0.00    +0.000 HD
ATOM      9  H   UNL     1       7.346   5.350  12.800  0.00  0.00    +0.000 HD
ENDBRANCH   2   3
BRANCH   1  11
ATOM     10  N   UNL     1       8.634   8.451  18.681  0.00  0.00    +0.000 N 
ATOM     11  C   UNL     1       7.614   8.135  17.797  0.00  0.00    +0.000 C 
ATOM     12  O   UNL     1       6.928   8.936  17.168  0.00  0.00    +0.000 OA
ATOM     13  H   UNL     1       9.074   7.714  19.228  0.00  0.00    +0.000 HD
BRANCH  10  17
ATOM     14  C   UNL     1      10.087  12.360  19.548  0.00  0.00    +0.000 A 
ATOM     15  C   UNL     1       9.987  11.935  18.222  0.00  0.00    +0.000 A 
ATOM     16  C   UNL     1       9.505  10.654  17.923  0.00  0.00    +0.000 A 
ATOM     17  C   UNL     1       9.115   9.765  18.932  0.00  0.00    +0.000 A 
ATOM     18  C   UNL     1       9.231  10.190  20.261  0.00  0.00    +0.000 A 
ATOM     19  C   UNL     1       9.708  11.477  20.566  0.00  0.00    +0.000 A 
BRANCH  14  21
ATOM     20  C   UNL     1      11.993  14.107  19.528  0.00  0.00    +0.000 C 
ATOM     21  C   UNL     1      10.581  13.724  19.901  0.00  0.00    +0.000 C 
ATOM     22  O   UNL     1       9.835  14.515  20.474  0.00  0.00    +0.000 OA
ENDBRANCH  14  21
ENDBRANCH  10  17
ENDBRANCH   1  11
BRANCH   1  23
ATOM     23  C   UNL     1       6.609   5.815  18.621  0.00  0.00    +0.000 C 
BRANCH  23  24
ATOM     24  C   UNL     1       5.286   5.170  18.309  0.00  0.00    +0.000 C 
ATOM     25  O   UNL     1       5.289   4.065  17.762  0.00  0.00    +0.000 OA
BRANCH  24  26
ATOM     26  C   UNL     1       4.068   5.825  18.732  0.00  0.00    +0.000 A 
ATOM     27  S   UNL     1       3.622   7.323  18.053  0.00  0.00    +0.000 S 
ATOM     28  C   UNL     1       2.382   7.496  19.226  0.00  0.00    +0.000 A 
ATOM     29  N   UNL     1       2.178   6.424  19.959  0.00  0.00    +0.000 NA
ATOM     30  C   UNL     1       3.153   5.463  19.708  0.00  0.00    +0.000 A 
ATOM     31  C   UNL     1       3.113   4.196  20.489  0.00  0.00    +0.000 C 
BRANCH  28  32
ATOM     32  C   UNL     1       1.647   8.754  19.302  0.00  0.00    +0.000 A 
ATOM     33  C   UNL     1       1.641   9.693  18.261  0.00  0.00    +0.000 A 
ATOM     34  C   UNL     1       0.894  10.863  18.361  0.00  0.00    +0.000 A 
ATOM     35  C   UNL     1       0.172  11.075  19.524  0.00  0.00    +0.000 A 
ATOM     36  N   UNL     1       0.169  10.215  20.566  0.00  0.00    +0.000 NA
ATOM     37  C   UNL     1       0.909   9.084  20.437  0.00  0.00    +0.000 A 
ENDBRANCH  28  32
ENDBRANCH  24  26
ENDBRANCH  23  24
ENDBRANCH   1  23
TORSDOF 8
ENDMDL
MODEL 9
REMARK VINA RESULT:      -8.2      1.290      1.512
REMARK  Name = 
REMARK  10 active torsions:
REMARK  status: ('A' for Active; 'I' for Inactive)
REMARK    1  A    between atoms: C_1  and  C_2
REMARK    2  A    between atoms: C_2  and  C_4
REMARK    3  A    between atoms: C_7  and  N_8
REMARK    4  A    between atoms: C_9  and  C_11
REMARK    5  A    between atoms: C_11  and  C_12
REMARK    6  A    between atoms: C_12  and  C_13
REMARK    7  A    between atoms: C_13  and  C_15
REMARK    8  A    between atoms: C_17  and  C_18
REMARK    9  A    between atoms: C_25  and  C_26
REMARK   10  A    between atoms: N_27  and  N_28
REMARK                            x       y       z     vdW  Elec       q    Type
REMARK                         _______ _______ _______ _____ _____    ______ ____
ROOT
ATOM      1  C   UNL     1       7.098   6.647  17.544  0.00  0.00    +0.000 C 
ATOM      2  N   UNL     1       7.757   6.045  16.590  0.00  0.00    +0.000 NA
ENDROOT
BRANCH   2   3
ATOM      3  N   UNL     1       7.404   4.777  16.221  0.00  0.00    +0.000 N 
ATOM      4  C   UNL     1       6.810   4.516  15.010  0.00  0.00    +0.000 C 
ATOM      5  N   UNL     1       6.709   5.586  14.185  0.00  0.00    +0.000 N 
ATOM      6  O   UNL     1       6.403   3.402  14.704  0.00  0.00    +0.000 OA
ATOM      7  H   UNL     1       7.435   3.991  16.857  0.00  0.00    +0.000 HD
ATOM      8  H   UNL     1       6.782   6.490  14.634  0.00  0.00    +0.000 HD
ATOM      9  H   UNL     1       6.142   5.486  13.356  0.00  0.00    +0.000 HD
ENDBRANCH   2   3
BRANCH   1  11
ATOM     10  N   UNL     1       8.502   8.430  18.628  0.00  0.00    +0.000 N 
ATOM     11  C   UNL     1       7.476   8.123  17.747  0.00  0.00    +0.000 C 
ATOM     12  O   UNL     1       6.816   8.929  17.097  0.00  0.00    +0.000 OA
ATOM     13  H   UNL     1       8.918   7.693  19.193  0.00  0.00    +0.000 HD
BRANCH  10  17
ATOM     14  C   UNL     1      10.044  12.362  19.177  0.00  0.00    +0.000 A 
ATOM     15  C   UNL     1       9.665  11.604  20.286  0.00  0.00    +0.000 A 
ATOM     16  C   UNL     1       9.163  10.307  20.119  0.00  0.00    +0.000 A 
ATOM     17  C   UNL     1       9.021   9.735  18.850  0.00  0.00    +0.000 A 
ATOM     18  C   UNL     1       9.387  10.504  17.739  0.00  0.00    +0.000 A 
ATOM     19  C   UNL     1       9.899  11.804  17.902  0.00  0.00    +0.000 A 
BRANCH  14  21
ATOM     20  C   UNL     1      10.886  14.272  20.704  0.00  0.00    +0.000 C 
ATOM     21  C   UNL     1      10.599  13.741  19.320  0.00  0.00    +0.000 C 
ATOM     22  O   UNL     1      10.823  14.416  18.318  0.00  0.00    +0.000 OA
ENDBRANCH  14  21
ENDBRANCH  10  17
ENDBRANCH   1  11
BRANCH   1  23
ATOM     23  C   UNL     1       5.961   6.010  18.303  0.00  0.00    +0.000 C 
BRANCH  23  24
ATOM     24  C   UNL     1       4.572   6.090  17.731  0.00  0.00    +0.000 C 
ATOM     25  O   UNL     1       4.410   5.798  16.544  0.00  0.00    +0.000 OA
BRANCH  24  26
ATOM     26  C   UNL     1       3.470   6.423  18.606  0.00  0.00    +0.000 A 
ATOM     27  S   UNL     1       2.712   7.944  18.487  0.00  0.00    +0.000 S 
ATOM     28  C   UNL     1       1.848   7.638  19.938  0.00  0.00    +0.000 A 
ATOM     29  N   UNL     1       1.962   6.408  20.385  0.00  0.00    +0.000 NA
ATOM     30  C   UNL     1       2.909   5.702  19.648  0.00  0.00    +0.000 A 
ATOM     31  C   UNL     1       3.211   4.299  20.047  0.00  0.00    +0.000 C 
BRANCH  28  32
ATOM     32  C   UNL     1       1.052   8.708  20.530  0.00  0.00    +0.000 A 
ATOM     33  C   UNL     1       0.658   8.705  21.876  0.00  0.00    +0.000 A 
ATOM     34  C   UNL     1      -0.068   9.766  22.408  0.00  0.00    +0.000 A 
ATOM     35  C   UNL     1      -0.400  10.813  21.564  0.00  0.00    +0.000 A 
ATOM     36  N   UNL     1      -0.069  10.849  20.255  0.00  0.00    +0.000 NA
ATOM     37  C   UNL     1       0.639   9.797  19.766  0.00  0.00    +0.000 A 
ENDBRANCH  28  32
ENDBRANCH  24  26
ENDBRANCH  23  24
ENDBRANCH   1  23
TORSDOF 8
ENDMDL
