MODEL 1
REMARK VINA RESULT:      -7.6      0.000      0.000
REMARK  Name = 
REMARK  8 active torsions:
REMARK  status: ('A' for Active; 'I' for Inactive)
REMARK    1  A    between atoms: C_1  and  C_2
REMARK    2  A    between atoms: C_2  and  C_3
REMARK    3  A    between atoms: C_2  and  N_4
REMARK    4  A    between atoms: C_8  and  C_9
REMARK    5  A    between atoms: C_11  and  C_12
REMARK    6  A    between atoms: C_15  and  C_16
REMARK    7  A    between atoms: C_25  and  C_26
REMARK    8  A    between atoms: C_26  and  O_27
REMARK                            x       y       z     vdW  Elec       q    Type
REMARK                         _______ _______ _______ _____ _____    ______ ____
ROOT
ATOM      1  N   UNL     1      -3.496  12.945  21.990  0.00  0.00    +0.000 N 
ATOM      2  C   UNL     1      -3.291  12.628  20.673  0.00  0.00    +0.000 C 
ATOM      3  O   UNL     1      -4.134  12.756  19.795  0.00  0.00    +0.000 OA
ATOM      4  N   UNL     1      -2.020  12.196  20.424  0.00  0.00    +0.000 N 
ATOM      5  C   UNL     1      -1.444  11.819  19.126  0.00  0.00    +0.000 C 
ATOM      6  C   UNL     1      -0.204  11.380  19.968  0.00  0.00    +0.000 C 
ATOM      7  C   UNL     1      -1.178  11.251  21.175  0.00  0.00    +0.000 C 
ATOM      8  H   UNL     1      -2.651  13.284  22.441  0.00  0.00    +0.000 HD
ENDROOT
BRANCH   6   9
ATOM      9  C   UNL     1       0.695  10.141  19.539  0.00  0.00    +0.000 A 
ATOM     10  C   UNL     1       1.269  10.071  18.255  0.00  0.00    +0.000 A 
ATOM     11  C   UNL     1       2.001   8.956  17.821  0.00  0.00    +0.000 A 
ATOM     12  C   UNL     1       2.208   7.848  18.654  0.00  0.00    +0.000 A 
ATOM     13  C   UNL     1       1.685   7.934  19.952  0.00  0.00    +0.000 A 
ATOM     14  C   UNL     1       0.955   9.050  20.380  0.00  0.00    +0.000 A 
BRANCH  12  15
ATOM     15  C   UNL     1       2.932   6.641  18.197  0.00  0.00    +0.000 A 
ATOM     16  C   UNL     1       2.452   5.345  18.467  0.00  0.00    +0.000 A 
ATOM     17  C   UNL     1       3.134   4.212  18.018  0.00  0.00    +0.000 A 
ATOM     18  C   UNL     1       4.301   4.358  17.285  0.00  0.00    +0.000 A 
ATOM     19  F   UNL     1       4.947   3.272  16.842  0.00  0.00    +0.000 F 
ATOM     20  C   UNL     1       4.809   5.618  17.003  0.00  0.00    +0.000 A 
ATOM     21  C   UNL     1       4.134   6.749  17.466  0.00  0.00    +0.000 A 
ENDBRANCH  12  15
ENDBRANCH   6   9
BRANCH   1  23
ATOM     22  C   UNL     1      -5.087  12.960  23.827  0.00  0.00    +0.000 C 
ATOM     23  C   UNL     1      -4.747  13.526  22.453  0.00  0.00    +0.000 C 
ATOM     24  C   UNL     1      -4.662  15.051  22.506  0.00  0.00    +0.000 C 
ENDBRANCH   1  23
BRANCH   5  25
ATOM     25  C   UNL     1      -2.187  10.796  18.409  0.00  0.00    +0.000 C 
ATOM     26  N   UNL     1      -2.773  10.007  17.792  0.00  0.00    +0.000 NA
ENDBRANCH   5  25
BRANCH   7  27
ATOM     27  C   UNL     1      -0.694  11.736  22.534  0.00  0.00    +0.000 C 
BRANCH  27  28
ATOM     28  O   UNL     1      -0.417  10.647  23.413  0.00  0.00    +0.000 OA
ATOM     29  H   UNL     1       0.127  10.990  24.144  0.00  0.00    +0.000 HD
ENDBRANCH  27  28
ENDBRANCH   7  27
TORSDOF 6
ENDMDL
MODEL 2
REMARK VINA RESULT:      -7.5      0.612      1.433
REMARK  Name = 
REMARK  8 active torsions:
REMARK  status: ('A' for Active; 'I' for Inactive)
REMARK    1  A    between atoms: C_1  and  C_2
REMARK    2  A    between atoms: C_2  and  C_3
REMARK    3  A    between atoms: C_2  and  N_4
REMARK    4  A    between atoms: C_8  and  C_9
REMARK    5  A    between atoms: C_11  and  C_12
REMARK    6  A    between atoms: C_15  and  C_16
REMARK    7  A    between atoms: C_25  and  C_26
REMARK    8  A    between atoms: C_26  and  O_27
REMARK                            x       y       z     vdW  Elec       q    Type
REMARK                         _______ _______ _______ _____ _____    ______ ____
ROOT
ATOM      1  N   UNL     1      -3.093  12.573  22.467  0.00  0.00    +0.000 N 
ATOM      2  C   UNL     1      -2.889  12.481  21.116  0.00  0.00    +0.000 C 
ATOM      3  O   UNL     1      -3.698  12.841  20.271  0.00  0.00    +0.000 OA
ATOM      4  N   UNL     1      -1.656  11.987  20.799  0.00  0.00    +0.000 N 
ATOM      5  C   UNL     1      -1.088  11.798  19.458  0.00  0.00    +0.000 C 
ATOM      6  C   UNL     1       0.090  11.104  20.213  0.00  0.00    +0.000 C 
ATOM      7  C   UNL     1      -0.918  10.849  21.371  0.00  0.00    +0.000 C 
ATOM      8  H   UNL     1      -2.231  12.747  22.977  0.00  0.00    +0.000 HD
ENDROOT
BRANCH   6   9
ATOM      9  C   UNL     1       0.885   9.886  19.571  0.00  0.00    +0.000 A 
ATOM     10  C   UNL     1       1.218   8.752  20.336  0.00  0.00    +0.000 A 
ATOM     11  C   UNL     1       1.985   7.697  19.819  0.00  0.00    +0.000 A 
ATOM     12  C   UNL     1       2.457   7.716  18.499  0.00  0.00    +0.000 A 
ATOM     13  C   UNL     1       2.084   8.817  17.716  0.00  0.00    +0.000 A 
ATOM     14  C   UNL     1       1.318   9.867  18.237  0.00  0.00    +0.000 A 
BRANCH  12  15
ATOM     15  C   UNL     1       3.312   6.639  17.952  0.00  0.00    +0.000 A 
ATOM     16  C   UNL     1       4.357   6.912  17.049  0.00  0.00    +0.000 A 
ATOM     17  C   UNL     1       5.169   5.892  16.550  0.00  0.00    +0.000 A 
ATOM     18  C   UNL     1       4.953   4.584  16.953  0.00  0.00    +0.000 A 
ATOM     19  F   UNL     1       5.741   3.606  16.486  0.00  0.00    +0.000 F 
ATOM     20  C   UNL     1       3.930   4.273  17.837  0.00  0.00    +0.000 A 
ATOM     21  C   UNL     1       3.110   5.293  18.323  0.00  0.00    +0.000 A 
ENDBRANCH  12  15
ENDBRANCH   6   9
BRANCH   1  23
ATOM     22  C   UNL     1      -4.594  12.547  24.380  0.00  0.00    +0.000 C 
ATOM     23  C   UNL     1      -4.298  13.174  23.021  0.00  0.00    +0.000 C 
ATOM     24  C   UNL     1      -4.151  14.689  23.150  0.00  0.00    +0.000 C 
ENDBRANCH   1  23
BRANCH   5  25
ATOM     25  C   UNL     1      -1.903  10.993  18.563  0.00  0.00    +0.000 C 
ATOM     26  N   UNL     1      -2.511  10.323  17.836  0.00  0.00    +0.000 NA
ENDBRANCH   5  25
BRANCH   7  27
ATOM     27  C   UNL     1      -0.422  11.036  22.798  0.00  0.00    +0.000 C 
BRANCH  27  28
ATOM     28  O   UNL     1      -0.694   9.890  23.603  0.00  0.00    +0.000 OA
ATOM     29  H   UNL     1      -1.644   9.897  23.814  0.00  0.00    +0.000 HD
ENDBRANCH  27  28
ENDBRANCH   7  27
TORSDOF 6
ENDMDL
MODEL 3
REMARK VINA RESULT:      -7.4      1.064      1.534
REMARK  Name = 
REMARK  8 active torsions:
REMARK  status: ('A' for Active; 'I' for Inactive)
REMARK    1  A    between atoms: C_1  and  C_2
REMARK    2  A    between atoms: C_2  and  C_3
REMARK    3  A    between atoms: C_2  and  N_4
REMARK    4  A    between atoms: C_8  and  C_9
REMARK    5  A    between atoms: C_11  and  C_12
REMARK    6  A    between atoms: C_15  and  C_16
REMARK    7  A    between atoms: C_25  and  C_26
REMARK    8  A    between atoms: C_26  and  O_27
REMARK                            x       y       z     vdW  Elec       q    Type
REMARK                         _______ _______ _______ _____ _____    ______ ____
ROOT
ATOM      1  N   UNL     1      -2.632  12.319  22.282  0.00  0.00    +0.000 N 
ATOM      2  C   UNL     1      -2.298  12.371  20.954  0.00  0.00    +0.000 C 
ATOM      3  O   UNL     1      -2.972  12.927  20.097  0.00  0.00    +0.000 OA
ATOM      4  N   UNL     1      -1.096  11.779  20.686  0.00  0.00    +0.000 N 
ATOM      5  C   UNL     1      -0.414  11.693  19.389  0.00  0.00    +0.000 C 
ATOM      6  C   UNL     1       0.599  10.777  20.146  0.00  0.00    +0.000 C 
ATOM      7  C   UNL     1      -0.546  10.501  21.163  0.00  0.00    +0.000 C 
ATOM      8  H   UNL     1      -1.815  12.326  22.886  0.00  0.00    +0.000 HD
ENDROOT
BRANCH   6   9
ATOM      9  C   UNL     1       1.324   9.564  19.420  0.00  0.00    +0.000 A 
ATOM     10  C   UNL     1       1.551   8.346  20.090  0.00  0.00    +0.000 A 
ATOM     11  C   UNL     1       2.257   7.286  19.502  0.00  0.00    +0.000 A 
ATOM     12  C   UNL     1       2.771   7.383  18.202  0.00  0.00    +0.000 A 
ATOM     13  C   UNL     1       2.504   8.572  17.510  0.00  0.00    +0.000 A 
ATOM     14  C   UNL     1       1.798   9.627  18.101  0.00  0.00    +0.000 A 
BRANCH  12  15
ATOM     15  C   UNL     1       3.564   6.297  17.584  0.00  0.00    +0.000 A 
ATOM     16  C   UNL     1       3.225   4.942  17.757  0.00  0.00    +0.000 A 
ATOM     17  C   UNL     1       3.970   3.926  17.158  0.00  0.00    +0.000 A 
ATOM     18  C   UNL     1       5.063   4.250  16.369  0.00  0.00    +0.000 A 
ATOM     19  F   UNL     1       5.770   3.275  15.782  0.00  0.00    +0.000 F 
ATOM     20  C   UNL     1       5.434   5.573  16.178  0.00  0.00    +0.000 A 
ATOM     21  C   UNL     1       4.695   6.587  16.791  0.00  0.00    +0.000 A 
ENDBRANCH  12  15
ENDBRANCH   6   9
BRANCH   1  23
ATOM     22  C   UNL     1      -5.030  12.570  21.972  0.00  0.00    +0.000 C 
ATOM     23  C   UNL     1      -3.818  12.983  22.801  0.00  0.00    +0.000 C 
ATOM     24  C   UNL     1      -4.038  12.649  24.275  0.00  0.00    +0.000 C 
ENDBRANCH   1  23
BRANCH   5  25
ATOM     25  C   UNL     1      -1.210  11.107  18.324  0.00  0.00    +0.000 C 
ATOM     26  N   UNL     1      -1.887  10.640  17.505  0.00  0.00    +0.000 NA
ENDBRANCH   5  25
BRANCH   7  27
ATOM     27  C   UNL     1      -0.186  10.449  22.641  0.00  0.00    +0.000 C 
BRANCH  27  28
ATOM     28  O   UNL     1      -1.167   9.742  23.397  0.00  0.00    +0.000 OA
ATOM     29  H   UNL     1      -2.032  10.150  23.213  0.00  0.00    +0.000 HD
ENDBRANCH  27  28
ENDBRANCH   7  27
TORSDOF 6
ENDMDL
MODEL 4
REMARK VINA RESULT:      -7.3      1.400      1.992
REMARK  Name = 
REMARK  8 active torsions:
REMARK  status: ('A' for Active; 'I' for Inactive)
REMARK    1  A    between atoms: C_1  and  C_2
REMARK    2  A    between atoms: C_2  and  C_3
REMARK    3  A    between atoms: C_2  and  N_4
REMARK    4  A    between atoms: C_8  and  C_9
REMARK    5  A    between atoms: C_11  and  C_12
REMARK    6  A    between atoms: C_15  and  C_16
REMARK    7  A    between atoms: C_25  and  C_26
REMARK    8  A    between atoms: C_26  and  O_27
REMARK                            x       y       z     vdW  Elec       q    Type
REMARK                         _______ _______ _______ _____ _____    ______ ____
ROOT
ATOM      1  N   UNL     1      -2.336  12.603  21.615  0.00  0.00    +0.000 N 
ATOM      2  C   UNL     1      -1.886  12.297  20.358  0.00  0.00    +0.000 C 
ATOM      3  O   UNL     1      -2.388  12.720  19.325  0.00  0.00    +0.000 OA
ATOM      4  N   UNL     1      -0.775  11.503  20.371  0.00  0.00    +0.000 N 
ATOM      5  C   UNL     1      -0.007  11.024  19.215  0.00  0.00    +0.000 C 
ATOM      6  C   UNL     1       0.780  10.184  20.270  0.00  0.00    +0.000 C 
ATOM      7  C   UNL     1      -0.476  10.310  21.179  0.00  0.00    +0.000 C 
ATOM      8  H   UNL     1      -1.582  12.642  22.296  0.00  0.00    +0.000 HD
ENDROOT
BRANCH   6   9
ATOM      9  C   UNL     1       1.365   8.748  19.920  0.00  0.00    +0.000 A 
ATOM     10  C   UNL     1       1.971   8.494  18.674  0.00  0.00    +0.000 A 
ATOM     11  C   UNL     1       2.426   7.219  18.307  0.00  0.00    +0.000 A 
ATOM     12  C   UNL     1       2.305   6.123  19.173  0.00  0.00    +0.000 A 
ATOM     13  C   UNL     1       1.751   6.379  20.434  0.00  0.00    +0.000 A 
ATOM     14  C   UNL     1       1.299   7.654  20.796  0.00  0.00    +0.000 A 
BRANCH  12  15
ATOM     15  C   UNL     1       2.729   4.759  18.783  0.00  0.00    +0.000 A 
ATOM     16  C   UNL     1       3.539   4.531  17.655  0.00  0.00    +0.000 A 
ATOM     17  C   UNL     1       3.946   3.243  17.304  0.00  0.00    +0.000 A 
ATOM     18  C   UNL     1       3.555   2.164  18.081  0.00  0.00    +0.000 A 
ATOM     19  F   UNL     1       3.958   0.929  17.753  0.00  0.00    +0.000 F 
ATOM     20  C   UNL     1       2.752   2.346  19.197  0.00  0.00    +0.000 A 
ATOM     21  C   UNL     1       2.334   3.634  19.538  0.00  0.00    +0.000 A 
ENDBRANCH  12  15
ENDBRANCH   6   9
BRANCH   1  23
ATOM     22  C   UNL     1      -4.722  12.727  22.062  0.00  0.00    +0.000 C 
ATOM     23  C   UNL     1      -3.442  13.523  21.831  0.00  0.00    +0.000 C 
ATOM     24  C   UNL     1      -3.167  14.452  23.012  0.00  0.00    +0.000 C 
ENDBRANCH   1  23
BRANCH   5  25
ATOM     25  C   UNL     1      -0.792  10.316  18.218  0.00  0.00    +0.000 C 
ATOM     26  N   UNL     1      -1.375   9.738  17.397  0.00  0.00    +0.000 NA
ENDBRANCH   5  25
BRANCH   7  27
ATOM     27  C   UNL     1      -0.256  10.559  22.665  0.00  0.00    +0.000 C 
BRANCH  27  28
ATOM     28  O   UNL     1      -1.423  10.258  23.427  0.00  0.00    +0.000 OA
ATOM     29  H   UNL     1      -1.824   9.456  23.047  0.00  0.00    +0.000 HD
ENDBRANCH  27  28
ENDBRANCH   7  27
TORSDOF 6
ENDMDL
MODEL 5
REMARK VINA RESULT:      -7.1      1.625      2.346
REMARK  Name = 
REMARK  8 active torsions:
REMARK  status: ('A' for Active; 'I' for Inactive)
REMARK    1  A    between atoms: C_1  and  C_2
REMARK    2  A    between atoms: C_2  and  C_3
REMARK    3  A    between atoms: C_2  and  N_4
REMARK    4  A    between atoms: C_8  and  C_9
REMARK    5  A    between atoms: C_11  and  C_12
REMARK    6  A    between atoms: C_15  and  C_16
REMARK    7  A    between atoms: C_25  and  C_26
REMARK    8  A    between atoms: C_26  and  O_27
REMARK                            x       y       z     vdW  Elec       q    Type
REMARK                         _______ _______ _______ _____ _____    ______ ____
ROOT
ATOM      1  N   UNL     1      -1.944  12.700  21.769  0.00  0.00    +0.000 N 
ATOM      2  C   UNL     1      -1.490  12.400  20.511  0.00  0.00    +0.000 C 
ATOM      3  O   UNL     1      -1.904  12.926  19.487  0.00  0.00    +0.000 OA
ATOM      4  N   UNL     1      -0.481  11.479  20.517  0.00  0.00    +0.000 N 
ATOM      5  C   UNL     1       0.264  10.965  19.361  0.00  0.00    +0.000 C 
ATOM      6  C   UNL     1       0.911   9.990  20.396  0.00  0.00    +0.000 C 
ATOM      7  C   UNL     1      -0.352  10.224  21.274  0.00  0.00    +0.000 C 
ATOM      8  H   UNL     1      -1.214  12.617  22.472  0.00  0.00    +0.000 HD
ENDROOT
BRANCH   6   9
ATOM      9  C   UNL     1       1.334   8.512  19.992  0.00  0.00    +0.000 A 
ATOM     10  C   UNL     1       1.117   7.429  20.867  0.00  0.00    +0.000 A 
ATOM     11  C   UNL     1       1.549   6.128  20.571  0.00  0.00    +0.000 A 
ATOM     12  C   UNL     1       2.218   5.835  19.375  0.00  0.00    +0.000 A 
ATOM     13  C   UNL     1       2.391   6.896  18.477  0.00  0.00    +0.000 A 
ATOM     14  C   UNL     1       1.957   8.194  18.777  0.00  0.00    +0.000 A 
BRANCH  12  15
ATOM     15  C   UNL     1       2.730   4.480  19.070  0.00  0.00    +0.000 A 
ATOM     16  C   UNL     1       3.423   3.717  20.029  0.00  0.00    +0.000 A 
ATOM     17  C   UNL     1       3.888   2.434  19.736  0.00  0.00    +0.000 A 
ATOM     18  C   UNL     1       3.661   1.891  18.481  0.00  0.00    +0.000 A 
ATOM     19  F   UNL     1       4.094   0.654  18.204  0.00  0.00    +0.000 F 
ATOM     20  C   UNL     1       2.987   2.613  17.506  0.00  0.00    +0.000 A 
ATOM     21  C   UNL     1       2.536   3.901  17.797  0.00  0.00    +0.000 A 
ENDBRANCH  12  15
ENDBRANCH   6   9
BRANCH   1  23
ATOM     22  C   UNL     1      -4.325  13.098  22.045  0.00  0.00    +0.000 C 
ATOM     23  C   UNL     1      -2.940  13.734  21.997  0.00  0.00    +0.000 C 
ATOM     24  C   UNL     1      -2.657  14.499  23.289  0.00  0.00    +0.000 C 
ENDBRANCH   1  23
BRANCH   5  25
ATOM     25  C   UNL     1      -0.564  10.401  18.308  0.00  0.00    +0.000 C 
ATOM     26  N   UNL     1      -1.268   9.968  17.493  0.00  0.00    +0.000 NA
ENDBRANCH   5  25
BRANCH   7  27
ATOM     27  C   UNL     1      -0.155  10.377  22.776  0.00  0.00    +0.000 C 
BRANCH  27  28
ATOM     28  O   UNL     1      -0.777   9.317  23.499  0.00  0.00    +0.000 OA
ATOM     29  H   UNL     1      -1.733   9.359  23.320  0.00  0.00    +0.000 HD
ENDBRANCH  27  28
ENDBRANCH   7  27
TORSDOF 6
ENDMDL
MODEL 6
REMARK VINA RESULT:      -7.0      2.103      2.958
REMARK  Name = 
REMARK  8 active torsions:
REMARK  status: ('A' for Active; 'I' for Inactive)
REMARK    1  A    between atoms: C_1  and  C_2
REMARK    2  A    between atoms: C_2  and  C_3
REMARK    3  A    between atoms: C_2  and  N_4
REMARK    4  A    between atoms: C_8  and  C_9
REMARK    5  A    between atoms: C_11  and  C_12
REMARK    6  A    between atoms: C_15  and  C_16
REMARK    7  A    between atoms: C_25  and  C_26
REMARK    8  A    between atoms: C_26  and  O_27
REMARK                            x       y       z     vdW  Elec       q    Type
REMARK                         _______ _______ _______ _____ _____    ______ ____
ROOT
ATOM      1  N   UNL     1      -1.054  13.840  21.787  0.00  0.00    +0.000 N 
ATOM      2  C   UNL     1      -0.932  12.562  22.266  0.00  0.00    +0.000 C 
ATOM      3  O   UNL     1      -1.101  12.247  23.437  0.00  0.00    +0.000 OA
ATOM      4  N   UNL     1      -0.651  11.653  21.286  0.00  0.00    +0.000 N 
ATOM      5  C   UNL     1      -0.500  10.200  21.434  0.00  0.00    +0.000 C 
ATOM      6  C   UNL     1      -0.065  10.239  19.935  0.00  0.00    +0.000 C 
ATOM      7  C   UNL     1       0.308  11.731  20.172  0.00  0.00    +0.000 C 
ATOM      8  H   UNL     1      -1.404  13.862  20.833  0.00  0.00    +0.000 HD
ENDROOT
BRANCH   6   9
ATOM      9  C   UNL     1       1.022   9.232  19.359  0.00  0.00    +0.000 A 
ATOM     10  C   UNL     1       1.570   9.411  18.074  0.00  0.00    +0.000 A 
ATOM     11  C   UNL     1       2.472   8.497  17.509  0.00  0.00    +0.000 A 
ATOM     12  C   UNL     1       2.884   7.352  18.205  0.00  0.00    +0.000 A 
ATOM     13  C   UNL     1       2.384   7.196  19.505  0.00  0.00    +0.000 A 
ATOM     14  C   UNL     1       1.485   8.111  20.065  0.00  0.00    +0.000 A 
BRANCH  12  15
ATOM     15  C   UNL     1       3.792   6.349  17.606  0.00  0.00    +0.000 A 
ATOM     16  C   UNL     1       3.574   4.967  17.763  0.00  0.00    +0.000 A 
ATOM     17  C   UNL     1       4.427   4.028  17.181  0.00  0.00    +0.000 A 
ATOM     18  C   UNL     1       5.508   4.457  16.427  0.00  0.00    +0.000 A 
ATOM     19  F   UNL     1       6.319   3.556  15.856  0.00  0.00    +0.000 F 
ATOM     20  C   UNL     1       5.761   5.810  16.254  0.00  0.00    +0.000 A 
ATOM     21  C   UNL     1       4.915   6.747  16.849  0.00  0.00    +0.000 A 
ENDBRANCH  12  15
ENDBRANCH   6   9
BRANCH   1  23
ATOM     22  C   UNL     1      -0.255  15.847  22.901  0.00  0.00    +0.000 C 
ATOM     23  C   UNL     1      -1.457  14.944  22.644  0.00  0.00    +0.000 C 
ATOM     24  C   UNL     1      -2.601  15.740  22.018  0.00  0.00    +0.000 C 
ENDBRANCH   1  23
BRANCH   5  25
ATOM     25  C   UNL     1       0.480   9.790  22.426  0.00  0.00    +0.000 C 
ATOM     26  N   UNL     1       1.228   9.472  23.255  0.00  0.00    +0.000 NA
ENDBRANCH   5  25
BRANCH   7  27
ATOM     27  C   UNL     1      -0.035  12.732  19.078  0.00  0.00    +0.000 C 
BRANCH  27  28
ATOM     28  O   UNL     1       0.665  13.962  19.253  0.00  0.00    +0.000 OA
ATOM     29  H   UNL     1       1.616  13.759  19.281  0.00  0.00    +0.000 HD
ENDBRANCH  27  28
ENDBRANCH   7  27
TORSDOF 6
ENDMDL
MODEL 7
REMARK VINA RESULT:      -7.0      1.524      1.974
REMARK  Name = 
REMARK  8 active torsions:
REMARK  status: ('A' for Active; 'I' for Inactive)
REMARK    1  A    between atoms: C_1  and  C_2
REMARK    2  A    between atoms: C_2  and  C_3
REMARK    3  A    between atoms: C_2  and  N_4
REMARK    4  A    between atoms: C_8  and  C_9
REMARK    5  A    between atoms: C_11  and  C_12
REMARK    6  A    between atoms: C_15  and  C_16
REMARK    7  A    between atoms: C_25  and  C_26
REMARK    8  A    between atoms: C_26  and  O_27
REMARK                            x       y       z     vdW  Elec       q    Type
REMARK                         _______ _______ _______ _____ _____    ______ ____
ROOT
ATOM      1  N   UNL     1      -2.481  12.624  21.575  0.00  0.00    +0.000 N 
ATOM      2  C   UNL     1      -2.013  12.321  20.324  0.00  0.00    +0.000 C 
ATOM      3  O   UNL     1      -2.514  12.729  19.285  0.00  0.00    +0.000 OA
ATOM      4  N   UNL     1      -0.886  11.550  20.352  0.00  0.00    +0.000 N 
ATOM      5  C   UNL     1      -0.097  11.081  19.205  0.00  0.00    +0.000 C 
ATOM      6  C   UNL     1       0.697  10.263  20.272  0.00  0.00    +0.000 C 
ATOM      7  C   UNL     1      -0.570  10.367  21.169  0.00  0.00    +0.000 C 
ATOM      8  H   UNL     1      -1.735  12.681  22.263  0.00  0.00    +0.000 HD
ENDROOT
BRANCH   6   9
ATOM      9  C   UNL     1       1.314   8.837  19.934  0.00  0.00    +0.000 A 
ATOM     10  C   UNL     1       1.866   8.566  18.667  0.00  0.00    +0.000 A 
ATOM     11  C   UNL     1       2.346   7.296  18.314  0.00  0.00    +0.000 A 
ATOM     12  C   UNL     1       2.309   6.225  19.217  0.00  0.00    +0.000 A 
ATOM     13  C   UNL     1       1.810   6.501  20.497  0.00  0.00    +0.000 A 
ATOM     14  C   UNL     1       1.332   7.770  20.844  0.00  0.00    +0.000 A 
BRANCH  12  15
ATOM     15  C   UNL     1       2.761   4.865  18.846  0.00  0.00    +0.000 A 
ATOM     16  C   UNL     1       3.762   4.194  19.574  0.00  0.00    +0.000 A 
ATOM     17  C   UNL     1       4.171   2.906  19.226  0.00  0.00    +0.000 A 
ATOM     18  C   UNL     1       3.579   2.265  18.149  0.00  0.00    +0.000 A 
ATOM     19  F   UNL     1       3.961   1.023  17.824  0.00  0.00    +0.000 F 
ATOM     20  C   UNL     1       2.594   2.894  17.403  0.00  0.00    +0.000 A 
ATOM     21  C   UNL     1       2.197   4.188  17.744  0.00  0.00    +0.000 A 
ENDBRANCH  12  15
ENDBRANCH   6   9
BRANCH   1  23
ATOM     22  C   UNL     1      -3.275  14.888  21.186  0.00  0.00    +0.000 C 
ATOM     23  C   UNL     1      -3.608  13.522  21.776  0.00  0.00    +0.000 C 
ATOM     24  C   UNL     1      -4.881  12.961  21.145  0.00  0.00    +0.000 C 
ENDBRANCH   1  23
BRANCH   5  25
ATOM     25  C   UNL     1      -0.858  10.353  18.204  0.00  0.00    +0.000 C 
ATOM     26  N   UNL     1      -1.463   9.813  17.373  0.00  0.00    +0.000 NA
ENDBRANCH   5  25
BRANCH   7  27
ATOM     27  C   UNL     1      -0.369  10.628  22.655  0.00  0.00    +0.000 C 
BRANCH  27  28
ATOM     28  O   UNL     1      -0.675   9.475  23.437  0.00  0.00    +0.000 OA
ATOM     29  H   UNL     1      -0.756   8.720  22.829  0.00  0.00    +0.000 HD
ENDBRANCH  27  28
ENDBRANCH   7  27
TORSDOF 6
ENDMDL
MODEL 8
REMARK VINA RESULT:      -6.9      2.582      3.494
REMARK  Name = 
REMARK  8 active torsions:
REMARK  status: ('A' for Active; 'I' for Inactive)
REMARK    1  A    between atoms: C_1  and  C_2
REMARK    2  A    between atoms: C_2  and  C_3
REMARK    3  A    between atoms: C_2  and  N_4
REMARK    4  A    between atoms: C_8  and  C_9
REMARK    5  A    between atoms: C_11  and  C_12
REMARK    6  A    between atoms: C_15  and  C_16
REMARK    7  A    between atoms: C_25  and  C_26
REMARK    8  A    between atoms: C_26  and  O_27
REMARK                            x       y       z     vdW  Elec       q    Type
REMARK                         _______ _______ _______ _____ _____    ______ ____
ROOT
ATOM      1  N   UNL     1      -1.404  15.500  19.745  0.00  0.00    +0.000 N 
ATOM      2  C   UNL     1      -0.426  14.943  20.525  0.00  0.00    +0.000 C 
ATOM      3  O   UNL     1       0.297  15.578  21.281  0.00  0.00    +0.000 OA
ATOM      4  N   UNL     1      -0.369  13.583  20.413  0.00  0.00    +0.000 N 
ATOM      5  C   UNL     1       0.521  12.664  21.134  0.00  0.00    +0.000 C 
ATOM      6  C   UNL     1      -0.084  11.572  20.196  0.00  0.00    +0.000 C 
ATOM      7  C   UNL     1      -0.428  12.730  19.215  0.00  0.00    +0.000 C 
ATOM      8  H   UNL     1      -2.197  14.878  19.617  0.00  0.00    +0.000 HD
ENDROOT
BRANCH   6   9
ATOM      9  C   UNL     1       0.781  10.337  19.694  0.00  0.00    +0.000 A 
ATOM     10  C   UNL     1       1.318  10.307  18.392  0.00  0.00    +0.000 A 
ATOM     11  C   UNL     1       2.018   9.198  17.894  0.00  0.00    +0.000 A 
ATOM     12  C   UNL     1       2.229   8.056  18.678  0.00  0.00    +0.000 A 
ATOM     13  C   UNL     1       1.744   8.100  19.992  0.00  0.00    +0.000 A 
ATOM     14  C   UNL     1       1.046   9.209  20.484  0.00  0.00    +0.000 A 
BRANCH  12  15
ATOM     15  C   UNL     1       2.919   6.856  18.154  0.00  0.00    +0.000 A 
ATOM     16  C   UNL     1       2.387   5.563  18.326  0.00  0.00    +0.000 A 
ATOM     17  C   UNL     1       3.037   4.439  17.815  0.00  0.00    +0.000 A 
ATOM     18  C   UNL     1       4.224   4.590  17.116  0.00  0.00    +0.000 A 
ATOM     19  F   UNL     1       4.840   3.512  16.613  0.00  0.00    +0.000 F 
ATOM     20  C   UNL     1       4.783   5.846  16.930  0.00  0.00    +0.000 A 
ATOM     21  C   UNL     1       4.140   6.968  17.455  0.00  0.00    +0.000 A 
ENDBRANCH  12  15
ENDBRANCH   6   9
BRANCH   1  23
ATOM     22  C   UNL     1      -1.360  17.558  18.452  0.00  0.00    +0.000 C 
ATOM     23  C   UNL     1      -1.707  16.922  19.794  0.00  0.00    +0.000 C 
ATOM     24  C   UNL     1      -3.175  17.164  20.139  0.00  0.00    +0.000 C 
ENDBRANCH   1  23
BRANCH   5  25
ATOM     25  C   UNL     1       1.937  12.971  21.011  0.00  0.00    +0.000 C 
ATOM     26  N   UNL     1       3.060  13.255  20.947  0.00  0.00    +0.000 NA
ENDBRANCH   5  25
BRANCH   7  27
ATOM     27  C   UNL     1      -1.773  12.683  18.505  0.00  0.00    +0.000 C 
BRANCH  27  28
ATOM     28  O   UNL     1      -1.627  12.369  17.121  0.00  0.00    +0.000 OA
ATOM     29  H   UNL     1      -1.277  13.160  16.675  0.00  0.00    +0.000 HD
ENDBRANCH  27  28
ENDBRANCH   7  27
TORSDOF 6
ENDMDL
MODEL 9
REMARK VINA RESULT:      -6.8      2.139      3.344
REMARK  Name = 
REMARK  8 active torsions:
REMARK  status: ('A' for Active; 'I' for Inactive)
REMARK    1  A    between atoms: C_1  and  C_2
REMARK    2  A    between atoms: C_2  and  C_3
REMARK    3  A    between atoms: C_2  and  N_4
REMARK    4  A    between atoms: C_8  and  C_9
REMARK    5  A    between atoms: C_11  and  C_12
REMARK    6  A    between atoms: C_15  and  C_16
REMARK    7  A    between atoms: C_25  and  C_26
REMARK    8  A    between atoms: C_26  and  O_27
REMARK                            x       y       z     vdW  Elec       q    Type
REMARK                         _______ _______ _______ _____ _____    ______ ____
ROOT
ATOM      1  N   UNL     1      -1.129  13.424  21.505  0.00  0.00    +0.000 N 
ATOM      2  C   UNL     1      -0.856  12.200  22.057  0.00  0.00    +0.000 C 
ATOM      3  O   UNL     1      -0.903  11.960  23.256  0.00  0.00    +0.000 OA
ATOM      4  N   UNL     1      -0.573  11.247  21.120  0.00  0.00    +0.000 N 
ATOM      5  C   UNL     1      -0.282   9.826  21.353  0.00  0.00    +0.000 C 
ATOM      6  C   UNL     1       0.029   9.790  19.823  0.00  0.00    +0.000 C 
ATOM      7  C   UNL     1       0.284  11.321  19.926  0.00  0.00    +0.000 C 
ATOM      8  H   UNL     1      -1.553  13.346  20.585  0.00  0.00    +0.000 HD
ENDROOT
BRANCH   6   9
ATOM      9  C   UNL     1       1.153   8.837  19.226  0.00  0.00    +0.000 A 
ATOM     10  C   UNL     1       1.590   7.700  19.931  0.00  0.00    +0.000 A 
ATOM     11  C   UNL     1       2.634   6.884  19.467  0.00  0.00    +0.000 A 
ATOM     12  C   UNL     1       3.294   7.159  18.262  0.00  0.00    +0.000 A 
ATOM     13  C   UNL     1       2.829   8.259  17.529  0.00  0.00    +0.000 A 
ATOM     14  C   UNL     1       1.787   9.069  17.997  0.00  0.00    +0.000 A 
BRANCH  12  15
ATOM     15  C   UNL     1       4.432   6.343  17.782  0.00  0.00    +0.000 A 
ATOM     16  C   UNL     1       4.902   6.436  16.458  0.00  0.00    +0.000 A 
ATOM     17  C   UNL     1       5.986   5.673  16.020  0.00  0.00    +0.000 A 
ATOM     18  C   UNL     1       6.622   4.812  16.901  0.00  0.00    +0.000 A 
ATOM     19  F   UNL     1       7.671   4.092  16.484  0.00  0.00    +0.000 F 
ATOM     20  C   UNL     1       6.185   4.689  18.212  0.00  0.00    +0.000 A 
ATOM     21  C   UNL     1       5.092   5.441  18.644  0.00  0.00    +0.000 A 
ENDBRANCH  12  15
ENDBRANCH   6   9
BRANCH   1  23
ATOM     22  C   UNL     1      -0.822  15.808  21.865  0.00  0.00    +0.000 C 
ATOM     23  C   UNL     1      -1.560  14.552  22.316  0.00  0.00    +0.000 C 
ATOM     24  C   UNL     1      -3.071  14.755  22.222  0.00  0.00    +0.000 C 
ENDBRANCH   1  23
BRANCH   5  25
ATOM     25  C   UNL     1       0.806   9.576  22.283  0.00  0.00    +0.000 C 
ATOM     26  N   UNL     1       1.684   9.427  23.028  0.00  0.00    +0.000 NA
ENDBRANCH   5  25
BRANCH   7  27
ATOM     27  C   UNL     1      -0.232  12.205  18.800  0.00  0.00    +0.000 C 
BRANCH  27  28
ATOM     28  O   UNL     1       0.345  13.509  18.848  0.00  0.00    +0.000 OA
ATOM     29  H   UNL     1      -0.372  14.154  18.714  0.00  0.00    +0.000 HD
ENDBRANCH  27  28
ENDBRANCH   7  27
TORSDOF 6
ENDMDL
