MODEL 1
REMARK VINA RESULT:      -7.8      0.000      0.000
REMARK  Name = 
REMARK  10 active torsions:
REMARK  status: ('A' for Active; 'I' for Inactive)
REMARK    1  A    between atoms: C_1  and  C_2
REMARK    2  A    between atoms: C_2  and  C_3
REMARK    3  A    between atoms: C_3  and  O_4
REMARK    4  A    between atoms: C_3  and  C_11
REMARK    5  A    between atoms: O_4  and  C_5
REMARK    6  A    between atoms: N_13  and  C_14
REMARK    7  A    between atoms: C_16  and  C_17
REMARK    8  A    between atoms: C_22  and  O_23
REMARK    9  A    between atoms: O_23  and  C_24
REMARK   10  A    between atoms: N_26  and  C_27
REMARK                            x       y       z     vdW  Elec       q    Type
REMARK                         _______ _______ _______ _____ _____    ______ ____
ROOT
ATOM      1  C   UNL     1       3.068   6.448  18.307  0.00  0.00    +0.000 A 
ATOM      2  C   UNL     1       3.727   6.631  17.117  0.00  0.00    +0.000 A 
ATOM      3  C   UNL     1       4.519   5.450  16.925  0.00  0.00    +0.000 A 
ATOM      4  N   UNL     1       4.320   4.593  17.943  0.00  0.00    +0.000 NA
ATOM      5  N   UNL     1       3.290   5.123  18.647  0.00  0.00    +0.000 N 
ENDROOT
BRANCH   3   6
ATOM      6  C   UNL     1       5.525   5.224  15.863  0.00  0.00    +0.000 A 
ATOM      7  C   UNL     1       5.184   4.324  14.832  0.00  0.00    +0.000 A 
ATOM      8  C   UNL     1       6.065   4.036  13.786  0.00  0.00    +0.000 A 
ATOM      9  C   UNL     1       7.311   4.642  13.753  0.00  0.00    +0.000 A 
ATOM     10  C   UNL     1       7.672   5.542  14.756  0.00  0.00    +0.000 A 
ATOM     11  C   UNL     1       6.788   5.853  15.810  0.00  0.00    +0.000 A 
BRANCH  11  12
ATOM     12  O   UNL     1       7.156   6.699  16.826  0.00  0.00    +0.000 OA
ATOM     13  C   UNL     1       7.620   6.082  18.031  0.00  0.00    +0.000 C 
ENDBRANCH  11  12
ENDBRANCH   3   6
BRANCH   5  14
ATOM     14  C   UNL     1       2.519   4.346  19.549  0.00  0.00    +0.000 A 
ATOM     15  C   UNL     1       2.896   4.246  20.890  0.00  0.00    +0.000 A 
ATOM     16  C   UNL     1       2.141   3.457  21.767  0.00  0.00    +0.000 A 
ATOM     17  C   UNL     1       1.034   2.747  21.297  0.00  0.00    +0.000 A 
ATOM     18  C   UNL     1       0.678   2.815  19.953  0.00  0.00    +0.000 A 
ATOM     19  C   UNL     1       1.413   3.614  19.078  0.00  0.00    +0.000 A 
ENDBRANCH   5  14
BRANCH   1  22
ATOM     20  C   UNL     1       1.867   8.630  18.526  0.00  0.00    +0.000 C 
ATOM     21  O   UNL     1       2.039   8.886  17.344  0.00  0.00    +0.000 OA
ATOM     22  N   UNL     1       2.368   7.390  19.064  0.00  0.00    +0.000 N 
ATOM     23  H   UNL     1       2.099   7.148  20.015  0.00  0.00    +0.000 HD
BRANCH  20  24
ATOM     24  C   UNL     1       0.995   9.461  19.484  0.00  0.00    +0.000 C 
BRANCH  24  26
ATOM     25  C   UNL     1      -0.168   8.704  21.637  0.00  0.00    +0.000 C 
ATOM     26  C   UNL     1       1.157   8.940  20.924  0.00  0.00    +0.000 C 
ENDBRANCH  24  26
BRANCH  24  27
ATOM     27  O   UNL     1       1.474  10.816  19.389  0.00  0.00    +0.000 OA
BRANCH  27  28
ATOM     28  C   UNL     1       0.591  11.811  19.726  0.00  0.00    +0.000 A 
ATOM     29  C   UNL     1       0.924  12.979  20.414  0.00  0.00    +0.000 A 
ATOM     30  C   UNL     1      -0.036  13.972  20.629  0.00  0.00    +0.000 A 
ATOM     31  C   UNL     1      -1.340  13.797  20.173  0.00  0.00    +0.000 A 
ATOM     32  C   UNL     1      -1.683  12.628  19.499  0.00  0.00    +0.000 A 
ATOM     33  C   UNL     1      -0.718  11.643  19.267  0.00  0.00    +0.000 A 
ENDBRANCH  27  28
ENDBRANCH  24  27
ENDBRANCH  20  24
ENDBRANCH   1  22
TORSDOF 8
ENDMDL
MODEL 2
REMARK VINA RESULT:      -7.8      1.206      1.669
REMARK  Name = 
REMARK  10 active torsions:
REMARK  status: ('A' for Active; 'I' for Inactive)
REMARK    1  A    between atoms: C_1  and  C_2
REMARK    2  A    between atoms: C_2  and  C_3
REMARK    3  A    between atoms: C_3  and  O_4
REMARK    4  A    between atoms: C_3  and  C_11
REMARK    5  A    between atoms: O_4  and  C_5
REMARK    6  A    between atoms: N_13  and  C_14
REMARK    7  A    between atoms: C_16  and  C_17
REMARK    8  A    between atoms: C_22  and  O_23
REMARK    9  A    between atoms: O_23  and  C_24
REMARK   10  A    between atoms: N_26  and  C_27
REMARK                            x       y       z     vdW  Elec       q    Type
REMARK                         _______ _______ _______ _____ _____    ______ ____
ROOT
ATOM      1  C   UNL     1       2.895   6.484  18.321  0.00  0.00    +0.000 A 
ATOM      2  C   UNL     1       3.572   6.661  17.139  0.00  0.00    +0.000 A 
ATOM      3  C   UNL     1       4.455   5.536  17.024  0.00  0.00    +0.000 A 
ATOM      4  N   UNL     1       4.292   4.715  18.077  0.00  0.00    +0.000 NA
ATOM      5  N   UNL     1       3.207   5.197  18.729  0.00  0.00    +0.000 N 
ENDROOT
BRANCH   3   6
ATOM      6  C   UNL     1       5.504   5.339  15.999  0.00  0.00    +0.000 A 
ATOM      7  C   UNL     1       5.231   4.420  14.964  0.00  0.00    +0.000 A 
ATOM      8  C   UNL     1       6.158   4.156  13.952  0.00  0.00    +0.000 A 
ATOM      9  C   UNL     1       7.382   4.805  13.956  0.00  0.00    +0.000 A 
ATOM     10  C   UNL     1       7.677   5.724  14.964  0.00  0.00    +0.000 A 
ATOM     11  C   UNL     1       6.746   6.011  15.984  0.00  0.00    +0.000 A 
BRANCH  11  12
ATOM     12  O   UNL     1       7.049   6.877  17.006  0.00  0.00    +0.000 OA
ATOM     13  C   UNL     1       7.676   6.305  18.158  0.00  0.00    +0.000 C 
ENDBRANCH  11  12
ENDBRANCH   3   6
BRANCH   5  14
ATOM     14  C   UNL     1       2.470   4.406  19.649  0.00  0.00    +0.000 A 
ATOM     15  C   UNL     1       2.936   4.231  20.953  0.00  0.00    +0.000 A 
ATOM     16  C   UNL     1       2.214   3.428  21.847  0.00  0.00    +0.000 A 
ATOM     17  C   UNL     1       1.050   2.781  21.426  0.00  0.00    +0.000 A 
ATOM     18  C   UNL     1       0.605   2.924  20.115  0.00  0.00    +0.000 A 
ATOM     19  C   UNL     1       1.308   3.736  19.226  0.00  0.00    +0.000 A 
ENDBRANCH   5  14
BRANCH   1  22
ATOM     20  C   UNL     1       1.731   8.691  18.482  0.00  0.00    +0.000 C 
ATOM     21  O   UNL     1       2.101   9.010  17.363  0.00  0.00    +0.000 OA
ATOM     22  N   UNL     1       2.106   7.405  19.013  0.00  0.00    +0.000 N 
ATOM     23  H   UNL     1       1.678   7.116  19.891  0.00  0.00    +0.000 HD
BRANCH  20  24
ATOM     24  C   UNL     1       0.737   9.494  19.338  0.00  0.00    +0.000 C 
BRANCH  24  26
ATOM     25  C   UNL     1       0.543  10.065  21.828  0.00  0.00    +0.000 C 
ATOM     26  C   UNL     1       1.442  10.028  20.598  0.00  0.00    +0.000 C 
ENDBRANCH  24  26
BRANCH  24  27
ATOM     27  O   UNL     1       0.292  10.590  18.515  0.00  0.00    +0.000 OA
BRANCH  27  28
ATOM     28  C   UNL     1      -1.058  10.694  18.298  0.00  0.00    +0.000 A 
ATOM     29  C   UNL     1      -1.906  11.600  18.939  0.00  0.00    +0.000 A 
ATOM     30  C   UNL     1      -3.254  11.685  18.578  0.00  0.00    +0.000 A 
ATOM     31  C   UNL     1      -3.768  10.853  17.587  0.00  0.00    +0.000 A 
ATOM     32  C   UNL     1      -2.932   9.937  16.953  0.00  0.00    +0.000 A 
ATOM     33  C   UNL     1      -1.580   9.866  17.301  0.00  0.00    +0.000 A 
ENDBRANCH  27  28
ENDBRANCH  24  27
ENDBRANCH  20  24
ENDBRANCH   1  22
TORSDOF 8
ENDMDL
MODEL 3
REMARK VINA RESULT:      -7.8      0.965      1.509
REMARK  Name = 
REMARK  10 active torsions:
REMARK  status: ('A' for Active; 'I' for Inactive)
REMARK    1  A    between atoms: C_1  and  C_2
REMARK    2  A    between atoms: C_2  and  C_3
REMARK    3  A    between atoms: C_3  and  O_4
REMARK    4  A    between atoms: C_3  and  C_11
REMARK    5  A    between atoms: O_4  and  C_5
REMARK    6  A    between atoms: N_13  and  C_14
REMARK    7  A    between atoms: C_16  and  C_17
REMARK    8  A    between atoms: C_22  and  O_23
REMARK    9  A    between atoms: O_23  and  C_24
REMARK   10  A    between atoms: N_26  and  C_27
REMARK                            x       y       z     vdW  Elec       q    Type
REMARK                         _______ _______ _______ _____ _____    ______ ____
ROOT
ATOM      1  C   UNL     1       3.085   6.269  18.448  0.00  0.00    +0.000 A 
ATOM      2  C   UNL     1       3.712   6.473  17.243  0.00  0.00    +0.000 A 
ATOM      3  C   UNL     1       4.561   5.333  17.048  0.00  0.00    +0.000 A 
ATOM      4  N   UNL     1       4.426   4.478  18.079  0.00  0.00    +0.000 NA
ATOM      5  N   UNL     1       3.383   4.961  18.796  0.00  0.00    +0.000 N 
ENDROOT
BRANCH   3   6
ATOM      6  C   UNL     1       5.557   5.148  15.970  0.00  0.00    +0.000 A 
ATOM      7  C   UNL     1       5.245   4.221  14.954  0.00  0.00    +0.000 A 
ATOM      8  C   UNL     1       6.121   3.969  13.895  0.00  0.00    +0.000 A 
ATOM      9  C   UNL     1       7.333   4.637  13.832  0.00  0.00    +0.000 A 
ATOM     10  C   UNL     1       7.665   5.564  14.820  0.00  0.00    +0.000 A 
ATOM     11  C   UNL     1       6.785   5.840  15.887  0.00  0.00    +0.000 A 
BRANCH  11  12
ATOM     12  O   UNL     1       7.128   6.715  16.889  0.00  0.00    +0.000 OA
ATOM     13  C   UNL     1       7.638   6.134  18.093  0.00  0.00    +0.000 C 
ENDBRANCH  11  12
ENDBRANCH   3   6
BRANCH   5  14
ATOM     14  C   UNL     1       2.670   4.156  19.721  0.00  0.00    +0.000 A 
ATOM     15  C   UNL     1       3.353   3.470  20.727  0.00  0.00    +0.000 A 
ATOM     16  C   UNL     1       2.642   2.657  21.621  0.00  0.00    +0.000 A 
ATOM     17  C   UNL     1       1.260   2.508  21.486  0.00  0.00    +0.000 A 
ATOM     18  C   UNL     1       0.582   3.161  20.460  0.00  0.00    +0.000 A 
ATOM     19  C   UNL     1       1.280   3.986  19.580  0.00  0.00    +0.000 A 
ENDBRANCH   5  14
BRANCH   1  22
ATOM     20  C   UNL     1       1.853   8.432  18.689  0.00  0.00    +0.000 C 
ATOM     21  O   UNL     1       2.060   8.723  17.521  0.00  0.00    +0.000 OA
ATOM     22  N   UNL     1       2.350   7.182  19.208  0.00  0.00    +0.000 N 
ATOM     23  H   UNL     1       2.053   6.910  20.143  0.00  0.00    +0.000 HD
BRANCH  20  24
ATOM     24  C   UNL     1       0.941   9.225  19.641  0.00  0.00    +0.000 C 
BRANCH  24  26
ATOM     25  C   UNL     1       0.713   9.330  22.190  0.00  0.00    +0.000 C 
ATOM     26  C   UNL     1       1.649   9.431  20.993  0.00  0.00    +0.000 C 
ENDBRANCH  24  26
BRANCH  24  27
ATOM     27  O   UNL     1       0.705  10.496  19.005  0.00  0.00    +0.000 OA
BRANCH  27  28
ATOM     28  C   UNL     1      -0.596  10.801  18.693  0.00  0.00    +0.000 A 
ATOM     29  C   UNL     1      -1.345  10.184  17.691  0.00  0.00    +0.000 A 
ATOM     30  C   UNL     1      -2.694  10.508  17.514  0.00  0.00    +0.000 A 
ATOM     31  C   UNL     1      -3.298  11.464  18.327  0.00  0.00    +0.000 A 
ATOM     32  C   UNL     1      -2.552  12.094  19.320  0.00  0.00    +0.000 A 
ATOM     33  C   UNL     1      -1.208  11.756  19.509  0.00  0.00    +0.000 A 
ENDBRANCH  27  28
ENDBRANCH  24  27
ENDBRANCH  20  24
ENDBRANCH   1  22
TORSDOF 8
ENDMDL
MODEL 4
REMARK VINA RESULT:      -7.7      0.682      1.095
REMARK  Name = 
REMARK  10 active torsions:
REMARK  status: ('A' for Active; 'I' for Inactive)
REMARK    1  A    between atoms: C_1  and  C_2
REMARK    2  A    between atoms: C_2  and  C_3
REMARK    3  A    between atoms: C_3  and  O_4
REMARK    4  A    between atoms: C_3  and  C_11
REMARK    5  A    between atoms: O_4  and  C_5
REMARK    6  A    between atoms: N_13  and  C_14
REMARK    7  A    between atoms: C_16  and  C_17
REMARK    8  A    between atoms: C_22  and  O_23
REMARK    9  A    between atoms: O_23  and  C_24
REMARK   10  A    between atoms: N_26  and  C_27
REMARK                            x       y       z     vdW  Elec       q    Type
REMARK                         _______ _______ _______ _____ _____    ______ ____
ROOT
ATOM      1  C   UNL     1       3.168   6.342  18.341  0.00  0.00    +0.000 A 
ATOM      2  C   UNL     1       3.816   6.560  17.150  0.00  0.00    +0.000 A 
ATOM      3  C   UNL     1       4.576   5.369  16.897  0.00  0.00    +0.000 A 
ATOM      4  N   UNL     1       4.370   4.475  17.881  0.00  0.00    +0.000 NA
ATOM      5  N   UNL     1       3.363   4.999  18.622  0.00  0.00    +0.000 N 
ENDROOT
BRANCH   3   6
ATOM      6  C   UNL     1       5.562   5.165  15.812  0.00  0.00    +0.000 A 
ATOM      7  C   UNL     1       5.212   4.266  14.783  0.00  0.00    +0.000 A 
ATOM      8  C   UNL     1       6.074   3.998  13.717  0.00  0.00    +0.000 A 
ATOM      9  C   UNL     1       7.310   4.622  13.660  0.00  0.00    +0.000 A 
ATOM     10  C   UNL     1       7.680   5.520  14.662  0.00  0.00    +0.000 A 
ATOM     11  C   UNL     1       6.814   5.812  15.736  0.00  0.00    +0.000 A 
BRANCH  11  12
ATOM     12  O   UNL     1       7.192   6.657  16.751  0.00  0.00    +0.000 OA
ATOM     13  C   UNL     1       7.618   6.038  17.968  0.00  0.00    +0.000 C 
ENDBRANCH  11  12
ENDBRANCH   3   6
BRANCH   5  14
ATOM     14  C   UNL     1       2.585   4.203  19.502  0.00  0.00    +0.000 A 
ATOM     15  C   UNL     1       1.441   3.553  19.034  0.00  0.00    +0.000 A 
ATOM     16  C   UNL     1       0.666   2.790  19.917  0.00  0.00    +0.000 A 
ATOM     17  C   UNL     1       1.017   2.705  21.267  0.00  0.00    +0.000 A 
ATOM     18  C   UNL     1       2.136   3.384  21.743  0.00  0.00    +0.000 A 
ATOM     19  C   UNL     1       2.923   4.129  20.866  0.00  0.00    +0.000 A 
ENDBRANCH   5  14
BRANCH   1  22
ATOM     20  C   UNL     1       1.879   8.464  18.637  0.00  0.00    +0.000 C 
ATOM     21  O   UNL     1       1.911   8.694  17.438  0.00  0.00    +0.000 OA
ATOM     22  N   UNL     1       2.501   7.268  19.146  0.00  0.00    +0.000 N 
ATOM     23  H   UNL     1       2.348   7.039  20.127  0.00  0.00    +0.000 HD
BRANCH  20  24
ATOM     24  C   UNL     1       1.069   9.275  19.663  0.00  0.00    +0.000 C 
BRANCH  24  26
ATOM     25  C   UNL     1       0.816   9.421  22.208  0.00  0.00    +0.000 C 
ATOM     26  C   UNL     1       1.005   8.513  20.999  0.00  0.00    +0.000 C 
ENDBRANCH  24  26
BRANCH  24  27
ATOM     27  O   UNL     1       1.772  10.521  19.835  0.00  0.00    +0.000 OA
BRANCH  27  28
ATOM     28  C   UNL     1       1.118  11.661  19.442  0.00  0.00    +0.000 A 
ATOM     29  C   UNL     1       1.716  12.911  19.276  0.00  0.00    +0.000 A 
ATOM     30  C   UNL     1       0.976  13.991  18.784  0.00  0.00    +0.000 A 
ATOM     31  C   UNL     1      -0.371  13.832  18.470  0.00  0.00    +0.000 A 
ATOM     32  C   UNL     1      -0.978  12.591  18.646  0.00  0.00    +0.000 A 
ATOM     33  C   UNL     1      -0.233  11.507  19.120  0.00  0.00    +0.000 A 
ENDBRANCH  27  28
ENDBRANCH  24  27
ENDBRANCH  20  24
ENDBRANCH   1  22
TORSDOF 8
ENDMDL
MODEL 5
REMARK VINA RESULT:      -7.7      0.686      1.056
REMARK  Name = 
REMARK  10 active torsions:
REMARK  status: ('A' for Active; 'I' for Inactive)
REMARK    1  A    between atoms: C_1  and  C_2
REMARK    2  A    between atoms: C_2  and  C_3
REMARK    3  A    between atoms: C_3  and  O_4
REMARK    4  A    between atoms: C_3  and  C_11
REMARK    5  A    between atoms: O_4  and  C_5
REMARK    6  A    between atoms: N_13  and  C_14
REMARK    7  A    between atoms: C_16  and  C_17
REMARK    8  A    between atoms: C_22  and  O_23
REMARK    9  A    between atoms: O_23  and  C_24
REMARK   10  A    between atoms: N_26  and  C_27
REMARK                            x       y       z     vdW  Elec       q    Type
REMARK                         _______ _______ _______ _____ _____    ______ ____
ROOT
ATOM      1  C   UNL     1       3.116   6.417  18.347  0.00  0.00    +0.000 A 
ATOM      2  C   UNL     1       3.764   6.613  17.152  0.00  0.00    +0.000 A 
ATOM      3  C   UNL     1       4.525   5.418  16.922  0.00  0.00    +0.000 A 
ATOM      4  N   UNL     1       4.319   4.542  17.923  0.00  0.00    +0.000 NA
ATOM      5  N   UNL     1       3.312   5.079  18.653  0.00  0.00    +0.000 N 
ENDROOT
BRANCH   3   6
ATOM      6  C   UNL     1       5.512   5.193  15.842  0.00  0.00    +0.000 A 
ATOM      7  C   UNL     1       5.155   4.289  14.820  0.00  0.00    +0.000 A 
ATOM      8  C   UNL     1       6.018   4.002  13.759  0.00  0.00    +0.000 A 
ATOM      9  C   UNL     1       7.260   4.613  13.700  0.00  0.00    +0.000 A 
ATOM     10  C   UNL     1       7.636   5.517  14.693  0.00  0.00    +0.000 A 
ATOM     11  C   UNL     1       6.770   5.827  15.763  0.00  0.00    +0.000 A 
BRANCH  11  12
ATOM     12  O   UNL     1       7.154   6.678  16.770  0.00  0.00    +0.000 OA
ATOM     13  C   UNL     1       7.582   6.067  17.991  0.00  0.00    +0.000 C 
ENDBRANCH  11  12
ENDBRANCH   3   6
BRANCH   5  14
ATOM     14  C   UNL     1       2.533   4.301  19.547  0.00  0.00    +0.000 A 
ATOM     15  C   UNL     1       2.902   4.196  20.890  0.00  0.00    +0.000 A 
ATOM     16  C   UNL     1       2.141   3.405  21.760  0.00  0.00    +0.000 A 
ATOM     17  C   UNL     1       1.036   2.697  21.281  0.00  0.00    +0.000 A 
ATOM     18  C   UNL     1       0.689   2.769  19.934  0.00  0.00    +0.000 A 
ATOM     19  C   UNL     1       1.431   3.570  19.067  0.00  0.00    +0.000 A 
ENDBRANCH   5  14
BRANCH   1  22
ATOM     20  C   UNL     1       1.831   8.547  18.602  0.00  0.00    +0.000 C 
ATOM     21  O   UNL     1       1.869   8.758  17.400  0.00  0.00    +0.000 OA
ATOM     22  N   UNL     1       2.448   7.358  19.134  0.00  0.00    +0.000 N 
ATOM     23  H   UNL     1       2.290   7.146  20.117  0.00  0.00    +0.000 HD
BRANCH  20  24
ATOM     24  C   UNL     1       1.019   9.377  19.612  0.00  0.00    +0.000 C 
BRANCH  24  26
ATOM     25  C   UNL     1       1.019   9.586  22.165  0.00  0.00    +0.000 C 
ATOM     26  C   UNL     1       0.965   8.647  20.966  0.00  0.00    +0.000 C 
ENDBRANCH  24  26
BRANCH  24  27
ATOM     27  O   UNL     1       1.714  10.632  19.751  0.00  0.00    +0.000 OA
BRANCH  27  28
ATOM     28  C   UNL     1       1.047  11.758  19.341  0.00  0.00    +0.000 A 
ATOM     29  C   UNL     1      -0.340  11.875  19.235  0.00  0.00    +0.000 A 
ATOM     30  C   UNL     1      -0.923  13.099  18.893  0.00  0.00    +0.000 A 
ATOM     31  C   UNL     1      -0.123  14.210  18.637  0.00  0.00    +0.000 A 
ATOM     32  C   UNL     1       1.262  14.097  18.726  0.00  0.00    +0.000 A 
ATOM     33  C   UNL     1       1.844  12.878  19.088  0.00  0.00    +0.000 A 
ENDBRANCH  27  28
ENDBRANCH  24  27
ENDBRANCH  20  24
ENDBRANCH   1  22
TORSDOF 8
ENDMDL
MODEL 6
REMARK VINA RESULT:      -7.7      1.129      1.804
REMARK  Name = 
REMARK  10 active torsions:
REMARK  status: ('A' for Active; 'I' for Inactive)
REMARK    1  A    between atoms: C_1  and  C_2
REMARK    2  A    between atoms: C_2  and  C_3
REMARK    3  A    between atoms: C_3  and  O_4
REMARK    4  A    between atoms: C_3  and  C_11
REMARK    5  A    between atoms: O_4  and  C_5
REMARK    6  A    between atoms: N_13  and  C_14
REMARK    7  A    between atoms: C_16  and  C_17
REMARK    8  A    between atoms: C_22  and  O_23
REMARK    9  A    between atoms: O_23  and  C_24
REMARK   10  A    between atoms: N_26  and  C_27
REMARK                            x       y       z     vdW  Elec       q    Type
REMARK                         _______ _______ _______ _____ _____    ______ ____
ROOT
ATOM      1  C   UNL     1       3.046   6.468  18.035  0.00  0.00    +0.000 A 
ATOM      2  C   UNL     1       3.731   6.574  16.849  0.00  0.00    +0.000 A 
ATOM      3  C   UNL     1       4.556   5.401  16.771  0.00  0.00    +0.000 A 
ATOM      4  N   UNL     1       4.351   4.623  17.849  0.00  0.00    +0.000 NA
ATOM      5  N   UNL     1       3.291   5.180  18.484  0.00  0.00    +0.000 N 
ENDROOT
BRANCH   3   6
ATOM      6  C   UNL     1       5.594   5.118  15.755  0.00  0.00    +0.000 A 
ATOM      7  C   UNL     1       5.175   4.497  14.560  0.00  0.00    +0.000 A 
ATOM      8  C   UNL     1       6.077   4.181  13.541  0.00  0.00    +0.000 A 
ATOM      9  C   UNL     1       7.422   4.477  13.698  0.00  0.00    +0.000 A 
ATOM     10  C   UNL     1       7.863   5.097  14.867  0.00  0.00    +0.000 A 
ATOM     11  C   UNL     1       6.962   5.435  15.899  0.00  0.00    +0.000 A 
BRANCH  11  12
ATOM     12  O   UNL     1       7.397   6.001  17.072  0.00  0.00    +0.000 OA
ATOM     13  C   UNL     1       7.770   5.095  18.114  0.00  0.00    +0.000 C 
ENDBRANCH  11  12
ENDBRANCH   3   6
BRANCH   5  14
ATOM     14  C   UNL     1       2.514   4.458  19.426  0.00  0.00    +0.000 A 
ATOM     15  C   UNL     1       2.914   4.394  20.763  0.00  0.00    +0.000 A 
ATOM     16  C   UNL     1       2.154   3.658  21.681  0.00  0.00    +0.000 A 
ATOM     17  C   UNL     1       1.018   2.964  21.256  0.00  0.00    +0.000 A 
ATOM     18  C   UNL     1       0.639   2.996  19.916  0.00  0.00    +0.000 A 
ATOM     19  C   UNL     1       1.380   3.742  19.001  0.00  0.00    +0.000 A 
ENDBRANCH   5  14
BRANCH   1  22
ATOM     20  C   UNL     1       2.057   8.762  18.154  0.00  0.00    +0.000 C 
ATOM     21  O   UNL     1       2.497   9.049  17.052  0.00  0.00    +0.000 OA
ATOM     22  N   UNL     1       2.304   7.449  18.696  0.00  0.00    +0.000 N 
ATOM     23  H   UNL     1       1.819   7.196  19.555  0.00  0.00    +0.000 HD
BRANCH  20  24
ATOM     24  C   UNL     1       1.095   9.642  18.970  0.00  0.00    +0.000 C 
BRANCH  24  26
ATOM     25  C   UNL     1      -1.061  10.585  17.957  0.00  0.00    +0.000 C 
ATOM     26  C   UNL     1      -0.358   9.367  18.542  0.00  0.00    +0.000 C 
ENDBRANCH  24  26
BRANCH  24  27
ATOM     27  O   UNL     1       1.285   9.272  20.349  0.00  0.00    +0.000 OA
BRANCH  27  28
ATOM     28  C   UNL     1       0.555   9.964  21.283  0.00  0.00    +0.000 A 
ATOM     29  C   UNL     1       0.319  11.339  21.258  0.00  0.00    +0.000 A 
ATOM     30  C   UNL     1      -0.515  11.932  22.211  0.00  0.00    +0.000 A 
ATOM     31  C   UNL     1      -1.104  11.156  23.206  0.00  0.00    +0.000 A 
ATOM     32  C   UNL     1      -0.862   9.785  23.246  0.00  0.00    +0.000 A 
ATOM     33  C   UNL     1      -0.043   9.190  22.281  0.00  0.00    +0.000 A 
ENDBRANCH  27  28
ENDBRANCH  24  27
ENDBRANCH  20  24
ENDBRANCH   1  22
TORSDOF 8
ENDMDL
MODEL 7
REMARK VINA RESULT:      -7.7      0.254      1.227
REMARK  Name = 
REMARK  10 active torsions:
REMARK  status: ('A' for Active; 'I' for Inactive)
REMARK    1  A    between atoms: C_1  and  C_2
REMARK    2  A    between atoms: C_2  and  C_3
REMARK    3  A    between atoms: C_3  and  O_4
REMARK    4  A    between atoms: C_3  and  C_11
REMARK    5  A    between atoms: O_4  and  C_5
REMARK    6  A    between atoms: N_13  and  C_14
REMARK    7  A    between atoms: C_16  and  C_17
REMARK    8  A    between atoms: C_22  and  O_23
REMARK    9  A    between atoms: O_23  and  C_24
REMARK   10  A    between atoms: N_26  and  C_27
REMARK                            x       y       z     vdW  Elec       q    Type
REMARK                         _______ _______ _______ _____ _____    ______ ____
ROOT
ATOM      1  C   UNL     1       3.051   6.360  18.329  0.00  0.00    +0.000 A 
ATOM      2  C   UNL     1       3.701   6.545  17.133  0.00  0.00    +0.000 A 
ATOM      3  C   UNL     1       4.517   5.380  16.950  0.00  0.00    +0.000 A 
ATOM      4  N   UNL     1       4.342   4.529  17.977  0.00  0.00    +0.000 NA
ATOM      5  N   UNL     1       3.304   5.043  18.681  0.00  0.00    +0.000 N 
ENDROOT
BRANCH   3   6
ATOM      6  C   UNL     1       5.523   5.166  15.885  0.00  0.00    +0.000 A 
ATOM      7  C   UNL     1       5.108   4.459  14.738  0.00  0.00    +0.000 A 
ATOM      8  C   UNL     1       5.981   4.197  13.679  0.00  0.00    +0.000 A 
ATOM      9  C   UNL     1       7.294   4.635  13.749  0.00  0.00    +0.000 A 
ATOM     10  C   UNL     1       7.731   5.343  14.869  0.00  0.00    +0.000 A 
ATOM     11  C   UNL     1       6.856   5.626  15.939  0.00  0.00    +0.000 A 
BRANCH  11  12
ATOM     12  O   UNL     1       7.293   6.278  17.066  0.00  0.00    +0.000 OA
ATOM     13  C   UNL     1       7.721   5.452  18.153  0.00  0.00    +0.000 C 
ENDBRANCH  11  12
ENDBRANCH   3   6
BRANCH   5  14
ATOM     14  C   UNL     1       2.554   4.259  19.595  0.00  0.00    +0.000 A 
ATOM     15  C   UNL     1       1.381   3.625  19.177  0.00  0.00    +0.000 A 
ATOM     16  C   UNL     1       0.634   2.874  20.094  0.00  0.00    +0.000 A 
ATOM     17  C   UNL     1       1.042   2.785  21.427  0.00  0.00    +0.000 A 
ATOM     18  C   UNL     1       2.190   3.448  21.854  0.00  0.00    +0.000 A 
ATOM     19  C   UNL     1       2.949   4.181  20.943  0.00  0.00    +0.000 A 
ENDBRANCH   5  14
BRANCH   1  22
ATOM     20  C   UNL     1       1.872   8.554  18.551  0.00  0.00    +0.000 C 
ATOM     21  O   UNL     1       2.095   8.834  17.384  0.00  0.00    +0.000 OA
ATOM     22  N   UNL     1       2.334   7.294  19.079  0.00  0.00    +0.000 N 
ATOM     23  H   UNL     1       2.023   7.034  20.013  0.00  0.00    +0.000 HD
BRANCH  20  24
ATOM     24  C   UNL     1       0.973   9.374  19.493  0.00  0.00    +0.000 C 
BRANCH  24  26
ATOM     25  C   UNL     1      -0.146   8.770  21.717  0.00  0.00    +0.000 C 
ATOM     26  C   UNL     1       1.162   8.896  20.944  0.00  0.00    +0.000 C 
ENDBRANCH  24  26
BRANCH  24  27
ATOM     27  O   UNL     1       1.399  10.744  19.361  0.00  0.00    +0.000 OA
BRANCH  27  28
ATOM     28  C   UNL     1       0.497  11.712  19.725  0.00  0.00    +0.000 A 
ATOM     29  C   UNL     1      -0.834  11.764  19.307  0.00  0.00    +0.000 A 
ATOM     30  C   UNL     1      -1.695  12.744  19.810  0.00  0.00    +0.000 A 
ATOM     31  C   UNL     1      -1.228  13.690  20.719  0.00  0.00    +0.000 A 
ATOM     32  C   UNL     1       0.103  13.652  21.129  0.00  0.00    +0.000 A 
ATOM     33  C   UNL     1       0.959  12.660  20.642  0.00  0.00    +0.000 A 
ENDBRANCH  27  28
ENDBRANCH  24  27
ENDBRANCH  20  24
ENDBRANCH   1  22
TORSDOF 8
ENDMDL
MODEL 8
REMARK VINA RESULT:      -7.6      2.509      4.830
REMARK  Name = 
REMARK  10 active torsions:
REMARK  status: ('A' for Active; 'I' for Inactive)
REMARK    1  A    between atoms: C_1  and  C_2
REMARK    2  A    between atoms: C_2  and  C_3
REMARK    3  A    between atoms: C_3  and  O_4
REMARK    4  A    between atoms: C_3  and  C_11
REMARK    5  A    between atoms: O_4  and  C_5
REMARK    6  A    between atoms: N_13  and  C_14
REMARK    7  A    between atoms: C_16  and  C_17
REMARK    8  A    between atoms: C_22  and  O_23
REMARK    9  A    between atoms: O_23  and  C_24
REMARK   10  A    between atoms: N_26  and  C_27
REMARK                            x       y       z     vdW  Elec       q    Type
REMARK                         _______ _______ _______ _____ _____    ______ ____
ROOT
ATOM      1  C   UNL     1       0.862   9.252  18.246  0.00  0.00    +0.000 A 
ATOM      2  C   UNL     1       1.444   8.277  17.474  0.00  0.00    +0.000 A 
ATOM      3  C   UNL     1       2.380   7.608  18.334  0.00  0.00    +0.000 A 
ATOM      4  N   UNL     1       2.337   8.146  19.566  0.00  0.00    +0.000 NA
ATOM      5  N   UNL     1       1.273   8.985  19.542  0.00  0.00    +0.000 N 
ENDROOT
BRANCH   3   6
ATOM      6  C   UNL     1       3.365   6.579  17.934  0.00  0.00    +0.000 A 
ATOM      7  C   UNL     1       4.473   7.007  17.173  0.00  0.00    +0.000 A 
ATOM      8  C   UNL     1       5.456   6.114  16.739  0.00  0.00    +0.000 A 
ATOM      9  C   UNL     1       5.349   4.769  17.056  0.00  0.00    +0.000 A 
ATOM     10  C   UNL     1       4.268   4.319  17.814  0.00  0.00    +0.000 A 
ATOM     11  C   UNL     1       3.275   5.211  18.270  0.00  0.00    +0.000 A 
BRANCH  11  12
ATOM     12  O   UNL     1       2.183   4.767  18.974  0.00  0.00    +0.000 OA
ATOM     13  C   UNL     1       1.453   3.681  18.395  0.00  0.00    +0.000 C 
ENDBRANCH  11  12
ENDBRANCH   3   6
BRANCH   5  14
ATOM     14  C   UNL     1       0.648   9.440  20.732  0.00  0.00    +0.000 A 
ATOM     15  C   UNL     1      -0.015   8.537  21.566  0.00  0.00    +0.000 A 
ATOM     16  C   UNL     1      -0.651   9.000  22.725  0.00  0.00    +0.000 A 
ATOM     17  C   UNL     1      -0.650  10.363  23.030  0.00  0.00    +0.000 A 
ATOM     18  C   UNL     1      -0.022  11.270  22.180  0.00  0.00    +0.000 A 
ATOM     19  C   UNL     1       0.629  10.814  21.035  0.00  0.00    +0.000 A 
ENDBRANCH   5  14
BRANCH   1  22
ATOM     20  C   UNL     1      -1.369  10.332  17.911  0.00  0.00    +0.000 C 
ATOM     21  O   UNL     1      -1.949   9.363  18.374  0.00  0.00    +0.000 OA
ATOM     22  N   UNL     1       0.071  10.326  17.832  0.00  0.00    +0.000 N 
ATOM     23  H   UNL     1       0.530  11.193  17.563  0.00  0.00    +0.000 HD
BRANCH  20  24
ATOM     24  C   UNL     1      -2.044  11.665  17.545  0.00  0.00    +0.000 C 
BRANCH  24  26
ATOM     25  C   UNL     1      -2.771  10.566  15.348  0.00  0.00    +0.000 C 
ATOM     26  C   UNL     1      -3.185  11.416  16.542  0.00  0.00    +0.000 C 
ENDBRANCH  24  26
BRANCH  24  27
ATOM     27  O   UNL     1      -2.570  12.200  18.774  0.00  0.00    +0.000 OA
BRANCH  27  28
ATOM     28  C   UNL     1      -1.816  13.155  19.408  0.00  0.00    +0.000 A 
ATOM     29  C   UNL     1      -2.113  13.715  20.652  0.00  0.00    +0.000 A 
ATOM     30  C   UNL     1      -1.228  14.617  21.251  0.00  0.00    +0.000 A 
ATOM     31  C   UNL     1      -0.051  14.981  20.602  0.00  0.00    +0.000 A 
ATOM     32  C   UNL     1       0.244  14.438  19.354  0.00  0.00    +0.000 A 
ATOM     33  C   UNL     1      -0.631  13.520  18.765  0.00  0.00    +0.000 A 
ENDBRANCH  27  28
ENDBRANCH  24  27
ENDBRANCH  20  24
ENDBRANCH   1  22
TORSDOF 8
ENDMDL
MODEL 9
REMARK VINA RESULT:      -7.6      1.661      8.255
REMARK  Name = 
REMARK  10 active torsions:
REMARK  status: ('A' for Active; 'I' for Inactive)
REMARK    1  A    between atoms: C_1  and  C_2
REMARK    2  A    between atoms: C_2  and  C_3
REMARK    3  A    between atoms: C_3  and  O_4
REMARK    4  A    between atoms: C_3  and  C_11
REMARK    5  A    between atoms: O_4  and  C_5
REMARK    6  A    between atoms: N_13  and  C_14
REMARK    7  A    between atoms: C_16  and  C_17
REMARK    8  A    between atoms: C_22  and  O_23
REMARK    9  A    between atoms: O_23  and  C_24
REMARK   10  A    between atoms: N_26  and  C_27
REMARK                            x       y       z     vdW  Elec       q    Type
REMARK                         _______ _______ _______ _____ _____    ______ ____
ROOT
ATOM      1  C   UNL     1       2.680   6.913  18.513  0.00  0.00    +0.000 A 
ATOM      2  C   UNL     1       2.645   8.282  18.620  0.00  0.00    +0.000 A 
ATOM      3  C   UNL     1       1.548   8.576  19.496  0.00  0.00    +0.000 A 
ATOM      4  N   UNL     1       0.973   7.433  19.911  0.00  0.00    +0.000 NA
ATOM      5  N   UNL     1       1.798   6.450  19.477  0.00  0.00    +0.000 N 
ENDROOT
BRANCH   3   6
ATOM      6  C   UNL     1       1.003   9.916  19.810  0.00  0.00    +0.000 A 
ATOM      7  C   UNL     1       0.605  10.721  18.723  0.00  0.00    +0.000 A 
ATOM      8  C   UNL     1       0.084  12.005  18.910  0.00  0.00    +0.000 A 
ATOM      9  C   UNL     1      -0.044  12.512  20.193  0.00  0.00    +0.000 A 
ATOM     10  C   UNL     1       0.336  11.735  21.288  0.00  0.00    +0.000 A 
ATOM     11  C   UNL     1       0.849  10.432  21.114  0.00  0.00    +0.000 A 
BRANCH  11  12
ATOM     12  O   UNL     1       1.271   9.681  22.184  0.00  0.00    +0.000 OA
ATOM     13  C   UNL     1       0.282   9.365  23.168  0.00  0.00    +0.000 C 
ENDBRANCH  11  12
ENDBRANCH   3   6
BRANCH   5  14
ATOM     14  C   UNL     1       1.772   5.145  20.033  0.00  0.00    +0.000 A 
ATOM     15  C   UNL     1       1.025   4.137  19.422  0.00  0.00    +0.000 A 
ATOM     16  C   UNL     1       0.986   2.858  19.993  0.00  0.00    +0.000 A 
ATOM     17  C   UNL     1       1.665   2.600  21.186  0.00  0.00    +0.000 A 
ATOM     18  C   UNL     1       2.380   3.615  21.817  0.00  0.00    +0.000 A 
ATOM     19  C   UNL     1       2.439   4.885  21.244  0.00  0.00    +0.000 A 
ENDBRANCH   5  14
BRANCH   1  22
ATOM     20  C   UNL     1       4.674   5.538  17.892  0.00  0.00    +0.000 C 
ATOM     21  O   UNL     1       5.174   5.698  18.995  0.00  0.00    +0.000 OA
ATOM     22  N   UNL     1       3.394   6.134  17.601  0.00  0.00    +0.000 N 
ATOM     23  H   UNL     1       2.946   5.877  16.723  0.00  0.00    +0.000 HD
BRANCH  20  24
ATOM     24  C   UNL     1       5.225   4.595  16.809  0.00  0.00    +0.000 C 
BRANCH  24  26
ATOM     25  C   UNL     1       4.155   2.705  18.167  0.00  0.00    +0.000 C 
ATOM     26  C   UNL     1       4.407   3.291  16.784  0.00  0.00    +0.000 C 
ENDBRANCH  24  26
BRANCH  24  27
ATOM     27  O   UNL     1       5.083   5.295  15.558  0.00  0.00    +0.000 OA
BRANCH  27  28
ATOM     28  C   UNL     1       5.735   4.765  14.473  0.00  0.00    +0.000 A 
ATOM     29  C   UNL     1       5.182   3.854  13.572  0.00  0.00    +0.000 A 
ATOM     30  C   UNL     1       5.903   3.444  12.446  0.00  0.00    +0.000 A 
ATOM     31  C   UNL     1       7.190   3.928  12.224  0.00  0.00    +0.000 A 
ATOM     32  C   UNL     1       7.754   4.826  13.127  0.00  0.00    +0.000 A 
ATOM     33  C   UNL     1       7.025   5.251  14.242  0.00  0.00    +0.000 A 
ENDBRANCH  27  28
ENDBRANCH  24  27
ENDBRANCH  20  24
ENDBRANCH   1  22
TORSDOF 8
ENDMDL
