MODEL 1
REMARK VINA RESULT:      -6.1      0.000      0.000
REMARK  Name = 
REMARK  3 active torsions:
REMARK  status: ('A' for Active; 'I' for Inactive)
REMARK    1  A    between atoms: C_1  and  C_2
REMARK    2  A    between atoms: C_9  and  C_10
REMARK    3  A    between atoms: C_9  and  C_11
REMARK                            x       y       z     vdW  Elec       q    Type
REMARK                         _______ _______ _______ _____ _____    ______ ____
ROOT
ATOM      1  C   UNL     1       4.401   4.435  19.240  0.00  0.00    +0.000 C 
ATOM      2  C   UNL     1       5.311   4.713  18.059  0.00  0.00    +0.000 C 
ATOM      3  C   UNL     1       4.606   4.463  16.709  0.00  0.00    +0.000 C 
ATOM      4  C   UNL     1       5.627   4.080  15.618  0.00  0.00    +0.000 C 
ATOM      5  C   UNL     1       6.918   4.830  15.867  0.00  0.00    +0.000 C 
ATOM      6  O   UNL     1       7.516   5.415  14.974  0.00  0.00    +0.000 OA
ATOM      7  C   UNL     1       7.415   4.775  17.317  0.00  0.00    +0.000 C 
ATOM      8  O   UNL     1       6.500   3.898  18.037  0.00  0.00    +0.000 OA
ATOM      9  C   UNL     1       7.181   6.056  18.094  0.00  0.00    +0.000 C 
ATOM     10  C   UNL     1       7.667   7.371  17.502  0.00  0.00    +0.000 C 
ATOM     11  C   UNL     1       7.777   5.903  19.511  0.00  0.00    +0.000 C 
ATOM     12  O   UNL     1       5.737   6.089  18.172  0.00  0.00    +0.000 OA
ENDROOT
TORSDOF 0
ENDMDL
MODEL 2
REMARK VINA RESULT:      -5.8      3.240      5.091
REMARK  Name = 
REMARK  3 active torsions:
REMARK  status: ('A' for Active; 'I' for Inactive)
REMARK    1  A    between atoms: C_1  and  C_2
REMARK    2  A    between atoms: C_9  and  C_10
REMARK    3  A    between atoms: C_9  and  C_11
REMARK                            x       y       z     vdW  Elec       q    Type
REMARK                         _______ _______ _______ _____ _____    ______ ____
ROOT
ATOM      1  C   UNL     1       2.545   6.607  18.658  0.00  0.00    +0.000 C 
ATOM      2  C   UNL     1       3.201   5.314  19.106  0.00  0.00    +0.000 C 
ATOM      3  C   UNL     1       4.740   5.419  19.130  0.00  0.00    +0.000 C 
ATOM      4  C   UNL     1       5.389   4.038  18.907  0.00  0.00    +0.000 C 
ATOM      5  C   UNL     1       4.520   2.976  19.548  0.00  0.00    +0.000 C 
ATOM      6  O   UNL     1       4.984   2.094  20.258  0.00  0.00    +0.000 OA
ATOM      7  C   UNL     1       3.028   3.091  19.215  0.00  0.00    +0.000 C 
ATOM      8  O   UNL     1       2.898   4.186  18.261  0.00  0.00    +0.000 OA
ATOM      9  C   UNL     1       2.190   3.657  20.344  0.00  0.00    +0.000 C 
ATOM     10  C   UNL     1       2.294   3.022  21.724  0.00  0.00    +0.000 C 
ATOM     11  C   UNL     1       0.705   3.665  19.916  0.00  0.00    +0.000 C 
ATOM     12  O   UNL     1       2.683   5.014  20.421  0.00  0.00    +0.000 OA
ENDROOT
TORSDOF 0
ENDMDL
MODEL 3
REMARK VINA RESULT:      -5.8      1.215      3.031
REMARK  Name = 
REMARK  3 active torsions:
REMARK  status: ('A' for Active; 'I' for Inactive)
REMARK    1  A    between atoms: C_1  and  C_2
REMARK    2  A    between atoms: C_9  and  C_10
REMARK    3  A    between atoms: C_9  and  C_11
REMARK                            x       y       z     vdW  Elec       q    Type
REMARK                         _______ _______ _______ _____ _____    ______ ____
ROOT
ATOM      1  C   UNL     1       7.082   5.138  14.555  0.00  0.00    +0.000 C 
ATOM      2  C   UNL     1       6.445   4.997  15.925  0.00  0.00    +0.000 C 
ATOM      3  C   UNL     1       5.651   3.681  16.066  0.00  0.00    +0.000 C 
ATOM      4  C   UNL     1       4.511   3.834  17.093  0.00  0.00    +0.000 C 
ATOM      5  C   UNL     1       4.962   4.769  18.194  0.00  0.00    +0.000 C 
ATOM      6  O   UNL     1       4.800   4.509  19.379  0.00  0.00    +0.000 OA
ATOM      7  C   UNL     1       5.614   6.066  17.699  0.00  0.00    +0.000 C 
ATOM      8  O   UNL     1       5.515   6.052  16.245  0.00  0.00    +0.000 OA
ATOM      9  C   UNL     1       7.123   6.085  17.837  0.00  0.00    +0.000 C 
ATOM     10  C   UNL     1       7.739   5.762  19.191  0.00  0.00    +0.000 C 
ATOM     11  C   UNL     1       7.656   7.458  17.368  0.00  0.00    +0.000 C 
ATOM     12  O   UNL     1       7.515   5.061  16.894  0.00  0.00    +0.000 OA
ENDROOT
TORSDOF 0
ENDMDL
MODEL 4
REMARK VINA RESULT:      -5.7      2.596      4.516
REMARK  Name = 
REMARK  3 active torsions:
REMARK  status: ('A' for Active; 'I' for Inactive)
REMARK    1  A    between atoms: C_1  and  C_2
REMARK    2  A    between atoms: C_9  and  C_10
REMARK    3  A    between atoms: C_9  and  C_11
REMARK                            x       y       z     vdW  Elec       q    Type
REMARK                         _______ _______ _______ _____ _____    ______ ____
ROOT
ATOM      1  C   UNL     1       6.116   5.381  19.288  0.00  0.00    +0.000 C 
ATOM      2  C   UNL     1       4.720   5.027  18.811  0.00  0.00    +0.000 C 
ATOM      3  C   UNL     1       4.173   6.054  17.796  0.00  0.00    +0.000 C 
ATOM      4  C   UNL     1       2.632   6.104  17.841  0.00  0.00    +0.000 C 
ATOM      5  C   UNL     1       2.103   4.717  18.138  0.00  0.00    +0.000 C 
ATOM      6  O   UNL     1       1.184   4.219  17.500  0.00  0.00    +0.000 OA
ATOM      7  C   UNL     1       2.798   4.008  19.306  0.00  0.00    +0.000 C 
ATOM      8  O   UNL     1       3.743   4.964  19.869  0.00  0.00    +0.000 OA
ATOM      9  C   UNL     1       3.773   2.930  18.876  0.00  0.00    +0.000 C 
ATOM     10  C   UNL     1       3.295   1.850  17.917  0.00  0.00    +0.000 C 
ATOM     11  C   UNL     1       4.358   2.248  20.134  0.00  0.00    +0.000 C 
ATOM     12  O   UNL     1       4.799   3.710  18.222  0.00  0.00    +0.000 OA
ENDROOT
TORSDOF 0
ENDMDL
MODEL 5
REMARK VINA RESULT:      -5.6      3.002      5.338
REMARK  Name = 
REMARK  3 active torsions:
REMARK  status: ('A' for Active; 'I' for Inactive)
REMARK    1  A    between atoms: C_1  and  C_2
REMARK    2  A    between atoms: C_9  and  C_10
REMARK    3  A    between atoms: C_9  and  C_11
REMARK                            x       y       z     vdW  Elec       q    Type
REMARK                         _______ _______ _______ _____ _____    ______ ____
ROOT
ATOM      1  C   UNL     1       4.668   4.695  16.568  0.00  0.00    +0.000 C 
ATOM      2  C   UNL     1       3.704   4.719  17.738  0.00  0.00    +0.000 C 
ATOM      3  C   UNL     1       3.168   6.138  18.024  0.00  0.00    +0.000 C 
ATOM      4  C   UNL     1       2.787   6.294  19.510  0.00  0.00    +0.000 C 
ATOM      5  C   UNL     1       2.244   4.976  20.020  0.00  0.00    +0.000 C 
ATOM      6  O   UNL     1       1.216   4.905  20.680  0.00  0.00    +0.000 OA
ATOM      7  C   UNL     1       3.098   3.754  19.658  0.00  0.00    +0.000 C 
ATOM      8  O   UNL     1       4.283   4.262  18.978  0.00  0.00    +0.000 OA
ATOM      9  C   UNL     1       2.520   2.913  18.538  0.00  0.00    +0.000 C 
ATOM     10  C   UNL     1       1.078   2.436  18.647  0.00  0.00    +0.000 C 
ATOM     11  C   UNL     1       3.429   1.685  18.308  0.00  0.00    +0.000 C 
ATOM     12  O   UNL     1       2.624   3.815  17.412  0.00  0.00    +0.000 OA
ENDROOT
TORSDOF 0
ENDMDL
MODEL 6
REMARK VINA RESULT:      -5.6      1.513      3.549
REMARK  Name = 
REMARK  3 active torsions:
REMARK  status: ('A' for Active; 'I' for Inactive)
REMARK    1  A    between atoms: C_1  and  C_2
REMARK    2  A    between atoms: C_9  and  C_10
REMARK    3  A    between atoms: C_9  and  C_11
REMARK                            x       y       z     vdW  Elec       q    Type
REMARK                         _______ _______ _______ _____ _____    ______ ____
ROOT
ATOM      1  C   UNL     1       5.158   6.639  15.425  0.00  0.00    +0.000 C 
ATOM      2  C   UNL     1       5.780   6.253  16.754  0.00  0.00    +0.000 C 
ATOM      3  C   UNL     1       6.709   7.355  17.304  0.00  0.00    +0.000 C 
ATOM      4  C   UNL     1       7.806   6.751  18.204  0.00  0.00    +0.000 C 
ATOM      5  C   UNL     1       7.235   5.561  18.946  0.00  0.00    +0.000 C 
ATOM      6  O   UNL     1       7.401   5.400  20.148  0.00  0.00    +0.000 OA
ATOM      7  C   UNL     1       6.456   4.577  18.064  0.00  0.00    +0.000 C 
ATOM      8  O   UNL     1       6.584   5.057  16.694  0.00  0.00    +0.000 OA
ATOM      9  C   UNL     1       4.951   4.679  18.215  0.00  0.00    +0.000 C 
ATOM     10  C   UNL     1       4.347   4.605  19.610  0.00  0.00    +0.000 C 
ATOM     11  C   UNL     1       4.282   3.602  17.331  0.00  0.00    +0.000 C 
ATOM     12  O   UNL     1       4.691   5.991  17.667  0.00  0.00    +0.000 OA
ENDROOT
TORSDOF 0
ENDMDL
MODEL 7
REMARK VINA RESULT:      -5.6      3.464      4.913
REMARK  Name = 
REMARK  3 active torsions:
REMARK  status: ('A' for Active; 'I' for Inactive)
REMARK    1  A    between atoms: C_1  and  C_2
REMARK    2  A    between atoms: C_9  and  C_10
REMARK    3  A    between atoms: C_9  and  C_11
REMARK                            x       y       z     vdW  Elec       q    Type
REMARK                         _______ _______ _______ _____ _____    ______ ____
ROOT
ATOM      1  C   UNL     1       2.615   6.782  18.424  0.00  0.00    +0.000 C 
ATOM      2  C   UNL     1       2.890   5.292  18.342  0.00  0.00    +0.000 C 
ATOM      3  C   UNL     1       4.104   4.972  17.444  0.00  0.00    +0.000 C 
ATOM      4  C   UNL     1       3.975   3.565  16.826  0.00  0.00    +0.000 C 
ATOM      5  C   UNL     1       3.286   2.652  17.818  0.00  0.00    +0.000 C 
ATOM      6  O   UNL     1       3.707   1.533  18.077  0.00  0.00    +0.000 OA
ATOM      7  C   UNL     1       2.018   3.240  18.448  0.00  0.00    +0.000 C 
ATOM      8  O   UNL     1       1.792   4.528  17.803  0.00  0.00    +0.000 OA
ATOM      9  C   UNL     1       2.206   3.716  19.875  0.00  0.00    +0.000 C 
ATOM     10  C   UNL     1       2.811   2.760  20.893  0.00  0.00    +0.000 C 
ATOM     11  C   UNL     1       0.853   4.226  20.420  0.00  0.00    +0.000 C 
ATOM     12  O   UNL     1       3.110   4.831  19.693  0.00  0.00    +0.000 OA
ENDROOT
TORSDOF 0
ENDMDL
MODEL 8
REMARK VINA RESULT:      -5.6      2.825      4.706
REMARK  Name = 
REMARK  3 active torsions:
REMARK  status: ('A' for Active; 'I' for Inactive)
REMARK    1  A    between atoms: C_1  and  C_2
REMARK    2  A    between atoms: C_9  and  C_10
REMARK    3  A    between atoms: C_9  and  C_11
REMARK                            x       y       z     vdW  Elec       q    Type
REMARK                         _______ _______ _______ _____ _____    ______ ____
ROOT
ATOM      1  C   UNL     1       1.795   5.357  20.646  0.00  0.00    +0.000 C 
ATOM      2  C   UNL     1       2.617   4.877  19.465  0.00  0.00    +0.000 C 
ATOM      3  C   UNL     1       3.877   5.741  19.243  0.00  0.00    +0.000 C 
ATOM      4  C   UNL     1       4.304   5.719  17.761  0.00  0.00    +0.000 C 
ATOM      5  C   UNL     1       3.998   4.355  17.180  0.00  0.00    +0.000 C 
ATOM      6  O   UNL     1       4.810   3.736  16.505  0.00  0.00    +0.000 OA
ATOM      7  C   UNL     1       2.591   3.831  17.494  0.00  0.00    +0.000 C 
ATOM      8  O   UNL     1       1.903   4.895  18.213  0.00  0.00    +0.000 OA
ATOM      9  C   UNL     1       2.561   2.759  18.565  0.00  0.00    +0.000 C 
ATOM     10  C   UNL     1       3.467   1.545  18.413  0.00  0.00    +0.000 C 
ATOM     11  C   UNL     1       1.107   2.268  18.746  0.00  0.00    +0.000 C 
ATOM     12  O   UNL     1       2.975   3.503  19.733  0.00  0.00    +0.000 OA
ENDROOT
TORSDOF 0
ENDMDL
MODEL 9
REMARK VINA RESULT:      -5.5      3.342      4.800
REMARK  Name = 
REMARK  3 active torsions:
REMARK  status: ('A' for Active; 'I' for Inactive)
REMARK    1  A    between atoms: C_1  and  C_2
REMARK    2  A    between atoms: C_9  and  C_10
REMARK    3  A    between atoms: C_9  and  C_11
REMARK                            x       y       z     vdW  Elec       q    Type
REMARK                         _______ _______ _______ _____ _____    ______ ____
ROOT
ATOM      1  C   UNL     1       3.667   1.382  18.231  0.00  0.00    +0.000 C 
ATOM      2  C   UNL     1       3.421   2.862  18.453  0.00  0.00    +0.000 C 
ATOM      3  C   UNL     1       3.552   3.677  17.148  0.00  0.00    +0.000 C 
ATOM      4  C   UNL     1       3.978   5.129  17.447  0.00  0.00    +0.000 C 
ATOM      5  C   UNL     1       3.355   5.565  18.756  0.00  0.00    +0.000 C 
ATOM      6  O   UNL     1       2.788   6.643  18.882  0.00  0.00    +0.000 OA
ATOM      7  C   UNL     1       3.513   4.558  19.902  0.00  0.00    +0.000 C 
ATOM      8  O   UNL     1       4.335   3.470  19.388  0.00  0.00    +0.000 OA
ATOM      9  C   UNL     1       2.250   3.778  20.210  0.00  0.00    +0.000 C 
ATOM     10  C   UNL     1       0.959   4.544  20.462  0.00  0.00    +0.000 C 
ATOM     11  C   UNL     1       2.513   2.848  21.416  0.00  0.00    +0.000 C 
ATOM     12  O   UNL     1       2.094   2.989  19.009  0.00  0.00    +0.000 OA
ENDROOT
TORSDOF 0
ENDMDL
