MODEL 1
REMARK VINA RESULT:      -8.2      0.000      0.000
REMARK  Name = 
REMARK  4 active torsions:
REMARK  status: ('A' for Active; 'I' for Inactive)
REMARK    1  A    between atoms: C_4  and  N_5
REMARK    2  A    between atoms: C_10  and  C_11
REMARK    3  A    between atoms: C_11  and  N_12
REMARK    4  A    between atoms: C_13  and  C_15
REMARK                            x       y       z     vdW  Elec       q    Type
REMARK                         _______ _______ _______ _____ _____    ______ ____
ROOT
ATOM      1  N   UNL     1       2.325   6.694  19.508  0.00  0.00    +0.000 N 
ATOM      2  C   UNL     1       2.679   7.216  18.190  0.00  0.00    +0.000 C 
ATOM      3  C   UNL     1       2.257   8.637  17.839  0.00  0.00    +0.000 C 
ATOM      4  N   UNL     1       1.563   9.347  18.874  0.00  0.00    +0.000 N 
ATOM      5  N   UNL     1       1.148  10.611  18.661  0.00  0.00    +0.000 NA
ATOM      6  C   UNL     1       0.577  10.958  19.827  0.00  0.00    +0.000 A 
ATOM      7  C   UNL     1       0.619   9.891  20.759  0.00  0.00    +0.000 A 
ATOM      8  C   UNL     1       1.269   8.868  20.107  0.00  0.00    +0.000 A 
ATOM      9  C   UNL     1       1.642   7.494  20.519  0.00  0.00    +0.000 C 
ENDROOT
BRANCH   1  13
ATOM     10  N   UNL     1       1.667   2.668  22.079  0.00  0.00    +0.000 N 
ATOM     11  C   UNL     1       2.351   3.400  21.107  0.00  0.00    +0.000 A 
ATOM     12  C   UNL     1       1.936   4.673  20.792  0.00  0.00    +0.000 A 
ATOM     13  C   UNL     1       2.673   5.391  19.872  0.00  0.00    +0.000 A 
ATOM     14  N   UNL     1       3.764   4.831  19.317  0.00  0.00    +0.000 NA
ATOM     15  C   UNL     1       4.089   3.584  19.679  0.00  0.00    +0.000 A 
ATOM     16  N   UNL     1       5.232   3.039  19.124  0.00  0.00    +0.000 N 
ATOM     17  N   UNL     1       3.436   2.845  20.571  0.00  0.00    +0.000 NA
ATOM     18  H   UNL     1       0.668   2.637  21.907  0.00  0.00    +0.000 HD
ATOM     19  H   UNL     1       2.078   1.737  22.115  0.00  0.00    +0.000 HD
ATOM     20  H   UNL     1       5.853   3.784  18.834  0.00  0.00    +0.000 HD
ATOM     21  H   UNL     1       5.611   2.344  19.753  0.00  0.00    +0.000 HD
ENDBRANCH   1  13
BRANCH   6  22
ATOM     22  C   UNL     1       0.036  12.333  20.047  0.00  0.00    +0.000 C 
BRANCH  22  23
ATOM     23  N   UNL     1      -0.771  12.377  21.249  0.00  0.00    +0.000 N 
ATOM     24  C   UNL     1      -0.467  13.215  22.298  0.00  0.00    +0.000 C 
ATOM     25  O   UNL     1       0.511  13.956  22.302  0.00  0.00    +0.000 OA
ATOM     26  H   UNL     1      -1.437  11.629  21.382  0.00  0.00    +0.000 HD
BRANCH  24  27
ATOM     27  C   UNL     1      -1.477  13.154  23.435  0.00  0.00    +0.000 C 
ATOM     28  C   UNL     1      -2.248  14.455  23.642  0.00  0.00    +0.000 C 
ATOM     29  C   UNL     1      -3.496  14.034  24.405  0.00  0.00    +0.000 C 
ATOM     30  C   UNL     1      -3.788  12.603  23.967  0.00  0.00    +0.000 C 
ATOM     31  C   UNL     1      -2.592  12.151  23.137  0.00  0.00    +0.000 C 
ENDBRANCH  24  27
ENDBRANCH  22  23
ENDBRANCH   6  22
TORSDOF 4
ENDMDL
MODEL 2
REMARK VINA RESULT:      -8.1      4.197      6.233
REMARK  Name = 
REMARK  4 active torsions:
REMARK  status: ('A' for Active; 'I' for Inactive)
REMARK    1  A    between atoms: C_4  and  N_5
REMARK    2  A    between atoms: C_10  and  C_11
REMARK    3  A    between atoms: C_11  and  N_12
REMARK    4  A    between atoms: C_13  and  C_15
REMARK                            x       y       z     vdW  Elec       q    Type
REMARK                         _______ _______ _______ _____ _____    ______ ____
ROOT
ATOM      1  N   UNL     1       5.736   4.901  16.286  0.00  0.00    +0.000 N 
ATOM      2  C   UNL     1       6.517   4.554  17.471  0.00  0.00    +0.000 C 
ATOM      3  C   UNL     1       5.896   4.792  18.841  0.00  0.00    +0.000 C 
ATOM      4  N   UNL     1       4.561   5.319  18.829  0.00  0.00    +0.000 N 
ATOM      5  N   UNL     1       3.924   5.564  19.990  0.00  0.00    +0.000 NA
ATOM      6  C   UNL     1       2.718   6.012  19.603  0.00  0.00    +0.000 A 
ATOM      7  C   UNL     1       2.619   6.067  18.189  0.00  0.00    +0.000 A 
ATOM      8  C   UNL     1       3.829   5.605  17.725  0.00  0.00    +0.000 A 
ATOM      9  C   UNL     1       4.369   5.405  16.359  0.00  0.00    +0.000 C 
ENDROOT
BRANCH   1  13
ATOM     10  N   UNL     1       5.877   2.682  12.007  0.00  0.00    +0.000 N 
ATOM     11  C   UNL     1       6.335   3.657  12.894  0.00  0.00    +0.000 A 
ATOM     12  C   UNL     1       5.748   3.785  14.132  0.00  0.00    +0.000 A 
ATOM     13  C   UNL     1       6.267   4.718  15.008  0.00  0.00    +0.000 A 
ATOM     14  N   UNL     1       7.321   5.464  14.629  0.00  0.00    +0.000 NA
ATOM     15  C   UNL     1       7.824   5.276  13.403  0.00  0.00    +0.000 A 
ATOM     16  N   UNL     1       8.927   6.028  13.046  0.00  0.00    +0.000 N 
ATOM     17  N   UNL     1       7.384   4.384  12.519  0.00  0.00    +0.000 NA
ATOM     18  H   UNL     1       4.872   2.723  11.873  0.00  0.00    +0.000 HD
ATOM     19  H   UNL     1       6.384   2.793  11.132  0.00  0.00    +0.000 HD
ATOM     20  H   UNL     1       9.419   6.321  13.880  0.00  0.00    +0.000 HD
ATOM     21  H   UNL     1       9.462   5.527  12.349  0.00  0.00    +0.000 HD
ENDBRANCH   1  13
BRANCH   6  22
ATOM     22  C   UNL     1       1.655   6.342  20.599  0.00  0.00    +0.000 C 
BRANCH  22  23
ATOM     23  N   UNL     1       1.621   7.767  20.856  0.00  0.00    +0.000 N 
ATOM     24  C   UNL     1       0.493   8.393  21.337  0.00  0.00    +0.000 C 
ATOM     25  O   UNL     1      -0.559   7.801  21.555  0.00  0.00    +0.000 OA
ATOM     26  H   UNL     1       2.377   8.319  20.475  0.00  0.00    +0.000 HD
BRANCH  24  27
ATOM     27  C   UNL     1       0.690   9.879  21.600  0.00  0.00    +0.000 C 
ATOM     28  C   UNL     1       0.546  10.747  20.352  0.00  0.00    +0.000 C 
ATOM     29  C   UNL     1       0.254  12.139  20.896  0.00  0.00    +0.000 C 
ATOM     30  C   UNL     1      -0.478  11.924  22.217  0.00  0.00    +0.000 C 
ATOM     31  C   UNL     1      -0.402  10.432  22.517  0.00  0.00    +0.000 C 
ENDBRANCH  24  27
ENDBRANCH  22  23
ENDBRANCH   6  22
TORSDOF 4
ENDMDL
MODEL 3
REMARK VINA RESULT:      -8.1      5.141     10.696
REMARK  Name = 
REMARK  4 active torsions:
REMARK  status: ('A' for Active; 'I' for Inactive)
REMARK    1  A    between atoms: C_4  and  N_5
REMARK    2  A    between atoms: C_10  and  C_11
REMARK    3  A    between atoms: C_11  and  N_12
REMARK    4  A    between atoms: C_13  and  C_15
REMARK                            x       y       z     vdW  Elec       q    Type
REMARK                         _______ _______ _______ _____ _____    ______ ____
ROOT
ATOM      1  N   UNL     1       2.576   7.209  19.121  0.00  0.00    +0.000 N 
ATOM      2  C   UNL     1       2.658   5.971  19.894  0.00  0.00    +0.000 C 
ATOM      3  C   UNL     1       3.633   4.896  19.434  0.00  0.00    +0.000 C 
ATOM      4  N   UNL     1       4.414   5.226  18.277  0.00  0.00    +0.000 N 
ATOM      5  N   UNL     1       5.306   4.341  17.792  0.00  0.00    +0.000 NA
ATOM      6  C   UNL     1       5.858   4.985  16.749  0.00  0.00    +0.000 A 
ATOM      7  C   UNL     1       5.284   6.269  16.575  0.00  0.00    +0.000 A 
ATOM      8  C   UNL     1       4.358   6.391  17.586  0.00  0.00    +0.000 A 
ATOM      9  C   UNL     1       3.430   7.481  17.970  0.00  0.00    +0.000 C 
ENDROOT
BRANCH   1  13
ATOM     10  N   UNL     1       0.028  11.195  18.188  0.00  0.00    +0.000 N 
ATOM     11  C   UNL     1       0.409  10.160  19.043  0.00  0.00    +0.000 A 
ATOM     12  C   UNL     1       1.280   9.192  18.599  0.00  0.00    +0.000 A 
ATOM     13  C   UNL     1       1.685   8.219  19.491  0.00  0.00    +0.000 A 
ATOM     14  N   UNL     1       1.223   8.247  20.754  0.00  0.00    +0.000 NA
ATOM     15  C   UNL     1       0.373   9.223  21.096  0.00  0.00    +0.000 A 
ATOM     16  N   UNL     1      -0.065   9.254  22.408  0.00  0.00    +0.000 N 
ATOM     17  N   UNL     1      -0.042  10.199  20.294  0.00  0.00    +0.000 NA
ATOM     18  H   UNL     1      -0.314  10.853  17.296  0.00  0.00    +0.000 HD
ATOM     19  H   UNL     1      -0.666  11.760  18.672  0.00  0.00    +0.000 HD
ATOM     20  H   UNL     1       0.607   8.780  22.998  0.00  0.00    +0.000 HD
ATOM     21  H   UNL     1      -0.306  10.204  22.657  0.00  0.00    +0.000 HD
ENDBRANCH   1  13
BRANCH   6  22
ATOM     22  C   UNL     1       6.966   4.372  15.956  0.00  0.00    +0.000 C 
BRANCH  22  23
ATOM     23  N   UNL     1       6.490   3.954  14.654  0.00  0.00    +0.000 N 
ATOM     24  C   UNL     1       6.955   4.527  13.492  0.00  0.00    +0.000 C 
ATOM     25  O   UNL     1       7.774   5.440  13.477  0.00  0.00    +0.000 OA
ATOM     26  H   UNL     1       5.659   3.379  14.632  0.00  0.00    +0.000 HD
BRANCH  24  27
ATOM     27  C   UNL     1       6.376   3.899  12.232  0.00  0.00    +0.000 C 
ATOM     28  C   UNL     1       6.809   2.451  12.014  0.00  0.00    +0.000 C 
ATOM     29  C   UNL     1       5.758   1.884  11.070  0.00  0.00    +0.000 C 
ATOM     30  C   UNL     1       4.473   2.649  11.370  0.00  0.00    +0.000 C 
ATOM     31  C   UNL     1       4.854   3.782  12.316  0.00  0.00    +0.000 C 
ENDBRANCH  24  27
ENDBRANCH  22  23
ENDBRANCH   6  22
TORSDOF 4
ENDMDL
MODEL 4
REMARK VINA RESULT:      -8.1      5.022     10.535
REMARK  Name = 
REMARK  4 active torsions:
REMARK  status: ('A' for Active; 'I' for Inactive)
REMARK    1  A    between atoms: C_4  and  N_5
REMARK    2  A    between atoms: C_10  and  C_11
REMARK    3  A    between atoms: C_11  and  N_12
REMARK    4  A    between atoms: C_13  and  C_15
REMARK                            x       y       z     vdW  Elec       q    Type
REMARK                         _______ _______ _______ _____ _____    ______ ____
ROOT
ATOM      1  N   UNL     1       2.514   7.106  19.307  0.00  0.00    +0.000 N 
ATOM      2  C   UNL     1       2.585   5.862  20.070  0.00  0.00    +0.000 C 
ATOM      3  C   UNL     1       3.557   4.786  19.608  0.00  0.00    +0.000 C 
ATOM      4  N   UNL     1       4.346   5.121  18.457  0.00  0.00    +0.000 N 
ATOM      5  N   UNL     1       5.236   4.235  17.970  0.00  0.00    +0.000 NA
ATOM      6  C   UNL     1       5.797   4.884  16.935  0.00  0.00    +0.000 A 
ATOM      7  C   UNL     1       5.230   6.173  16.768  0.00  0.00    +0.000 A 
ATOM      8  C   UNL     1       4.299   6.292  17.775  0.00  0.00    +0.000 A 
ATOM      9  C   UNL     1       3.375   7.383  18.163  0.00  0.00    +0.000 C 
ENDROOT
BRANCH   1  13
ATOM     10  N   UNL     1      -0.408   9.253  22.486  0.00  0.00    +0.000 N 
ATOM     11  C   UNL     1       0.208   9.198  21.234  0.00  0.00    +0.000 A 
ATOM     12  C   UNL     1       1.084   8.177  20.949  0.00  0.00    +0.000 A 
ATOM     13  C   UNL     1       1.626   8.118  19.680  0.00  0.00    +0.000 A 
ATOM     14  N   UNL     1       1.284   9.049  18.772  0.00  0.00    +0.000 NA
ATOM     15  C   UNL     1       0.428  10.011  19.141  0.00  0.00    +0.000 A 
ATOM     16  N   UNL     1       0.063  10.938  18.183  0.00  0.00    +0.000 N 
ATOM     17  N   UNL     1      -0.144  10.115  20.337  0.00  0.00    +0.000 NA
ATOM     18  H   UNL     1       0.259   9.192  23.248  0.00  0.00    +0.000 HD
ATOM     19  H   UNL     1      -0.957  10.109  22.526  0.00  0.00    +0.000 HD
ATOM     20  H   UNL     1       0.188  10.538  17.262  0.00  0.00    +0.000 HD
ATOM     21  H   UNL     1      -0.854  11.305  18.405  0.00  0.00    +0.000 HD
ENDBRANCH   1  13
BRANCH   6  22
ATOM     22  C   UNL     1       6.906   4.272  16.144  0.00  0.00    +0.000 C 
BRANCH  22  23
ATOM     23  N   UNL     1       6.449   3.916  14.816  0.00  0.00    +0.000 N 
ATOM     24  C   UNL     1       6.937   4.537  13.688  0.00  0.00    +0.000 C 
ATOM     25  O   UNL     1       7.763   5.443  13.727  0.00  0.00    +0.000 OA
ATOM     26  H   UNL     1       5.615   3.350  14.756  0.00  0.00    +0.000 HD
BRANCH  24  27
ATOM     27  C   UNL     1       6.375   3.969  12.393  0.00  0.00    +0.000 C 
ATOM     28  C   UNL     1       6.738   2.506  12.155  0.00  0.00    +0.000 C 
ATOM     29  C   UNL     1       5.696   2.018  11.159  0.00  0.00    +0.000 C 
ATOM     30  C   UNL     1       4.442   2.844  11.430  0.00  0.00    +0.000 C 
ATOM     31  C   UNL     1       4.846   3.933  12.418  0.00  0.00    +0.000 C 
ENDBRANCH  24  27
ENDBRANCH  22  23
ENDBRANCH   6  22
TORSDOF 4
ENDMDL
MODEL 5
REMARK VINA RESULT:      -8.1      0.907      1.116
REMARK  Name = 
REMARK  4 active torsions:
REMARK  status: ('A' for Active; 'I' for Inactive)
REMARK    1  A    between atoms: C_4  and  N_5
REMARK    2  A    between atoms: C_10  and  C_11
REMARK    3  A    between atoms: C_11  and  N_12
REMARK    4  A    between atoms: C_13  and  C_15
REMARK                            x       y       z     vdW  Elec       q    Type
REMARK                         _______ _______ _______ _____ _____    ______ ____
ROOT
ATOM      1  N   UNL     1       2.232   6.681  19.685  0.00  0.00    +0.000 N 
ATOM      2  C   UNL     1       2.520   7.285  18.386  0.00  0.00    +0.000 C 
ATOM      3  C   UNL     1       2.056   8.714  18.135  0.00  0.00    +0.000 C 
ATOM      4  N   UNL     1       1.390   9.348  19.236  0.00  0.00    +0.000 N 
ATOM      5  N   UNL     1       0.942  10.612  19.113  0.00  0.00    +0.000 NA
ATOM      6  C   UNL     1       0.412  10.879  20.319  0.00  0.00    +0.000 A 
ATOM      7  C   UNL     1       0.513   9.762  21.185  0.00  0.00    +0.000 A 
ATOM      8  C   UNL     1       1.157   8.793  20.450  0.00  0.00    +0.000 A 
ATOM      9  C   UNL     1       1.574   7.407  20.766  0.00  0.00    +0.000 C 
ENDROOT
BRANCH   1  13
ATOM     10  N   UNL     1       1.737   2.488  22.015  0.00  0.00    +0.000 N 
ATOM     11  C   UNL     1       2.379   3.296  21.074  0.00  0.00    +0.000 A 
ATOM     12  C   UNL     1       1.924   4.575  20.849  0.00  0.00    +0.000 A 
ATOM     13  C   UNL     1       2.621   5.368  19.959  0.00  0.00    +0.000 A 
ATOM     14  N   UNL     1       3.711   4.872  19.345  0.00  0.00    +0.000 NA
ATOM     15  C   UNL     1       4.076   3.614  19.621  0.00  0.00    +0.000 A 
ATOM     16  N   UNL     1       5.218   3.134  19.006  0.00  0.00    +0.000 N 
ATOM     17  N   UNL     1       3.463   2.804  20.479  0.00  0.00    +0.000 NA
ATOM     18  H   UNL     1       0.735   2.442  21.865  0.00  0.00    +0.000 HD
ATOM     19  H   UNL     1       2.172   1.568  21.983  0.00  0.00    +0.000 HD
ATOM     20  H   UNL     1       5.813   3.911  18.749  0.00  0.00    +0.000 HD
ATOM     21  H   UNL     1       5.629   2.412  19.582  0.00  0.00    +0.000 HD
ENDBRANCH   1  13
BRANCH   6  22
ATOM     22  C   UNL     1      -0.148  12.227  20.639  0.00  0.00    +0.000 C 
BRANCH  22  23
ATOM     23  N   UNL     1      -1.493  12.108  21.165  0.00  0.00    +0.000 N 
ATOM     24  C   UNL     1      -1.792  12.417  22.473  0.00  0.00    +0.000 C 
ATOM     25  O   UNL     1      -0.948  12.785  23.284  0.00  0.00    +0.000 OA
ATOM     26  H   UNL     1      -2.160  11.595  20.606  0.00  0.00    +0.000 HD
BRANCH  24  27
ATOM     27  C   UNL     1      -3.272  12.288  22.803  0.00  0.00    +0.000 C 
ATOM     28  C   UNL     1      -3.663  12.930  24.132  0.00  0.00    +0.000 C 
ATOM     29  C   UNL     1      -5.164  13.153  24.012  0.00  0.00    +0.000 C 
ATOM     30  C   UNL     1      -5.437  13.368  22.527  0.00  0.00    +0.000 C 
ATOM     31  C   UNL     1      -4.136  13.051  21.798  0.00  0.00    +0.000 C 
ENDBRANCH  24  27
ENDBRANCH  22  23
ENDBRANCH   6  22
TORSDOF 4
ENDMDL
MODEL 6
REMARK VINA RESULT:      -8.1      2.226      3.751
REMARK  Name = 
REMARK  4 active torsions:
REMARK  status: ('A' for Active; 'I' for Inactive)
REMARK    1  A    between atoms: C_4  and  N_5
REMARK    2  A    between atoms: C_10  and  C_11
REMARK    3  A    between atoms: C_11  and  N_12
REMARK    4  A    between atoms: C_13  and  C_15
REMARK                            x       y       z     vdW  Elec       q    Type
REMARK                         _______ _______ _______ _____ _____    ______ ____
ROOT
ATOM      1  N   UNL     1       2.280   6.655  19.556  0.00  0.00    +0.000 N 
ATOM      2  C   UNL     1       2.568   7.170  18.219  0.00  0.00    +0.000 C 
ATOM      3  C   UNL     1       2.144   8.594  17.887  0.00  0.00    +0.000 C 
ATOM      4  N   UNL     1       1.513   9.315  18.955  0.00  0.00    +0.000 N 
ATOM      5  N   UNL     1       1.101  10.582  18.761  0.00  0.00    +0.000 NA
ATOM      6  C   UNL     1       0.597  10.939  19.955  0.00  0.00    +0.000 A 
ATOM      7  C   UNL     1       0.677   9.874  20.886  0.00  0.00    +0.000 A 
ATOM      8  C   UNL     1       1.281   8.842  20.204  0.00  0.00    +0.000 A 
ATOM      9  C   UNL     1       1.660   7.465  20.599  0.00  0.00    +0.000 C 
ENDROOT
BRANCH   1  13
ATOM     10  N   UNL     1       1.641   2.600  22.085  0.00  0.00    +0.000 N 
ATOM     11  C   UNL     1       2.320   3.344  21.119  0.00  0.00    +0.000 A 
ATOM     12  C   UNL     1       1.900   4.619  20.819  0.00  0.00    +0.000 A 
ATOM     13  C   UNL     1       2.633   5.350  19.905  0.00  0.00    +0.000 A 
ATOM     14  N   UNL     1       3.724   4.799  19.341  0.00  0.00    +0.000 NA
ATOM     15  C   UNL     1       4.054   3.549  19.688  0.00  0.00    +0.000 A 
ATOM     16  N   UNL     1       5.197   3.014  19.123  0.00  0.00    +0.000 N 
ATOM     17  N   UNL     1       3.405   2.799  20.573  0.00  0.00    +0.000 NA
ATOM     18  H   UNL     1       0.642   2.568  21.916  0.00  0.00    +0.000 HD
ATOM     19  H   UNL     1       2.055   1.670  22.110  0.00  0.00    +0.000 HD
ATOM     20  H   UNL     1       5.814   3.763  18.840  0.00  0.00    +0.000 HD
ATOM     21  H   UNL     1       5.579   2.313  19.744  0.00  0.00    +0.000 HD
ENDBRANCH   1  13
BRANCH   6  22
ATOM     22  C   UNL     1       0.083  12.320  20.199  0.00  0.00    +0.000 C 
BRANCH  22  23
ATOM     23  N   UNL     1       0.970  13.306  19.616  0.00  0.00    +0.000 N 
ATOM     24  C   UNL     1       1.869  14.016  20.380  0.00  0.00    +0.000 C 
ATOM     25  O   UNL     1       1.963  13.887  21.596  0.00  0.00    +0.000 OA
ATOM     26  H   UNL     1       0.766  13.605  18.674  0.00  0.00    +0.000 HD
BRANCH  24  27
ATOM     27  C   UNL     1       2.750  14.951  19.564  0.00  0.00    +0.000 C 
ATOM     28  C   UNL     1       3.232  14.348  18.247  0.00  0.00    +0.000 C 
ATOM     29  C   UNL     1       3.612  15.554  17.400  0.00  0.00    +0.000 C 
ATOM     30  C   UNL     1       2.702  16.689  17.860  0.00  0.00    +0.000 C 
ATOM     31  C   UNL     1       1.975  16.185  19.101  0.00  0.00    +0.000 C 
ENDBRANCH  24  27
ENDBRANCH  22  23
ENDBRANCH   6  22
TORSDOF 4
ENDMDL
MODEL 7
REMARK VINA RESULT:      -8.0      2.822      3.409
REMARK  Name = 
REMARK  4 active torsions:
REMARK  status: ('A' for Active; 'I' for Inactive)
REMARK    1  A    between atoms: C_4  and  N_5
REMARK    2  A    between atoms: C_10  and  C_11
REMARK    3  A    between atoms: C_11  and  N_12
REMARK    4  A    between atoms: C_13  and  C_15
REMARK                            x       y       z     vdW  Elec       q    Type
REMARK                         _______ _______ _______ _____ _____    ______ ____
ROOT
ATOM      1  N   UNL     1       2.748   5.957  19.368  0.00  0.00    +0.000 N 
ATOM      2  C   UNL     1       3.448   6.287  18.129  0.00  0.00    +0.000 C 
ATOM      3  C   UNL     1       3.243   7.673  17.531  0.00  0.00    +0.000 C 
ATOM      4  N   UNL     1       2.385   8.546  18.280  0.00  0.00    +0.000 N 
ATOM      5  N   UNL     1       2.141   9.793  17.834  0.00  0.00    +0.000 NA
ATOM      6  C   UNL     1       1.340  10.317  18.778  0.00  0.00    +0.000 A 
ATOM      7  C   UNL     1       1.069   9.376  19.803  0.00  0.00    +0.000 A 
ATOM      8  C   UNL     1       1.767   8.244  19.448  0.00  0.00    +0.000 A 
ATOM      9  C   UNL     1       1.915   6.915  20.086  0.00  0.00    +0.000 C 
ENDROOT
BRANCH   1  13
ATOM     10  N   UNL     1       1.344   2.478  22.397  0.00  0.00    +0.000 N 
ATOM     11  C   UNL     1       2.201   2.966  21.409  0.00  0.00    +0.000 A 
ATOM     12  C   UNL     1       1.986   4.216  20.876  0.00  0.00    +0.000 A 
ATOM     13  C   UNL     1       2.889   4.694  19.947  0.00  0.00    +0.000 A 
ATOM     14  N   UNL     1       3.941   3.931  19.596  0.00  0.00    +0.000 NA
ATOM     15  C   UNL     1       4.066   2.725  20.162  0.00  0.00    +0.000 A 
ATOM     16  N   UNL     1       5.172   1.971  19.814  0.00  0.00    +0.000 N 
ATOM     17  N   UNL     1       3.246   2.213  21.075  0.00  0.00    +0.000 NA
ATOM     18  H   UNL     1       0.369   2.538  22.127  0.00  0.00    +0.000 HD
ATOM     19  H   UNL     1       1.624   1.522  22.608  0.00  0.00    +0.000 HD
ATOM     20  H   UNL     1       5.908   2.584  19.489  0.00  0.00    +0.000 HD
ATOM     21  H   UNL     1       5.399   1.341  20.571  0.00  0.00    +0.000 HD
ENDBRANCH   1  13
BRANCH   6  22
ATOM     22  C   UNL     1       0.880  11.736  18.706  0.00  0.00    +0.000 C 
BRANCH  22  23
ATOM     23  N   UNL     1      -0.410  11.821  18.053  0.00  0.00    +0.000 N 
ATOM     24  C   UNL     1      -1.589  11.787  18.764  0.00  0.00    +0.000 C 
ATOM     25  O   UNL     1      -1.632  11.657  19.983  0.00  0.00    +0.000 OA
ATOM     26  H   UNL     1      -0.426  11.695  17.051  0.00  0.00    +0.000 HD
BRANCH  24  27
ATOM     27  C   UNL     1      -2.826  11.957  17.895  0.00  0.00    +0.000 C 
ATOM     28  C   UNL     1      -2.837  11.058  16.661  0.00  0.00    +0.000 C 
ATOM     29  C   UNL     1      -4.304  10.992  16.259  0.00  0.00    +0.000 C 
ATOM     30  C   UNL     1      -5.098  11.149  17.552  0.00  0.00    +0.000 C 
ATOM     31  C   UNL     1      -4.091  11.520  18.635  0.00  0.00    +0.000 C 
ENDBRANCH  24  27
ENDBRANCH  22  23
ENDBRANCH   6  22
TORSDOF 4
ENDMDL
MODEL 8
REMARK VINA RESULT:      -8.0      3.296      4.952
REMARK  Name = 
REMARK  4 active torsions:
REMARK  status: ('A' for Active; 'I' for Inactive)
REMARK    1  A    between atoms: C_4  and  N_5
REMARK    2  A    between atoms: C_10  and  C_11
REMARK    3  A    between atoms: C_11  and  N_12
REMARK    4  A    between atoms: C_13  and  C_15
REMARK                            x       y       z     vdW  Elec       q    Type
REMARK                         _______ _______ _______ _____ _____    ______ ____
ROOT
ATOM      1  N   UNL     1       3.996   6.034  18.257  0.00  0.00    +0.000 N 
ATOM      2  C   UNL     1       3.550   5.365  19.477  0.00  0.00    +0.000 C 
ATOM      3  C   UNL     1       2.511   6.062  20.344  0.00  0.00    +0.000 C 
ATOM      4  N   UNL     1       2.041   7.325  19.849  0.00  0.00    +0.000 N 
ATOM      5  N   UNL     1       1.121   8.019  20.544  0.00  0.00    +0.000 NA
ATOM      6  C   UNL     1       0.905   9.108  19.786  0.00  0.00    +0.000 A 
ATOM      7  C   UNL     1       1.717   9.095  18.624  0.00  0.00    +0.000 A 
ATOM      8  C   UNL     1       2.435   7.923  18.698  0.00  0.00    +0.000 A 
ATOM      9  C   UNL     1       3.445   7.307  17.806  0.00  0.00    +0.000 C 
ENDROOT
BRANCH   1  13
ATOM     10  N   UNL     1       5.478   4.244  14.031  0.00  0.00    +0.000 N 
ATOM     11  C   UNL     1       5.712   4.585  15.365  0.00  0.00    +0.000 A 
ATOM     12  C   UNL     1       4.715   5.179  16.103  0.00  0.00    +0.000 A 
ATOM     13  C   UNL     1       4.960   5.445  17.436  0.00  0.00    +0.000 A 
ATOM     14  N   UNL     1       6.153   5.118  17.966  0.00  0.00    +0.000 NA
ATOM     15  C   UNL     1       7.067   4.549  17.170  0.00  0.00    +0.000 A 
ATOM     16  N   UNL     1       8.273   4.191  17.741  0.00  0.00    +0.000 N 
ATOM     17  N   UNL     1       6.890   4.249  15.886  0.00  0.00    +0.000 NA
ATOM     18  H   UNL     1       5.111   5.021  13.493  0.00  0.00    +0.000 HD
ATOM     19  H   UNL     1       6.348   3.887  13.643  0.00  0.00    +0.000 HD
ATOM     20  H   UNL     1       8.147   4.057  18.736  0.00  0.00    +0.000 HD
ATOM     21  H   UNL     1       8.674   3.421  17.221  0.00  0.00    +0.000 HD
ENDBRANCH   1  13
BRANCH   6  22
ATOM     22  C   UNL     1      -0.116  10.129  20.166  0.00  0.00    +0.000 C 
BRANCH  22  23
ATOM     23  N   UNL     1      -1.065  10.328  19.089  0.00  0.00    +0.000 N 
ATOM     24  C   UNL     1      -1.163  11.527  18.420  0.00  0.00    +0.000 C 
ATOM     25  O   UNL     1      -0.483  12.509  18.701  0.00  0.00    +0.000 OA
ATOM     26  H   UNL     1      -1.791   9.635  18.985  0.00  0.00    +0.000 HD
BRANCH  24  27
ATOM     27  C   UNL     1      -2.174  11.505  17.282  0.00  0.00    +0.000 C 
ATOM     28  C   UNL     1      -2.171  10.203  16.485  0.00  0.00    +0.000 C 
ATOM     29  C   UNL     1      -3.531  10.182  15.800  0.00  0.00    +0.000 C 
ATOM     30  C   UNL     1      -4.476  10.941  16.725  0.00  0.00    +0.000 C 
ATOM     31  C   UNL     1      -3.608  11.570  17.809  0.00  0.00    +0.000 C 
ENDBRANCH  24  27
ENDBRANCH  22  23
ENDBRANCH   6  22
TORSDOF 4
ENDMDL
MODEL 9
REMARK VINA RESULT:      -8.0      0.542      1.578
REMARK  Name = 
REMARK  4 active torsions:
REMARK  status: ('A' for Active; 'I' for Inactive)
REMARK    1  A    between atoms: C_4  and  N_5
REMARK    2  A    between atoms: C_10  and  C_11
REMARK    3  A    between atoms: C_11  and  N_12
REMARK    4  A    between atoms: C_13  and  C_15
REMARK                            x       y       z     vdW  Elec       q    Type
REMARK                         _______ _______ _______ _____ _____    ______ ____
ROOT
ATOM      1  N   UNL     1       2.313   6.735  19.508  0.00  0.00    +0.000 N 
ATOM      2  C   UNL     1       2.656   7.265  18.190  0.00  0.00    +0.000 C 
ATOM      3  C   UNL     1       2.191   8.671  17.834  0.00  0.00    +0.000 C 
ATOM      4  N   UNL     1       1.471   9.362  18.864  0.00  0.00    +0.000 N 
ATOM      5  N   UNL     1       1.018  10.612  18.646  0.00  0.00    +0.000 NA
ATOM      6  C   UNL     1       0.431  10.944  19.809  0.00  0.00    +0.000 A 
ATOM      7  C   UNL     1       0.502   9.881  20.744  0.00  0.00    +0.000 A 
ATOM      8  C   UNL     1       1.187   8.877  20.097  0.00  0.00    +0.000 A 
ATOM      9  C   UNL     1       1.601   7.516  20.514  0.00  0.00    +0.000 C 
ENDROOT
BRANCH   1  13
ATOM     10  N   UNL     1       5.201   2.890  19.159  0.00  0.00    +0.000 N 
ATOM     11  C   UNL     1       4.120   3.559  19.737  0.00  0.00    +0.000 A 
ATOM     12  C   UNL     1       3.812   4.837  19.330  0.00  0.00    +0.000 A 
ATOM     13  C   UNL     1       2.700   5.446  19.877  0.00  0.00    +0.000 A 
ATOM     14  N   UNL     1       1.958   4.778  20.780  0.00  0.00    +0.000 NA
ATOM     15  C   UNL     1       2.338   3.540  21.121  0.00  0.00    +0.000 A 
ATOM     16  N   UNL     1       1.544   2.858  22.025  0.00  0.00    +0.000 N 
ATOM     17  N   UNL     1       3.384   2.890  20.621  0.00  0.00    +0.000 NA
ATOM     18  H   UNL     1       6.053   3.439  19.183  0.00  0.00    +0.000 HD
ATOM     19  H   UNL     1       5.307   1.998  19.639  0.00  0.00    +0.000 HD
ATOM     20  H   UNL     1       0.605   3.235  21.999  0.00  0.00    +0.000 HD
ATOM     21  H   UNL     1       1.644   1.863  21.873  0.00  0.00    +0.000 HD
ENDBRANCH   1  13
BRANCH   6  22
ATOM     22  C   UNL     1      -0.154  12.302  20.023  0.00  0.00    +0.000 C 
BRANCH  22  23
ATOM     23  N   UNL     1      -0.923  12.338  21.250  0.00  0.00    +0.000 N 
ATOM     24  C   UNL     1      -0.548  13.120  22.320  0.00  0.00    +0.000 C 
ATOM     25  O   UNL     1       0.464  13.812  22.321  0.00  0.00    +0.000 OA
ATOM     26  H   UNL     1      -1.620  11.618  21.375  0.00  0.00    +0.000 HD
BRANCH  24  27
ATOM     27  C   UNL     1      -1.527  13.063  23.484  0.00  0.00    +0.000 C 
ATOM     28  C   UNL     1      -2.142  14.416  23.835  0.00  0.00    +0.000 C 
ATOM     29  C   UNL     1      -3.408  14.064  24.604  0.00  0.00    +0.000 C 
ATOM     30  C   UNL     1      -3.870  12.719  24.051  0.00  0.00    +0.000 C 
ATOM     31  C   UNL     1      -2.755  12.220  23.139  0.00  0.00    +0.000 C 
ENDBRANCH  24  27
ENDBRANCH  22  23
ENDBRANCH   6  22
TORSDOF 4
ENDMDL
