MODEL 1
REMARK VINA RESULT:      -7.3      0.000      0.000
REMARK  Name = 
REMARK  9 active torsions:
REMARK  status: ('A' for Active; 'I' for Inactive)
REMARK    1  A    between atoms: C_1  and  O_2
REMARK    2  A    between atoms: O_2  and  C_3
REMARK    3  A    between atoms: C_6  and  O_7
REMARK    4  A    between atoms: O_7  and  C_8
REMARK    5  A    between atoms: C_9  and  C_10
REMARK    6  A    between atoms: C_10  and  C_12
REMARK    7  A    between atoms: C_13  and  C_14
REMARK    8  A    between atoms: C_17  and  O_18
REMARK    9  A    between atoms: C_19  and  O_20
REMARK                            x       y       z     vdW  Elec       q    Type
REMARK                         _______ _______ _______ _____ _____    ______ ____
ROOT
ATOM      1  C   UNL     1       4.187   4.009  18.305  0.00  0.00    +0.000 C 
ATOM      2  O   UNL     1       3.877   2.844  18.567  0.00  0.00    +0.000 OA
ENDROOT
BRANCH   1   7
ATOM      3  C   UNL     1       5.645   4.278  14.849  0.00  0.00    +0.000 A 
ATOM      4  C   UNL     1       6.984   4.563  15.081  0.00  0.00    +0.000 A 
ATOM      5  C   UNL     1       7.460   4.700  16.385  0.00  0.00    +0.000 A 
ATOM      6  C   UNL     1       6.612   4.530  17.494  0.00  0.00    +0.000 A 
ATOM      7  C   UNL     1       5.247   4.260  17.271  0.00  0.00    +0.000 A 
ATOM      8  C   UNL     1       4.789   4.143  15.938  0.00  0.00    +0.000 A 
BRANCH   3  10
ATOM      9  C   UNL     1       6.231   3.481  12.690  0.00  0.00    +0.000 C 
ATOM     10  O   UNL     1       5.300   4.149  13.533  0.00  0.00    +0.000 OA
ENDBRANCH   3  10
BRANCH   6  11
ATOM     11  O   UNL     1       7.076   4.637  18.777  0.00  0.00    +0.000 OA
ATOM     12  C   UNL     1       7.603   5.901  19.175  0.00  0.00    +0.000 C 
ENDBRANCH   6  11
ENDBRANCH   1   7
BRANCH   1  13
ATOM     13  C   UNL     1       3.480   5.112  19.003  0.00  0.00    +0.000 C 
ATOM     14  C   UNL     1       2.983   6.123  18.271  0.00  0.00    +0.000 C 
BRANCH  14  15
ATOM     15  C   UNL     1       2.346   7.311  18.847  0.00  0.00    +0.000 A 
ATOM     16  C   UNL     1       1.962   7.312  20.200  0.00  0.00    +0.000 A 
ATOM     17  C   UNL     1       1.302   8.413  20.758  0.00  0.00    +0.000 A 
ATOM     18  C   UNL     1       1.017   9.512  19.955  0.00  0.00    +0.000 A 
ATOM     19  C   UNL     1       1.382   9.506  18.611  0.00  0.00    +0.000 A 
ATOM     20  C   UNL     1       2.033   8.420  18.052  0.00  0.00    +0.000 A 
BRANCH  18  21
ATOM     21  O   UNL     1       0.372  10.616  20.433  0.00  0.00    +0.000 OA
ATOM     22  H   UNL     1       0.493  11.339  19.792  0.00  0.00    +0.000 HD
ENDBRANCH  18  21
BRANCH  19  23
ATOM     23  O   UNL     1       1.090  10.580  17.819  0.00  0.00    +0.000 OA
ATOM     24  H   UNL     1       0.612  10.199  17.059  0.00  0.00    +0.000 HD
ENDBRANCH  19  23
ENDBRANCH  14  15
ENDBRANCH   1  13
TORSDOF 7
ENDMDL
MODEL 2
REMARK VINA RESULT:      -7.3      0.680      1.437
REMARK  Name = 
REMARK  9 active torsions:
REMARK  status: ('A' for Active; 'I' for Inactive)
REMARK    1  A    between atoms: C_1  and  O_2
REMARK    2  A    between atoms: O_2  and  C_3
REMARK    3  A    between atoms: C_6  and  O_7
REMARK    4  A    between atoms: O_7  and  C_8
REMARK    5  A    between atoms: C_9  and  C_10
REMARK    6  A    between atoms: C_10  and  C_12
REMARK    7  A    between atoms: C_13  and  C_14
REMARK    8  A    between atoms: C_17  and  O_18
REMARK    9  A    between atoms: C_19  and  O_20
REMARK                            x       y       z     vdW  Elec       q    Type
REMARK                         _______ _______ _______ _____ _____    ______ ____
ROOT
ATOM      1  C   UNL     1       3.905   4.136  18.459  0.00  0.00    +0.000 C 
ATOM      2  O   UNL     1       3.815   3.076  19.083  0.00  0.00    +0.000 OA
ENDROOT
BRANCH   1   7
ATOM      3  C   UNL     1       5.627   4.195  15.116  0.00  0.00    +0.000 A 
ATOM      4  C   UNL     1       6.948   4.475  15.436  0.00  0.00    +0.000 A 
ATOM      5  C   UNL     1       7.326   4.679  16.764  0.00  0.00    +0.000 A 
ATOM      6  C   UNL     1       6.393   4.581  17.811  0.00  0.00    +0.000 A 
ATOM      7  C   UNL     1       5.045   4.317  17.499  0.00  0.00    +0.000 A 
ATOM      8  C   UNL     1       4.688   4.131  16.142  0.00  0.00    +0.000 A 
BRANCH   3  10
ATOM      9  C   UNL     1       6.516   3.827  12.946  0.00  0.00    +0.000 C 
ATOM     10  O   UNL     1       5.381   3.997  13.788  0.00  0.00    +0.000 OA
ENDBRANCH   3  10
BRANCH   6  11
ATOM     11  O   UNL     1       6.759   4.754  19.118  0.00  0.00    +0.000 OA
ATOM     12  C   UNL     1       7.726   5.764  19.396  0.00  0.00    +0.000 C 
ENDBRANCH   6  11
ENDBRANCH   1   7
BRANCH   1  13
ATOM     13  C   UNL     1       2.867   5.178  18.665  0.00  0.00    +0.000 C 
ATOM     14  C   UNL     1       3.237   6.469  18.645  0.00  0.00    +0.000 C 
BRANCH  14  15
ATOM     15  C   UNL     1       2.326   7.583  18.924  0.00  0.00    +0.000 A 
ATOM     16  C   UNL     1       1.983   8.481  17.896  0.00  0.00    +0.000 A 
ATOM     17  C   UNL     1       1.160   9.583  18.151  0.00  0.00    +0.000 A 
ATOM     18  C   UNL     1       0.687   9.793  19.443  0.00  0.00    +0.000 A 
ATOM     19  C   UNL     1       1.038   8.915  20.464  0.00  0.00    +0.000 A 
ATOM     20  C   UNL     1       1.854   7.823  20.220  0.00  0.00    +0.000 A 
BRANCH  18  21
ATOM     21  O   UNL     1      -0.115  10.850  19.762  0.00  0.00    +0.000 OA
ATOM     22  H   UNL     1       0.169  11.617  19.232  0.00  0.00    +0.000 HD
ENDBRANCH  18  21
BRANCH  19  23
ATOM     23  O   UNL     1       0.585   9.128  21.735  0.00  0.00    +0.000 OA
ATOM     24  H   UNL     1       0.708   8.272  22.185  0.00  0.00    +0.000 HD
ENDBRANCH  19  23
ENDBRANCH  14  15
ENDBRANCH   1  13
TORSDOF 7
ENDMDL
MODEL 3
REMARK VINA RESULT:      -7.2      4.439      6.348
REMARK  Name = 
REMARK  9 active torsions:
REMARK  status: ('A' for Active; 'I' for Inactive)
REMARK    1  A    between atoms: C_1  and  O_2
REMARK    2  A    between atoms: O_2  and  C_3
REMARK    3  A    between atoms: C_6  and  O_7
REMARK    4  A    between atoms: O_7  and  C_8
REMARK    5  A    between atoms: C_9  and  C_10
REMARK    6  A    between atoms: C_10  and  C_12
REMARK    7  A    between atoms: C_13  and  C_14
REMARK    8  A    between atoms: C_17  and  O_18
REMARK    9  A    between atoms: C_19  and  O_20
REMARK                            x       y       z     vdW  Elec       q    Type
REMARK                         _______ _______ _______ _____ _____    ______ ____
ROOT
ATOM      1  C   UNL     1       7.558   6.813  18.134  0.00  0.00    +0.000 C 
ATOM      2  O   UNL     1       8.198   6.326  19.069  0.00  0.00    +0.000 OA
ENDROOT
BRANCH   1   7
ATOM      3  C   UNL     1       4.261   5.007  18.006  0.00  0.00    +0.000 A 
ATOM      4  C   UNL     1       4.244   4.452  16.734  0.00  0.00    +0.000 A 
ATOM      5  C   UNL     1       5.306   4.665  15.855  0.00  0.00    +0.000 A 
ATOM      6  C   UNL     1       6.429   5.421  16.237  0.00  0.00    +0.000 A 
ATOM      7  C   UNL     1       6.450   6.007  17.518  0.00  0.00    +0.000 A 
ATOM      8  C   UNL     1       5.351   5.787  18.382  0.00  0.00    +0.000 A 
BRANCH   3  10
ATOM      9  C   UNL     1       1.923   4.610  18.114  0.00  0.00    +0.000 C 
ATOM     10  O   UNL     1       3.176   4.715  18.781  0.00  0.00    +0.000 OA
ENDBRANCH   3  10
BRANCH   6  11
ATOM     11  O   UNL     1       7.487   5.614  15.391  0.00  0.00    +0.000 OA
ATOM     12  C   UNL     1       7.377   5.074  14.077  0.00  0.00    +0.000 C 
ENDBRANCH   6  11
ENDBRANCH   1   7
BRANCH   1  13
ATOM     13  C   UNL     1       7.892   8.185  17.675  0.00  0.00    +0.000 C 
ATOM     14  C   UNL     1       8.662   8.956  18.461  0.00  0.00    +0.000 C 
BRANCH  14  15
ATOM     15  C   UNL     1       8.987  10.355  18.163  0.00  0.00    +0.000 A 
ATOM     16  C   UNL     1      10.287  10.837  18.400  0.00  0.00    +0.000 A 
ATOM     17  C   UNL     1      10.607  12.180  18.176  0.00  0.00    +0.000 A 
ATOM     18  C   UNL     1       9.616  13.047  17.724  0.00  0.00    +0.000 A 
ATOM     19  C   UNL     1       8.325  12.576  17.505  0.00  0.00    +0.000 A 
ATOM     20  C   UNL     1       8.002  11.248  17.725  0.00  0.00    +0.000 A 
BRANCH  18  21
ATOM     21  O   UNL     1       9.858  14.370  17.490  0.00  0.00    +0.000 OA
ATOM     22  H   UNL     1       9.295  14.892  18.091  0.00  0.00    +0.000 HD
ENDBRANCH  18  21
BRANCH  19  23
ATOM     23  O   UNL     1       7.350  13.429  17.073  0.00  0.00    +0.000 OA
ATOM     24  H   UNL     1       7.249  13.225  16.125  0.00  0.00    +0.000 HD
ENDBRANCH  19  23
ENDBRANCH  14  15
ENDBRANCH   1  13
TORSDOF 7
ENDMDL
MODEL 4
REMARK VINA RESULT:      -7.0      4.172      5.698
REMARK  Name = 
REMARK  9 active torsions:
REMARK  status: ('A' for Active; 'I' for Inactive)
REMARK    1  A    between atoms: C_1  and  O_2
REMARK    2  A    between atoms: O_2  and  C_3
REMARK    3  A    between atoms: C_6  and  O_7
REMARK    4  A    between atoms: O_7  and  C_8
REMARK    5  A    between atoms: C_9  and  C_10
REMARK    6  A    between atoms: C_10  and  C_12
REMARK    7  A    between atoms: C_13  and  C_14
REMARK    8  A    between atoms: C_17  and  O_18
REMARK    9  A    between atoms: C_19  and  O_20
REMARK                            x       y       z     vdW  Elec       q    Type
REMARK                         _______ _______ _______ _____ _____    ______ ____
ROOT
ATOM      1  C   UNL     1       7.513   6.526  18.050  0.00  0.00    +0.000 C 
ATOM      2  O   UNL     1       7.975   5.985  19.058  0.00  0.00    +0.000 OA
ENDROOT
BRANCH   1   7
ATOM      3  C   UNL     1       6.555   4.833  14.831  0.00  0.00    +0.000 A 
ATOM      4  C   UNL     1       5.290   4.327  15.094  0.00  0.00    +0.000 A 
ATOM      5  C   UNL     1       4.705   4.501  16.349  0.00  0.00    +0.000 A 
ATOM      6  C   UNL     1       5.364   5.212  17.368  0.00  0.00    +0.000 A 
ATOM      7  C   UNL     1       6.657   5.714  17.121  0.00  0.00    +0.000 A 
ATOM      8  C   UNL     1       7.232   5.508  15.844  0.00  0.00    +0.000 A 
BRANCH   3  10
ATOM      9  C   UNL     1       6.322   3.644  12.790  0.00  0.00    +0.000 C 
ATOM     10  O   UNL     1       7.015   4.616  13.564  0.00  0.00    +0.000 OA
ENDBRANCH   3  10
BRANCH   6  11
ATOM     11  O   UNL     1       4.789   5.410  18.594  0.00  0.00    +0.000 OA
ATOM     12  C   UNL     1       4.560   4.257  19.400  0.00  0.00    +0.000 C 
ENDBRANCH   6  11
ENDBRANCH   1   7
BRANCH   1  13
ATOM     13  C   UNL     1       7.801   7.963  17.813  0.00  0.00    +0.000 C 
ATOM     14  C   UNL     1       8.632   8.601  18.655  0.00  0.00    +0.000 C 
BRANCH  14  15
ATOM     15  C   UNL     1       8.924  10.035  18.582  0.00  0.00    +0.000 A 
ATOM     16  C   UNL     1       9.864  10.605  19.461  0.00  0.00    +0.000 A 
ATOM     17  C   UNL     1      10.119  11.980  19.447  0.00  0.00    +0.000 A 
ATOM     18  C   UNL     1       9.422  12.790  18.556  0.00  0.00    +0.000 A 
ATOM     19  C   UNL     1       8.480  12.232  17.696  0.00  0.00    +0.000 A 
ATOM     20  C   UNL     1       8.221  10.872  17.706  0.00  0.00    +0.000 A 
BRANCH  18  21
ATOM     21  O   UNL     1       9.617  14.140  18.493  0.00  0.00    +0.000 OA
ATOM     22  H   UNL     1       9.165  14.475  17.698  0.00  0.00    +0.000 HD
ENDBRANCH  18  21
BRANCH  19  23
ATOM     23  O   UNL     1       7.786  13.029  16.831  0.00  0.00    +0.000 OA
ATOM     24  H   UNL     1       8.191  12.854  15.961  0.00  0.00    +0.000 HD
ENDBRANCH  19  23
ENDBRANCH  14  15
ENDBRANCH   1  13
TORSDOF 7
ENDMDL
MODEL 5
REMARK VINA RESULT:      -7.0      4.615      6.693
REMARK  Name = 
REMARK  9 active torsions:
REMARK  status: ('A' for Active; 'I' for Inactive)
REMARK    1  A    between atoms: C_1  and  O_2
REMARK    2  A    between atoms: O_2  and  C_3
REMARK    3  A    between atoms: C_6  and  O_7
REMARK    4  A    between atoms: O_7  and  C_8
REMARK    5  A    between atoms: C_9  and  C_10
REMARK    6  A    between atoms: C_10  and  C_12
REMARK    7  A    between atoms: C_13  and  C_14
REMARK    8  A    between atoms: C_17  and  O_18
REMARK    9  A    between atoms: C_19  and  O_20
REMARK                            x       y       z     vdW  Elec       q    Type
REMARK                         _______ _______ _______ _____ _____    ______ ____
ROOT
ATOM      1  C   UNL     1       7.601   6.791  18.189  0.00  0.00    +0.000 C 
ATOM      2  O   UNL     1       8.294   6.271  19.066  0.00  0.00    +0.000 OA
ENDROOT
BRANCH   1   7
ATOM      3  C   UNL     1       4.293   5.002  18.211  0.00  0.00    +0.000 A 
ATOM      4  C   UNL     1       4.190   4.493  16.924  0.00  0.00    +0.000 A 
ATOM      5  C   UNL     1       5.194   4.735  15.985  0.00  0.00    +0.000 A 
ATOM      6  C   UNL     1       6.343   5.473  16.321  0.00  0.00    +0.000 A 
ATOM      7  C   UNL     1       6.451   6.012  17.618  0.00  0.00    +0.000 A 
ATOM      8  C   UNL     1       5.409   5.764  18.544  0.00  0.00    +0.000 A 
BRANCH   3  10
ATOM      9  C   UNL     1       2.619   5.768  19.710  0.00  0.00    +0.000 C 
ATOM     10  O   UNL     1       3.259   4.685  19.045  0.00  0.00    +0.000 OA
ENDBRANCH   3  10
BRANCH   6  11
ATOM     11  O   UNL     1       7.344   5.694  15.415  0.00  0.00    +0.000 OA
ATOM     12  C   UNL     1       7.279   4.979  14.184  0.00  0.00    +0.000 C 
ENDBRANCH   6  11
ENDBRANCH   1   7
BRANCH   1  13
ATOM     13  C   UNL     1       7.916   8.175  17.754  0.00  0.00    +0.000 C 
ATOM     14  C   UNL     1       8.665   8.948  18.559  0.00  0.00    +0.000 C 
BRANCH  14  15
ATOM     15  C   UNL     1       8.970  10.356  18.286  0.00  0.00    +0.000 A 
ATOM     16  C   UNL     1       7.990  11.185  17.709  0.00  0.00    +0.000 A 
ATOM     17  C   UNL     1       8.274  12.517  17.388  0.00  0.00    +0.000 A 
ATOM     18  C   UNL     1       9.549  13.017  17.637  0.00  0.00    +0.000 A 
ATOM     19  C   UNL     1      10.524  12.194  18.192  0.00  0.00    +0.000 A 
ATOM     20  C   UNL     1      10.251  10.875  18.511  0.00  0.00    +0.000 A 
BRANCH  18  21
ATOM     21  O   UNL     1       9.895  14.304  17.343  0.00  0.00    +0.000 OA
ATOM     22  H   UNL     1       9.958  14.388  16.375  0.00  0.00    +0.000 HD
ENDBRANCH  18  21
BRANCH  19  23
ATOM     23  O   UNL     1      11.779  12.682  18.424  0.00  0.00    +0.000 OA
ATOM     24  H   UNL     1      12.154  12.081  19.095  0.00  0.00    +0.000 HD
ENDBRANCH  19  23
ENDBRANCH  14  15
ENDBRANCH   1  13
TORSDOF 7
ENDMDL
MODEL 6
REMARK VINA RESULT:      -7.0      1.168      1.546
REMARK  Name = 
REMARK  9 active torsions:
REMARK  status: ('A' for Active; 'I' for Inactive)
REMARK    1  A    between atoms: C_1  and  O_2
REMARK    2  A    between atoms: O_2  and  C_3
REMARK    3  A    between atoms: C_6  and  O_7
REMARK    4  A    between atoms: O_7  and  C_8
REMARK    5  A    between atoms: C_9  and  C_10
REMARK    6  A    between atoms: C_10  and  C_12
REMARK    7  A    between atoms: C_13  and  C_14
REMARK    8  A    between atoms: C_17  and  O_18
REMARK    9  A    between atoms: C_19  and  O_20
REMARK                            x       y       z     vdW  Elec       q    Type
REMARK                         _______ _______ _______ _____ _____    ______ ____
ROOT
ATOM      1  C   UNL     1       3.109   4.446  17.436  0.00  0.00    +0.000 C 
ATOM      2  O   UNL     1       2.563   3.387  17.119  0.00  0.00    +0.000 OA
ENDROOT
BRANCH   1   7
ATOM      3  C   UNL     1       6.403   4.949  15.691  0.00  0.00    +0.000 A 
ATOM      4  C   UNL     1       7.338   4.737  16.695  0.00  0.00    +0.000 A 
ATOM      5  C   UNL     1       6.926   4.440  17.994  0.00  0.00    +0.000 A 
ATOM      6  C   UNL     1       5.562   4.323  18.317  0.00  0.00    +0.000 A 
ATOM      7  C   UNL     1       4.602   4.556  17.313  0.00  0.00    +0.000 A 
ATOM      8  C   UNL     1       5.050   4.871  16.008  0.00  0.00    +0.000 A 
BRANCH   3  10
ATOM      9  C   UNL     1       6.625   4.284  13.423  0.00  0.00    +0.000 C 
ATOM     10  O   UNL     1       6.926   5.214  14.458  0.00  0.00    +0.000 OA
ENDBRANCH   3  10
BRANCH   6  11
ATOM     11  O   UNL     1       5.149   4.007  19.583  0.00  0.00    +0.000 OA
ATOM     12  C   UNL     1       4.611   2.702  19.786  0.00  0.00    +0.000 C 
ENDBRANCH   6  11
ENDBRANCH   1   7
BRANCH   1  13
ATOM     13  C   UNL     1       2.266   5.576  17.899  0.00  0.00    +0.000 C 
ATOM     14  C   UNL     1       2.868   6.658  18.421  0.00  0.00    +0.000 C 
BRANCH  14  15
ATOM     15  C   UNL     1       2.145   7.797  18.994  0.00  0.00    +0.000 A 
ATOM     16  C   UNL     1       1.765   7.776  20.349  0.00  0.00    +0.000 A 
ATOM     17  C   UNL     1       1.026   8.826  20.904  0.00  0.00    +0.000 A 
ATOM     18  C   UNL     1       0.658   9.898  20.097  0.00  0.00    +0.000 A 
ATOM     19  C   UNL     1       1.019   9.913  18.753  0.00  0.00    +0.000 A 
ATOM     20  C   UNL     1       1.748   8.877  18.196  0.00  0.00    +0.000 A 
BRANCH  18  21
ATOM     21  O   UNL     1      -0.067  10.952  20.573  0.00  0.00    +0.000 OA
ATOM     22  H   UNL     1      -1.005  10.690  20.595  0.00  0.00    +0.000 HD
ENDBRANCH  18  21
BRANCH  19  23
ATOM     23  O   UNL     1       0.645  10.959  17.957  0.00  0.00    +0.000 OA
ATOM     24  H   UNL     1       1.080  10.782  17.102  0.00  0.00    +0.000 HD
ENDBRANCH  19  23
ENDBRANCH  14  15
ENDBRANCH   1  13
TORSDOF 7
ENDMDL
MODEL 7
REMARK VINA RESULT:      -7.0      2.582      8.694
REMARK  Name = 
REMARK  9 active torsions:
REMARK  status: ('A' for Active; 'I' for Inactive)
REMARK    1  A    between atoms: C_1  and  O_2
REMARK    2  A    between atoms: O_2  and  C_3
REMARK    3  A    between atoms: C_6  and  O_7
REMARK    4  A    between atoms: O_7  and  C_8
REMARK    5  A    between atoms: C_9  and  C_10
REMARK    6  A    between atoms: C_10  and  C_12
REMARK    7  A    between atoms: C_13  and  C_14
REMARK    8  A    between atoms: C_17  and  O_18
REMARK    9  A    between atoms: C_19  and  O_20
REMARK                            x       y       z     vdW  Elec       q    Type
REMARK                         _______ _______ _______ _____ _____    ______ ____
ROOT
ATOM      1  C   UNL     1       1.660   9.499  18.154  0.00  0.00    +0.000 C 
ATOM      2  O   UNL     1       2.387  10.089  17.352  0.00  0.00    +0.000 OA
ENDROOT
BRANCH   1   7
ATOM      3  C   UNL     1      -0.068  11.544  20.795  0.00  0.00    +0.000 A 
ATOM      4  C   UNL     1      -1.369  11.652  20.323  0.00  0.00    +0.000 A 
ATOM      5  C   UNL     1      -1.729  11.075  19.105  0.00  0.00    +0.000 A 
ATOM      6  C   UNL     1      -0.800  10.351  18.338  0.00  0.00    +0.000 A 
ATOM      7  C   UNL     1       0.529  10.251  18.796  0.00  0.00    +0.000 A 
ATOM      8  C   UNL     1       0.870  10.860  20.027  0.00  0.00    +0.000 A 
BRANCH   3  10
ATOM      9  C   UNL     1      -0.980  12.615  22.708  0.00  0.00    +0.000 C 
ATOM     10  O   UNL     1       0.161  12.133  22.006  0.00  0.00    +0.000 OA
ENDBRANCH   3  10
BRANCH   6  11
ATOM     11  O   UNL     1      -1.150   9.760  17.155  0.00  0.00    +0.000 OA
ATOM     12  C   UNL     1      -2.454  10.037  16.648  0.00  0.00    +0.000 C 
ENDBRANCH   6  11
ENDBRANCH   1   7
BRANCH   1  13
ATOM     13  C   UNL     1       1.917   8.063  18.431  0.00  0.00    +0.000 C 
ATOM     14  C   UNL     1       2.979   7.476  17.854  0.00  0.00    +0.000 C 
BRANCH  14  15
ATOM     15  C   UNL     1       3.288   6.048  17.976  0.00  0.00    +0.000 A 
ATOM     16  C   UNL     1       2.248   5.102  17.949  0.00  0.00    +0.000 A 
ATOM     17  C   UNL     1       2.513   3.739  18.119  0.00  0.00    +0.000 A 
ATOM     18  C   UNL     1       3.824   3.323  18.327  0.00  0.00    +0.000 A 
ATOM     19  C   UNL     1       4.853   4.259  18.371  0.00  0.00    +0.000 A 
ATOM     20  C   UNL     1       4.598   5.610  18.205  0.00  0.00    +0.000 A 
BRANCH  18  21
ATOM     21  O   UNL     1       4.152   2.010  18.506  0.00  0.00    +0.000 OA
ATOM     22  H   UNL     1       3.329   1.488  18.499  0.00  0.00    +0.000 HD
ENDBRANCH  18  21
BRANCH  19  23
ATOM     23  O   UNL     1       6.139   3.852  18.589  0.00  0.00    +0.000 OA
ATOM     24  H   UNL     1       6.677   4.650  18.431  0.00  0.00    +0.000 HD
ENDBRANCH  19  23
ENDBRANCH  14  15
ENDBRANCH   1  13
TORSDOF 7
ENDMDL
MODEL 8
REMARK VINA RESULT:      -6.9      2.586      8.119
REMARK  Name = 
REMARK  9 active torsions:
REMARK  status: ('A' for Active; 'I' for Inactive)
REMARK    1  A    between atoms: C_1  and  O_2
REMARK    2  A    between atoms: O_2  and  C_3
REMARK    3  A    between atoms: C_6  and  O_7
REMARK    4  A    between atoms: O_7  and  C_8
REMARK    5  A    between atoms: C_9  and  C_10
REMARK    6  A    between atoms: C_10  and  C_12
REMARK    7  A    between atoms: C_13  and  C_14
REMARK    8  A    between atoms: C_17  and  O_18
REMARK    9  A    between atoms: C_19  and  O_20
REMARK                            x       y       z     vdW  Elec       q    Type
REMARK                         _______ _______ _______ _____ _____    ______ ____
ROOT
ATOM      1  C   UNL     1       1.470   9.507  17.984  0.00  0.00    +0.000 C 
ATOM      2  O   UNL     1       2.408  10.236  17.655  0.00  0.00    +0.000 OA
ENDROOT
BRANCH   1   7
ATOM      3  C   UNL     1      -2.145  10.503  17.689  0.00  0.00    +0.000 A 
ATOM      4  C   UNL     1      -2.365  11.271  18.824  0.00  0.00    +0.000 A 
ATOM      5  C   UNL     1      -1.339  11.477  19.747  0.00  0.00    +0.000 A 
ATOM      6  C   UNL     1      -0.056  10.939  19.544  0.00  0.00    +0.000 A 
ATOM      7  C   UNL     1       0.175  10.141  18.406  0.00  0.00    +0.000 A 
ATOM      8  C   UNL     1      -0.889   9.936  17.495  0.00  0.00    +0.000 A 
BRANCH   3  10
ATOM      9  C   UNL     1      -2.936  10.049  15.497  0.00  0.00    +0.000 C 
ATOM     10  O   UNL     1      -3.217  10.387  16.851  0.00  0.00    +0.000 OA
ENDBRANCH   3  10
BRANCH   6  11
ATOM     11  O   UNL     1       0.963  11.156  20.431  0.00  0.00    +0.000 OA
ATOM     12  C   UNL     1       1.481  12.482  20.516  0.00  0.00    +0.000 C 
ENDBRANCH   6  11
ENDBRANCH   1   7
BRANCH   1  13
ATOM     13  C   UNL     1       1.651   8.035  17.923  0.00  0.00    +0.000 C 
ATOM     14  C   UNL     1       2.847   7.519  18.254  0.00  0.00    +0.000 C 
BRANCH  14  15
ATOM     15  C   UNL     1       3.178   6.095  18.148  0.00  0.00    +0.000 A 
ATOM     16  C   UNL     1       2.162   5.157  17.889  0.00  0.00    +0.000 A 
ATOM     17  C   UNL     1       2.445   3.788  17.839  0.00  0.00    +0.000 A 
ATOM     18  C   UNL     1       3.749   3.356  18.059  0.00  0.00    +0.000 A 
ATOM     19  C   UNL     1       4.753   4.281  18.331  0.00  0.00    +0.000 A 
ATOM     20  C   UNL     1       4.480   5.637  18.384  0.00  0.00    +0.000 A 
BRANCH  18  21
ATOM     21  O   UNL     1       4.093   2.035  18.030  0.00  0.00    +0.000 OA
ATOM     22  H   UNL     1       4.918   1.948  17.519  0.00  0.00    +0.000 HD
ENDBRANCH  18  21
BRANCH  19  23
ATOM     23  O   UNL     1       6.030   3.856  18.560  0.00  0.00    +0.000 OA
ATOM     24  H   UNL     1       6.002   2.896  18.390  0.00  0.00    +0.000 HD
ENDBRANCH  19  23
ENDBRANCH  14  15
ENDBRANCH   1  13
TORSDOF 7
ENDMDL
MODEL 9
REMARK VINA RESULT:      -6.9      2.903      8.509
REMARK  Name = 
REMARK  9 active torsions:
REMARK  status: ('A' for Active; 'I' for Inactive)
REMARK    1  A    between atoms: C_1  and  O_2
REMARK    2  A    between atoms: O_2  and  C_3
REMARK    3  A    between atoms: C_6  and  O_7
REMARK    4  A    between atoms: O_7  and  C_8
REMARK    5  A    between atoms: C_9  and  C_10
REMARK    6  A    between atoms: C_10  and  C_12
REMARK    7  A    between atoms: C_13  and  C_14
REMARK    8  A    between atoms: C_17  and  O_18
REMARK    9  A    between atoms: C_19  and  O_20
REMARK                            x       y       z     vdW  Elec       q    Type
REMARK                         _______ _______ _______ _____ _____    ______ ____
ROOT
ATOM      1  C   UNL     1       1.638   8.920  18.387  0.00  0.00    +0.000 C 
ATOM      2  O   UNL     1       2.278   9.437  17.468  0.00  0.00    +0.000 OA
ENDROOT
BRANCH   1   7
ATOM      3  C   UNL     1       0.078  10.565  21.389  0.00  0.00    +0.000 A 
ATOM      4  C   UNL     1      -1.058  11.173  20.873  0.00  0.00    +0.000 A 
ATOM      5  C   UNL     1      -1.349  11.087  19.511  0.00  0.00    +0.000 A 
ATOM      6  C   UNL     1      -0.521  10.366  18.633  0.00  0.00    +0.000 A 
ATOM      7  C   UNL     1       0.646   9.760  19.140  0.00  0.00    +0.000 A 
ATOM      8  C   UNL     1       0.924   9.878  20.522  0.00  0.00    +0.000 A 
BRANCH   3  10
ATOM      9  C   UNL     1      -0.026   9.557  23.536  0.00  0.00    +0.000 C 
ATOM     10  O   UNL     1       0.249  10.702  22.737  0.00  0.00    +0.000 OA
ENDBRANCH   3  10
BRANCH   6  11
ATOM     11  O   UNL     1      -0.812  10.254  17.300  0.00  0.00    +0.000 OA
ATOM     12  C   UNL     1      -2.158   9.936  16.951  0.00  0.00    +0.000 C 
ENDBRANCH   6  11
ENDBRANCH   1   7
BRANCH   1  13
ATOM     13  C   UNL     1       1.855   7.484  18.693  0.00  0.00    +0.000 C 
ATOM     14  C   UNL     1       2.598   6.751  17.846  0.00  0.00    +0.000 C 
BRANCH  14  15
ATOM     15  C   UNL     1       2.810   5.307  17.988  0.00  0.00    +0.000 A 
ATOM     16  C   UNL     1       1.770   4.412  17.679  0.00  0.00    +0.000 A 
ATOM     17  C   UNL     1       1.931   3.035  17.859  0.00  0.00    +0.000 A 
ATOM     18  C   UNL     1       3.135   2.552  18.361  0.00  0.00    +0.000 A 
ATOM     19  C   UNL     1       4.160   3.437  18.683  0.00  0.00    +0.000 A 
ATOM     20  C   UNL     1       4.008   4.801  18.509  0.00  0.00    +0.000 A 
BRANCH  18  21
ATOM     21  O   UNL     1       3.357   1.221  18.566  0.00  0.00    +0.000 OA
ATOM     22  H   UNL     1       2.831   0.941  19.336  0.00  0.00    +0.000 HD
ENDBRANCH  18  21
BRANCH  19  23
ATOM     23  O   UNL     1       5.338   2.964  19.188  0.00  0.00    +0.000 OA
ATOM     24  H   UNL     1       5.802   2.590  18.416  0.00  0.00    +0.000 HD
ENDBRANCH  19  23
ENDBRANCH  14  15
ENDBRANCH   1  13
TORSDOF 7
ENDMDL
