MODEL 1
REMARK VINA RESULT:      -7.2      0.000      0.000
REMARK  Name = 
REMARK  2 active torsions:
REMARK  status: ('A' for Active; 'I' for Inactive)
REMARK    1  A    between atoms: O_1  and  C_2
REMARK    2  A    between atoms: C_22  and  O_23
REMARK                            x       y       z     vdW  Elec       q    Type
REMARK                         _______ _______ _______ _____ _____    ______ ____
ROOT
ATOM      1  C   UNL     1       2.521  11.169  17.919  0.00  0.00    +0.000 A 
ATOM      2  C   UNL     1       2.121   9.853  18.130  0.00  0.00    +0.000 A 
ATOM      3  C   UNL     1       0.767   9.573  18.432  0.00  0.00    +0.000 A 
ATOM      4  C   UNL     1      -0.171  10.612  18.524  0.00  0.00    +0.000 A 
ATOM      5  C   UNL     1       0.459  11.806  18.886  0.00  0.00    +0.000 A 
ATOM      6  C   UNL     1       1.667  12.189  18.281  0.00  0.00    +0.000 A 
ATOM      7  C   UNL     1       0.442  12.083  20.421  0.00  0.00    +0.000 C 
ATOM      8  C   UNL     1      -0.681  13.055  20.605  0.00  0.00    +0.000 C 
ATOM      9  C   UNL     1      -1.686  12.996  21.708  0.00  0.00    +0.000 A 
ATOM     10  C   UNL     1      -1.746  12.160  22.829  0.00  0.00    +0.000 A 
ATOM     11  C   UNL     1      -2.948  12.077  23.564  0.00  0.00    +0.000 A 
ATOM     12  C   UNL     1      -4.072  12.824  23.179  0.00  0.00    +0.000 A 
ATOM     13  C   UNL     1      -3.935  13.761  22.154  0.00  0.00    +0.000 A 
ATOM     14  C   UNL     1      -2.770  13.832  21.429  0.00  0.00    +0.000 A 
ATOM     15  O   UNL     1      -5.302  12.570  23.789  0.00  0.00    +0.000 OA
ATOM     16  C   UNL     1      -6.415  12.970  23.057  0.00  0.00    +0.000 A 
ATOM     17  C   UNL     1      -6.612  12.414  21.787  0.00  0.00    +0.000 A 
ATOM     18  C   UNL     1      -7.195  13.187  20.763  0.00  0.00    +0.000 A 
ATOM     19  C   UNL     1      -7.916  14.329  21.176  0.00  0.00    +0.000 A 
ATOM     20  C   UNL     1      -7.915  14.753  22.511  0.00  0.00    +0.000 A 
ATOM     21  C   UNL     1      -7.116  14.102  23.445  0.00  0.00    +0.000 A 
ATOM     22  C   UNL     1      -6.862  12.886  19.276  0.00  0.00    +0.000 C 
ATOM     23  C   UNL     1      -5.625  11.928  19.160  0.00  0.00    +0.000 C 
ATOM     24  C   UNL     1      -4.673  11.695  17.993  0.00  0.00    +0.000 A 
ATOM     25  C   UNL     1      -5.144  11.480  16.700  0.00  0.00    +0.000 A 
ATOM     26  C   UNL     1      -4.258  11.013  15.729  0.00  0.00    +0.000 A 
ATOM     27  C   UNL     1      -2.905  10.766  16.039  0.00  0.00    +0.000 A 
ATOM     28  C   UNL     1      -2.370  10.974  17.319  0.00  0.00    +0.000 A 
ATOM     29  C   UNL     1      -3.270  11.437  18.284  0.00  0.00    +0.000 A 
ATOM     30  O   UNL     1      -1.035  10.599  17.397  0.00  0.00    +0.000 OA
ENDROOT
BRANCH   1  31
ATOM     31  O   UNL     1       3.773  11.499  17.507  0.00  0.00    +0.000 OA
ATOM     32  H   UNL     1       4.068  12.273  18.012  0.00  0.00    +0.000 HD
ENDBRANCH   1  31
BRANCH  21  33
ATOM     33  O   UNL     1      -6.923  14.592  24.700  0.00  0.00    +0.000 OA
ATOM     34  H   UNL     1      -6.530  13.885  25.262  0.00  0.00    +0.000 HD
ENDBRANCH  21  33
TORSDOF 2
ENDMDL
MODEL 2
REMARK VINA RESULT:      -7.1      2.708      4.572
REMARK  Name = 
REMARK  2 active torsions:
REMARK  status: ('A' for Active; 'I' for Inactive)
REMARK    1  A    between atoms: O_1  and  C_2
REMARK    2  A    between atoms: C_22  and  O_23
REMARK                            x       y       z     vdW  Elec       q    Type
REMARK                         _______ _______ _______ _____ _____    ______ ____
ROOT
ATOM      1  C   UNL     1      -2.878  10.249  15.346  0.00  0.00    +0.000 A 
ATOM      2  C   UNL     1      -3.099   9.143  16.162  0.00  0.00    +0.000 A 
ATOM      3  C   UNL     1      -3.481   9.335  17.511  0.00  0.00    +0.000 A 
ATOM      4  C   UNL     1      -3.634  10.629  18.030  0.00  0.00    +0.000 A 
ATOM      5  C   UNL     1      -2.830  11.533  17.331  0.00  0.00    +0.000 A 
ATOM      6  C   UNL     1      -2.760  11.493  15.929  0.00  0.00    +0.000 A 
ATOM      7  C   UNL     1      -1.439  11.777  17.994  0.00  0.00    +0.000 C 
ATOM      8  C   UNL     1      -1.605  13.069  18.730  0.00  0.00    +0.000 C 
ATOM      9  C   UNL     1      -1.091  13.337  20.105  0.00  0.00    +0.000 A 
ATOM     10  C   UNL     1      -0.276  12.555  20.932  0.00  0.00    +0.000 A 
ATOM     11  C   UNL     1      -0.176  12.873  22.304  0.00  0.00    +0.000 A 
ATOM     12  C   UNL     1      -0.882  13.963  22.835  0.00  0.00    +0.000 A 
ATOM     13  C   UNL     1      -1.561  14.813  21.961  0.00  0.00    +0.000 A 
ATOM     14  C   UNL     1      -1.671  14.496  20.628  0.00  0.00    +0.000 A 
ATOM     15  O   UNL     1      -0.934  14.133  24.220  0.00  0.00    +0.000 OA
ATOM     16  C   UNL     1      -2.001  14.897  24.680  0.00  0.00    +0.000 A 
ATOM     17  C   UNL     1      -3.303  14.461  24.402  0.00  0.00    +0.000 A 
ATOM     18  C   UNL     1      -4.327  15.400  24.173  0.00  0.00    +0.000 A 
ATOM     19  C   UNL     1      -4.084  16.713  24.635  0.00  0.00    +0.000 A 
ATOM     20  C   UNL     1      -2.836  17.092  25.145  0.00  0.00    +0.000 A 
ATOM     21  C   UNL     1      -1.774  16.194  25.115  0.00  0.00    +0.000 A 
ATOM     22  C   UNL     1      -5.540  15.027  23.278  0.00  0.00    +0.000 C 
ATOM     23  C   UNL     1      -5.261  13.707  22.475  0.00  0.00    +0.000 C 
ATOM     24  C   UNL     1      -5.907  13.183  21.198  0.00  0.00    +0.000 A 
ATOM     25  C   UNL     1      -7.290  13.160  21.038  0.00  0.00    +0.000 A 
ATOM     26  C   UNL     1      -7.833  12.434  19.977  0.00  0.00    +0.000 A 
ATOM     27  C   UNL     1      -7.004  11.739  19.073  0.00  0.00    +0.000 A 
ATOM     28  C   UNL     1      -5.606  11.733  19.177  0.00  0.00    +0.000 A 
ATOM     29  C   UNL     1      -5.074  12.460  20.248  0.00  0.00    +0.000 A 
ATOM     30  O   UNL     1      -5.010  10.927  18.215  0.00  0.00    +0.000 OA
ENDROOT
BRANCH   1  31
ATOM     31  O   UNL     1      -2.629  10.141  14.014  0.00  0.00    +0.000 OA
ATOM     32  H   UNL     1      -3.463  10.268  13.535  0.00  0.00    +0.000 HD
ENDBRANCH   1  31
BRANCH  21  33
ATOM     33  O   UNL     1      -0.500  16.571  25.409  0.00  0.00    +0.000 OA
ATOM     34  H   UNL     1      -0.179  16.042  26.176  0.00  0.00    +0.000 HD
ENDBRANCH  21  33
TORSDOF 2
ENDMDL
MODEL 3
REMARK VINA RESULT:      -7.1      3.479      8.385
REMARK  Name = 
REMARK  2 active torsions:
REMARK  status: ('A' for Active; 'I' for Inactive)
REMARK    1  A    between atoms: O_1  and  C_2
REMARK    2  A    between atoms: C_22  and  O_23
REMARK                            x       y       z     vdW  Elec       q    Type
REMARK                         _______ _______ _______ _____ _____    ______ ____
ROOT
ATOM      1  C   UNL     1      -4.564  12.653  23.814  0.00  0.00    +0.000 A 
ATOM      2  C   UNL     1      -5.211  13.120  22.673  0.00  0.00    +0.000 A 
ATOM      3  C   UNL     1      -4.458  13.416  21.513  0.00  0.00    +0.000 A 
ATOM      4  C   UNL     1      -3.066  13.245  21.505  0.00  0.00    +0.000 A 
ATOM      5  C   UNL     1      -2.553  13.373  22.799  0.00  0.00    +0.000 A 
ATOM      6  C   UNL     1      -3.191  12.753  23.886  0.00  0.00    +0.000 A 
ATOM      7  C   UNL     1      -2.054  14.812  23.137  0.00  0.00    +0.000 C 
ATOM      8  C   UNL     1      -0.571  14.736  22.956  0.00  0.00    +0.000 C 
ATOM      9  C   UNL     1       0.260  15.782  22.288  0.00  0.00    +0.000 A 
ATOM     10  C   UNL     1      -0.096  17.051  21.818  0.00  0.00    +0.000 A 
ATOM     11  C   UNL     1       0.780  17.734  20.946  0.00  0.00    +0.000 A 
ATOM     12  C   UNL     1       1.995  17.151  20.556  0.00  0.00    +0.000 A 
ATOM     13  C   UNL     1       2.391  15.958  21.161  0.00  0.00    +0.000 A 
ATOM     14  C   UNL     1       1.534  15.285  21.998  0.00  0.00    +0.000 A 
ATOM     15  O   UNL     1       2.743  17.748  19.538  0.00  0.00    +0.000 OA
ATOM     16  C   UNL     1       3.635  16.900  18.890  0.00  0.00    +0.000 A 
ATOM     17  C   UNL     1       3.127  15.769  18.239  0.00  0.00    +0.000 A 
ATOM     18  C   UNL     1       3.882  14.580  18.200  0.00  0.00    +0.000 A 
ATOM     19  C   UNL     1       5.264  14.711  18.457  0.00  0.00    +0.000 A 
ATOM     20  C   UNL     1       5.820  15.923  18.882  0.00  0.00    +0.000 A 
ATOM     21  C   UNL     1       4.992  17.008  19.153  0.00  0.00    +0.000 A 
ATOM     22  C   UNL     1       3.165  13.207  18.088  0.00  0.00    +0.000 C 
ATOM     23  C   UNL     1       1.628  13.350  18.369  0.00  0.00    +0.000 C 
ATOM     24  C   UNL     1       0.609  12.301  18.799  0.00  0.00    +0.000 A 
ATOM     25  C   UNL     1       0.525  11.064  18.164  0.00  0.00    +0.000 A 
ATOM     26  C   UNL     1      -0.583  10.254  18.412  0.00  0.00    +0.000 A 
ATOM     27  C   UNL     1      -1.602  10.667  19.294  0.00  0.00    +0.000 A 
ATOM     28  C   UNL     1      -1.568  11.896  19.970  0.00  0.00    +0.000 A 
ATOM     29  C   UNL     1      -0.455  12.701  19.708  0.00  0.00    +0.000 A 
ATOM     30  O   UNL     1      -2.712  12.110  20.729  0.00  0.00    +0.000 OA
ENDROOT
BRANCH   1  31
ATOM     31  O   UNL     1      -5.234  12.235  24.919  0.00  0.00    +0.000 OA
ATOM     32  H   UNL     1      -4.956  11.327  25.121  0.00  0.00    +0.000 HD
ENDBRANCH   1  31
BRANCH  21  33
ATOM     33  O   UNL     1       5.453  18.137  19.756  0.00  0.00    +0.000 OA
ATOM     34  H   UNL     1       4.754  18.831  19.713  0.00  0.00    +0.000 HD
ENDBRANCH  21  33
TORSDOF 2
ENDMDL
MODEL 4
REMARK VINA RESULT:      -6.9     12.212     14.977
REMARK  Name = 
REMARK  2 active torsions:
REMARK  status: ('A' for Active; 'I' for Inactive)
REMARK    1  A    between atoms: O_1  and  C_2
REMARK    2  A    between atoms: C_22  and  O_23
REMARK                            x       y       z     vdW  Elec       q    Type
REMARK                         _______ _______ _______ _____ _____    ______ ____
ROOT
ATOM      1  C   UNL     1       9.260  18.013  27.545  0.00  0.00    +0.000 A 
ATOM      2  C   UNL     1       7.915  18.107  27.197  0.00  0.00    +0.000 A 
ATOM      3  C   UNL     1       7.414  17.334  26.124  0.00  0.00    +0.000 A 
ATOM      4  C   UNL     1       8.262  16.478  25.407  0.00  0.00    +0.000 A 
ATOM      5  C   UNL     1       9.580  16.940  25.462  0.00  0.00    +0.000 A 
ATOM      6  C   UNL     1      10.129  17.393  26.673  0.00  0.00    +0.000 A 
ATOM      7  C   UNL     1       9.982  17.834  24.249  0.00  0.00    +0.000 C 
ATOM      8  C   UNL     1      10.738  16.909  23.347  0.00  0.00    +0.000 C 
ATOM      9  C   UNL     1      10.588  16.856  21.863  0.00  0.00    +0.000 A 
ATOM     10  C   UNL     1       9.857  17.681  21.001  0.00  0.00    +0.000 A 
ATOM     11  C   UNL     1       9.614  17.254  19.677  0.00  0.00    +0.000 A 
ATOM     12  C   UNL     1      10.100  16.017  19.227  0.00  0.00    +0.000 A 
ATOM     13  C   UNL     1      10.953  15.289  20.058  0.00  0.00    +0.000 A 
ATOM     14  C   UNL     1      11.178  15.697  21.351  0.00  0.00    +0.000 A 
ATOM     15  O   UNL     1       9.674  15.524  17.992  0.00  0.00    +0.000 OA
ATOM     16  C   UNL     1       9.792  14.147  17.835  0.00  0.00    +0.000 A 
ATOM     17  C   UNL     1       9.101  13.313  18.723  0.00  0.00    +0.000 A 
ATOM     18  C   UNL     1       9.658  12.078  19.108  0.00  0.00    +0.000 A 
ATOM     19  C   UNL     1      10.676  11.566  18.274  0.00  0.00    +0.000 A 
ATOM     20  C   UNL     1      11.208  12.318  17.219  0.00  0.00    +0.000 A 
ATOM     21  C   UNL     1      10.802  13.636  17.034  0.00  0.00    +0.000 A 
ATOM     22  C   UNL     1       9.297  11.457  20.485  0.00  0.00    +0.000 C 
ATOM     23  C   UNL     1       8.581  12.507  21.405  0.00  0.00    +0.000 C 
ATOM     24  C   UNL     1       8.431  12.538  22.922  0.00  0.00    +0.000 A 
ATOM     25  C   UNL     1       8.019  11.416  23.636  0.00  0.00    +0.000 A 
ATOM     26  C   UNL     1       7.643  11.567  24.971  0.00  0.00    +0.000 A 
ATOM     27  C   UNL     1       7.683  12.830  25.597  0.00  0.00    +0.000 A 
ATOM     28  C   UNL     1       8.098  13.993  24.934  0.00  0.00    +0.000 A 
ATOM     29  C   UNL     1       8.467  13.828  23.594  0.00  0.00    +0.000 A 
ATOM     30  O   UNL     1       7.989  15.123  25.735  0.00  0.00    +0.000 OA
ENDROOT
BRANCH   1  31
ATOM     31  O   UNL     1       9.782  18.630  28.637  0.00  0.00    +0.000 OA
ATOM     32  H   UNL     1       9.885  17.972  29.342  0.00  0.00    +0.000 HD
ENDBRANCH   1  31
BRANCH  21  33
ATOM     33  O   UNL     1      11.428  14.470  16.159  0.00  0.00    +0.000 OA
ATOM     34  H   UNL     1      10.756  15.059  15.744  0.00  0.00    +0.000 HD
ENDBRANCH  21  33
TORSDOF 2
ENDMDL
MODEL 5
REMARK VINA RESULT:      -6.8     10.673     11.954
REMARK  Name = 
REMARK  2 active torsions:
REMARK  status: ('A' for Active; 'I' for Inactive)
REMARK    1  A    between atoms: O_1  and  C_2
REMARK    2  A    between atoms: C_22  and  O_23
REMARK                            x       y       z     vdW  Elec       q    Type
REMARK                         _______ _______ _______ _____ _____    ______ ____
ROOT
ATOM      1  C   UNL     1      11.193  12.124  18.140  0.00  0.00    +0.000 A 
ATOM      2  C   UNL     1       9.975  12.205  17.471  0.00  0.00    +0.000 A 
ATOM      3  C   UNL     1       8.911  12.941  18.043  0.00  0.00    +0.000 A 
ATOM      4  C   UNL     1       9.074  13.585  19.278  0.00  0.00    +0.000 A 
ATOM      5  C   UNL     1      10.046  12.934  20.042  0.00  0.00    +0.000 A 
ATOM      6  C   UNL     1      11.254  12.518  19.460  0.00  0.00    +0.000 A 
ATOM      7  C   UNL     1       9.462  11.878  21.031  0.00  0.00    +0.000 C 
ATOM      8  C   UNL     1       9.435  12.587  22.349  0.00  0.00    +0.000 C 
ATOM      9  C   UNL     1       8.308  12.522  23.327  0.00  0.00    +0.000 A 
ATOM     10  C   UNL     1       7.147  11.741  23.314  0.00  0.00    +0.000 A 
ATOM     11  C   UNL     1       6.082  12.074  24.179  0.00  0.00    +0.000 A 
ATOM     12  C   UNL     1       6.184  13.173  25.045  0.00  0.00    +0.000 A 
ATOM     13  C   UNL     1       7.408  13.837  25.145  0.00  0.00    +0.000 A 
ATOM     14  C   UNL     1       8.440  13.523  24.293  0.00  0.00    +0.000 A 
ATOM     15  O   UNL     1       5.050  13.607  25.735  0.00  0.00    +0.000 OA
ATOM     16  C   UNL     1       5.093  14.928  26.167  0.00  0.00    +0.000 A 
ATOM     17  C   UNL     1       5.241  15.938  25.208  0.00  0.00    +0.000 A 
ATOM     18  C   UNL     1       5.968  17.104  25.519  0.00  0.00    +0.000 A 
ATOM     19  C   UNL     1       6.157  17.373  26.893  0.00  0.00    +0.000 A 
ATOM     20  C   UNL     1       5.783  16.452  27.879  0.00  0.00    +0.000 A 
ATOM     21  C   UNL     1       5.300  15.201  27.510  0.00  0.00    +0.000 A 
ATOM     22  C   UNL     1       6.681  17.901  24.393  0.00  0.00    +0.000 C 
ATOM     23  C   UNL     1       6.744  17.065  23.066  0.00  0.00    +0.000 C 
ATOM     24  C   UNL     1       7.675  17.200  21.867  0.00  0.00    +0.000 A 
ATOM     25  C   UNL     1       7.920  18.435  21.271  0.00  0.00    +0.000 A 
ATOM     26  C   UNL     1       8.557  18.469  20.030  0.00  0.00    +0.000 A 
ATOM     27  C   UNL     1       8.957  17.280  19.386  0.00  0.00    +0.000 A 
ATOM     28  C   UNL     1       8.747  16.009  19.941  0.00  0.00    +0.000 A 
ATOM     29  C   UNL     1       8.102  15.989  21.182  0.00  0.00    +0.000 A 
ATOM     30  O   UNL     1       9.165  14.991  19.094  0.00  0.00    +0.000 OA
ENDROOT
BRANCH   1  31
ATOM     31  O   UNL     1      12.292  11.540  17.596  0.00  0.00    +0.000 OA
ATOM     32  H   UNL     1      12.693  12.163  16.970  0.00  0.00    +0.000 HD
ENDBRANCH   1  31
BRANCH  21  33
ATOM     33  O   UNL     1       5.113  14.202  28.416  0.00  0.00    +0.000 OA
ATOM     34  H   UNL     1       5.988  13.812  28.647  0.00  0.00    +0.000 HD
ENDBRANCH  21  33
TORSDOF 2
ENDMDL
MODEL 6
REMARK VINA RESULT:      -6.8     11.035     15.257
REMARK  Name = 
REMARK  2 active torsions:
REMARK  status: ('A' for Active; 'I' for Inactive)
REMARK    1  A    between atoms: O_1  and  C_2
REMARK    2  A    between atoms: C_22  and  O_23
REMARK                            x       y       z     vdW  Elec       q    Type
REMARK                         _______ _______ _______ _____ _____    ______ ____
ROOT
ATOM      1  C   UNL     1       5.878  12.710  26.605  0.00  0.00    +0.000 A 
ATOM      2  C   UNL     1       7.101  12.434  27.210  0.00  0.00    +0.000 A 
ATOM      3  C   UNL     1       8.297  12.903  26.617  0.00  0.00    +0.000 A 
ATOM      4  C   UNL     1       8.258  13.639  25.424  0.00  0.00    +0.000 A 
ATOM      5  C   UNL     1       7.120  13.306  24.683  0.00  0.00    +0.000 A 
ATOM      6  C   UNL     1       5.869  13.183  25.310  0.00  0.00    +0.000 A 
ATOM      7  C   UNL     1       7.369  12.195  23.616  0.00  0.00    +0.000 C 
ATOM      8  C   UNL     1       7.528  12.949  22.333  0.00  0.00    +0.000 C 
ATOM      9  C   UNL     1       8.559  12.653  21.294  0.00  0.00    +0.000 A 
ATOM     10  C   UNL     1       9.475  11.599  21.209  0.00  0.00    +0.000 A 
ATOM     11  C   UNL     1      10.555  11.696  20.304  0.00  0.00    +0.000 A 
ATOM     12  C   UNL     1      10.709  12.833  19.497  0.00  0.00    +0.000 A 
ATOM     13  C   UNL     1       9.698  13.794  19.493  0.00  0.00    +0.000 A 
ATOM     14  C   UNL     1       8.654  13.709  20.384  0.00  0.00    +0.000 A 
ATOM     15  O   UNL     1      11.889  12.998  18.768  0.00  0.00    +0.000 OA
ATOM     16  C   UNL     1      12.174  14.309  18.401  0.00  0.00    +0.000 A 
ATOM     17  C   UNL     1      12.333  15.265  19.412  0.00  0.00    +0.000 A 
ATOM     18  C   UNL     1      11.924  16.595  19.194  0.00  0.00    +0.000 A 
ATOM     19  C   UNL     1      11.757  16.984  17.847  0.00  0.00    +0.000 A 
ATOM     20  C   UNL     1      11.838  16.057  16.800  0.00  0.00    +0.000 A 
ATOM     21  C   UNL     1      11.993  14.704  17.084  0.00  0.00    +0.000 A 
ATOM     22  C   UNL     1      11.489  17.481  20.393  0.00  0.00    +0.000 C 
ATOM     23  C   UNL     1      11.262  16.614  21.681  0.00  0.00    +0.000 C 
ATOM     24  C   UNL     1      10.447  16.915  22.933  0.00  0.00    +0.000 A 
ATOM     25  C   UNL     1      10.557  18.134  23.598  0.00  0.00    +0.000 A 
ATOM     26  C   UNL     1      10.000  18.259  24.871  0.00  0.00    +0.000 A 
ATOM     27  C   UNL     1       9.330  17.178  25.480  0.00  0.00    +0.000 A 
ATOM     28  C   UNL     1       9.179  15.931  24.857  0.00  0.00    +0.000 A 
ATOM     29  C   UNL     1       9.746  15.817  23.583  0.00  0.00    +0.000 A 
ATOM     30  O   UNL     1       8.544  15.007  25.677  0.00  0.00    +0.000 OA
ENDROOT
BRANCH   1  31
ATOM     31  O   UNL     1       4.687  12.399  27.179  0.00  0.00    +0.000 OA
ATOM     32  H   UNL     1       3.989  12.901  26.729  0.00  0.00    +0.000 HD
ENDBRANCH   1  31
BRANCH  21  33
ATOM     33  O   UNL     1      11.877  13.746  16.124  0.00  0.00    +0.000 OA
ATOM     34  H   UNL     1      11.567  12.909  16.544  0.00  0.00    +0.000 HD
ENDBRANCH  21  33
TORSDOF 2
ENDMDL
MODEL 7
REMARK VINA RESULT:      -6.8      2.290      2.818
REMARK  Name = 
REMARK  2 active torsions:
REMARK  status: ('A' for Active; 'I' for Inactive)
REMARK    1  A    between atoms: O_1  and  C_2
REMARK    2  A    between atoms: C_22  and  O_23
REMARK                            x       y       z     vdW  Elec       q    Type
REMARK                         _______ _______ _______ _____ _____    ______ ____
ROOT
ATOM      1  C   UNL     1       1.267  10.920  18.361  0.00  0.00    +0.000 A 
ATOM      2  C   UNL     1       0.717   9.870  19.093  0.00  0.00    +0.000 A 
ATOM      3  C   UNL     1      -0.500  10.064  19.787  0.00  0.00    +0.000 A 
ATOM      4  C   UNL     1      -1.153  11.304  19.747  0.00  0.00    +0.000 A 
ATOM      5  C   UNL     1      -0.233  12.332  19.523  0.00  0.00    +0.000 A 
ATOM      6  C   UNL     1       0.773  12.193  18.553  0.00  0.00    +0.000 A 
ATOM      7  C   UNL     1       0.285  13.006  20.831  0.00  0.00    +0.000 C 
ATOM      8  C   UNL     1      -0.525  14.260  20.941  0.00  0.00    +0.000 C 
ATOM      9  C   UNL     1      -1.126  14.777  22.207  0.00  0.00    +0.000 A 
ATOM     10  C   UNL     1      -0.983  14.323  23.523  0.00  0.00    +0.000 A 
ATOM     11  C   UNL     1      -1.888  14.773  24.510  0.00  0.00    +0.000 A 
ATOM     12  C   UNL     1      -2.917  15.667  24.178  0.00  0.00    +0.000 A 
ATOM     13  C   UNL     1      -2.939  16.219  22.897  0.00  0.00    +0.000 A 
ATOM     14  C   UNL     1      -2.069  15.771  21.932  0.00  0.00    +0.000 A 
ATOM     15  O   UNL     1      -3.918  15.933  25.115  0.00  0.00    +0.000 OA
ATOM     16  C   UNL     1      -5.111  16.410  24.581  0.00  0.00    +0.000 A 
ATOM     17  C   UNL     1      -5.796  15.609  23.659  0.00  0.00    +0.000 A 
ATOM     18  C   UNL     1      -6.518  16.206  22.607  0.00  0.00    +0.000 A 
ATOM     19  C   UNL     1      -6.849  17.569  22.772  0.00  0.00    +0.000 A 
ATOM     20  C   UNL     1      -6.351  18.320  23.844  0.00  0.00    +0.000 A 
ATOM     21  C   UNL     1      -5.434  17.751  24.721  0.00  0.00    +0.000 A 
ATOM     22  C   UNL     1      -6.730  15.437  21.274  0.00  0.00    +0.000 C 
ATOM     23  C   UNL     1      -5.791  14.182  21.193  0.00  0.00    +0.000 C 
ATOM     24  C   UNL     1      -5.313  13.393  19.980  0.00  0.00    +0.000 A 
ATOM     25  C   UNL     1      -6.198  12.975  18.989  0.00  0.00    +0.000 A 
ATOM     26  C   UNL     1      -5.764  12.040  18.049  0.00  0.00    +0.000 A 
ATOM     27  C   UNL     1      -4.452  11.526  18.089  0.00  0.00    +0.000 A 
ATOM     28  C   UNL     1      -3.513  11.915  19.056  0.00  0.00    +0.000 A 
ATOM     29  C   UNL     1      -3.963  12.849  19.995  0.00  0.00    +0.000 A 
ATOM     30  O   UNL     1      -2.314  11.226  18.933  0.00  0.00    +0.000 OA
ENDROOT
BRANCH   1  31
ATOM     31  O   UNL     1       2.364  10.771  17.574  0.00  0.00    +0.000 OA
ATOM     32  H   UNL     1       2.877  10.016  17.902  0.00  0.00    +0.000 HD
ENDBRANCH   1  31
BRANCH  21  33
ATOM     33  O   UNL     1      -4.770  18.489  25.652  0.00  0.00    +0.000 OA
ATOM     34  H   UNL     1      -3.997  17.971  25.979  0.00  0.00    +0.000 HD
ENDBRANCH  21  33
TORSDOF 2
ENDMDL
MODEL 8
REMARK VINA RESULT:      -6.6      3.234      9.039
REMARK  Name = 
REMARK  2 active torsions:
REMARK  status: ('A' for Active; 'I' for Inactive)
REMARK    1  A    between atoms: O_1  and  C_2
REMARK    2  A    between atoms: C_22  and  O_23
REMARK                            x       y       z     vdW  Elec       q    Type
REMARK                         _______ _______ _______ _____ _____    ______ ____
ROOT
ATOM      1  C   UNL     1      -6.452  12.957  23.617  0.00  0.00    +0.000 A 
ATOM      2  C   UNL     1      -5.721  12.228  24.550  0.00  0.00    +0.000 A 
ATOM      3  C   UNL     1      -4.330  12.455  24.681  0.00  0.00    +0.000 A 
ATOM      4  C   UNL     1      -3.686  13.405  23.876  0.00  0.00    +0.000 A 
ATOM      5  C   UNL     1      -4.374  13.570  22.671  0.00  0.00    +0.000 A 
ATOM      6  C   UNL     1      -5.774  13.675  22.654  0.00  0.00    +0.000 A 
ATOM      7  C   UNL     1      -3.825  12.684  21.510  0.00  0.00    +0.000 C 
ATOM      8  C   UNL     1      -2.964  13.614  20.715  0.00  0.00    +0.000 C 
ATOM      9  C   UNL     1      -1.624  13.266  20.155  0.00  0.00    +0.000 A 
ATOM     10  C   UNL     1      -0.951  12.039  20.126  0.00  0.00    +0.000 A 
ATOM     11  C   UNL     1       0.428  12.016  19.826  0.00  0.00    +0.000 A 
ATOM     12  C   UNL     1       1.119  13.207  19.557  0.00  0.00    +0.000 A 
ATOM     13  C   UNL     1       0.392  14.393  19.442  0.00  0.00    +0.000 A 
ATOM     14  C   UNL     1      -0.948  14.419  19.748  0.00  0.00    +0.000 A 
ATOM     15  O   UNL     1       2.513  13.183  19.469  0.00  0.00    +0.000 OA
ATOM     16  C   UNL     1       3.137  14.407  19.686  0.00  0.00    +0.000 A 
ATOM     17  C   UNL     1       2.944  15.045  20.917  0.00  0.00    +0.000 A 
ATOM     18  C   UNL     1       2.897  16.452  20.983  0.00  0.00    +0.000 A 
ATOM     19  C   UNL     1       3.450  17.146  19.884  0.00  0.00    +0.000 A 
ATOM     20  C   UNL     1       3.872  16.475  18.729  0.00  0.00    +0.000 A 
ATOM     21  C   UNL     1       3.663  15.105  18.609  0.00  0.00    +0.000 A 
ATOM     22  C   UNL     1       2.090  17.152  22.109  0.00  0.00    +0.000 C 
ATOM     23  C   UNL     1       1.150  16.133  22.845  0.00  0.00    +0.000 C 
ATOM     24  C   UNL     1      -0.103  16.380  23.676  0.00  0.00    +0.000 A 
ATOM     25  C   UNL     1      -0.134  17.351  24.675  0.00  0.00    +0.000 A 
ATOM     26  C   UNL     1      -1.200  17.357  25.575  0.00  0.00    +0.000 A 
ATOM     27  C   UNL     1      -2.236  16.406  25.480  0.00  0.00    +0.000 A 
ATOM     28  C   UNL     1      -2.265  15.411  24.492  0.00  0.00    +0.000 A 
ATOM     29  C   UNL     1      -1.188  15.413  23.599  0.00  0.00    +0.000 A 
ATOM     30  O   UNL     1      -3.346  14.552  24.641  0.00  0.00    +0.000 OA
ENDROOT
BRANCH   1  31
ATOM     31  O   UNL     1      -7.805  12.880  23.521  0.00  0.00    +0.000 OA
ATOM     32  H   UNL     1      -8.063  11.945  23.566  0.00  0.00    +0.000 HD
ENDBRANCH   1  31
BRANCH  21  33
ATOM     33  O   UNL     1       3.868  14.442  17.438  0.00  0.00    +0.000 OA
ATOM     34  H   UNL     1       3.062  14.528  16.877  0.00  0.00    +0.000 HD
ENDBRANCH  21  33
TORSDOF 2
ENDMDL
MODEL 9
REMARK VINA RESULT:      -6.5     10.964     14.590
REMARK  Name = 
REMARK  2 active torsions:
REMARK  status: ('A' for Active; 'I' for Inactive)
REMARK    1  A    between atoms: O_1  and  C_2
REMARK    2  A    between atoms: C_22  and  O_23
REMARK                            x       y       z     vdW  Elec       q    Type
REMARK                         _______ _______ _______ _____ _____    ______ ____
ROOT
ATOM      1  C   UNL     1       5.912  11.333  26.180  0.00  0.00    +0.000 A 
ATOM      2  C   UNL     1       7.071  11.577  26.912  0.00  0.00    +0.000 A 
ATOM      3  C   UNL     1       8.012  12.521  26.438  0.00  0.00    +0.000 A 
ATOM      4  C   UNL     1       7.788  13.208  25.237  0.00  0.00    +0.000 A 
ATOM      5  C   UNL     1       6.975  12.452  24.388  0.00  0.00    +0.000 A 
ATOM      6  C   UNL     1       5.835  11.798  24.884  0.00  0.00    +0.000 A 
ATOM      7  C   UNL     1       7.771  11.579  23.369  0.00  0.00    +0.000 C 
ATOM      8  C   UNL     1       7.726  12.368  22.098  0.00  0.00    +0.000 C 
ATOM      9  C   UNL     1       8.884  12.561  21.175  0.00  0.00    +0.000 A 
ATOM     10  C   UNL     1      10.162  11.991  21.201  0.00  0.00    +0.000 A 
ATOM     11  C   UNL     1      11.186  12.557  20.411  0.00  0.00    +0.000 A 
ATOM     12  C   UNL     1      10.928  13.678  19.607  0.00  0.00    +0.000 A 
ATOM     13  C   UNL     1       9.613  14.128  19.484  0.00  0.00    +0.000 A 
ATOM     14  C   UNL     1       8.619  13.586  20.264  0.00  0.00    +0.000 A 
ATOM     15  O   UNL     1      11.996  14.344  19.000  0.00  0.00    +0.000 OA
ATOM     16  C   UNL     1      11.741  15.664  18.645  0.00  0.00    +0.000 A 
ATOM     17  C   UNL     1      11.382  16.568  19.653  0.00  0.00    +0.000 A 
ATOM     18  C   UNL     1      10.477  17.611  19.374  0.00  0.00    +0.000 A 
ATOM     19  C   UNL     1      10.298  17.933  18.011  0.00  0.00    +0.000 A 
ATOM     20  C   UNL     1      10.864  17.157  16.993  0.00  0.00    +0.000 A 
ATOM     21  C   UNL     1      11.543  15.985  17.311  0.00  0.00    +0.000 A 
ATOM     22  C   UNL     1       9.593  18.197  20.508  0.00  0.00    +0.000 C 
ATOM     23  C   UNL     1       9.624  17.277  21.779  0.00  0.00    +0.000 C 
ATOM     24  C   UNL     1       8.638  17.171  22.936  0.00  0.00    +0.000 A 
ATOM     25  C   UNL     1       8.159  18.304  23.590  0.00  0.00    +0.000 A 
ATOM     26  C   UNL     1       7.477  18.147  24.797  0.00  0.00    +0.000 A 
ATOM     27  C   UNL     1       7.265  16.867  25.350  0.00  0.00    +0.000 A 
ATOM     28  C   UNL     1       7.714  15.690  24.733  0.00  0.00    +0.000 A 
ATOM     29  C   UNL     1       8.401  15.862  23.527  0.00  0.00    +0.000 A 
ATOM     30  O   UNL     1       7.447  14.561  25.497  0.00  0.00    +0.000 OA
ENDROOT
BRANCH   1  31
ATOM     31  O   UNL     1       4.911  10.535  26.634  0.00  0.00    +0.000 OA
ATOM     32  H   UNL     1       4.466  10.988  27.367  0.00  0.00    +0.000 HD
ENDBRANCH   1  31
BRANCH  21  33
ATOM     33  O   UNL     1      11.936  15.095  16.359  0.00  0.00    +0.000 OA
ATOM     34  H   UNL     1      12.871  14.837  16.530  0.00  0.00    +0.000 HD
ENDBRANCH  21  33
TORSDOF 2
ENDMDL
