MODEL 1
REMARK VINA RESULT:      -7.3      0.000      0.000
REMARK  Name = 
REMARK  7 active torsions:
REMARK  status: ('A' for Active; 'I' for Inactive)
REMARK    1  A    between atoms: C_1  and  C_2
REMARK    2  A    between atoms: C_9  and  O_10
REMARK    3  A    between atoms: O_10  and  C_11
REMARK    4  A    between atoms: C_11  and  C_12
REMARK    5  A    between atoms: C_12  and  O_13
REMARK    6  A    between atoms: C_12  and  C_14
REMARK    7  A    between atoms: C_14  and  N_15
REMARK                            x       y       z     vdW  Elec       q    Type
REMARK                         _______ _______ _______ _____ _____    ______ ____
ROOT
ATOM      1  C   UNL     1      -0.233  11.524  18.940  0.00  0.00    +0.000 C 
ATOM      2  C   UNL     1       0.245  10.523  19.950  0.00  0.00    +0.000 A 
ATOM      3  C   UNL     1      -0.027  10.665  21.255  0.00  0.00    +0.000 A 
ATOM      4  C   UNL     1       0.420   9.718  22.289  0.00  0.00    +0.000 A 
ATOM      5  O   UNL     1       0.142   9.898  23.465  0.00  0.00    +0.000 OA
ATOM      6  O   UNL     1       1.162   8.633  21.859  0.00  0.00    +0.000 OA
ATOM      7  C   UNL     1       1.465   8.451  20.495  0.00  0.00    +0.000 A 
ATOM      8  C   UNL     1       2.219   7.317  20.183  0.00  0.00    +0.000 A 
ATOM      9  C   UNL     1       2.562   7.065  18.860  0.00  0.00    +0.000 A 
ATOM     10  C   UNL     1       2.136   7.957  17.869  0.00  0.00    +0.000 A 
ATOM     11  C   UNL     1       1.379   9.093  18.195  0.00  0.00    +0.000 A 
ATOM     12  C   UNL     1       1.033   9.356  19.524  0.00  0.00    +0.000 A 
ENDROOT
BRANCH   9  13
ATOM     13  O   UNL     1       3.297   6.002  18.410  0.00  0.00    +0.000 OA
BRANCH  13  14
ATOM     14  C   UNL     1       3.695   5.028  19.390  0.00  0.00    +0.000 C 
BRANCH  14  15
ATOM     15  C   UNL     1       5.137   4.598  19.086  0.00  0.00    +0.000 C 
BRANCH  15  16
ATOM     16  O   UNL     1       5.211   3.165  19.115  0.00  0.00    +0.000 OA
ATOM     17  H   UNL     1       5.037   2.843  18.210  0.00  0.00    +0.000 HD
ENDBRANCH  15  16
BRANCH  15  18
ATOM     18  C   UNL     1       5.590   5.126  17.725  0.00  0.00    +0.000 C 
BRANCH  18  19
ATOM     19  N   UNL     1       6.576   6.177  17.849  0.00  0.00    +0.000 N 
ATOM     20  C   UNL     1       7.596   6.246  18.748  0.00  0.00    +0.000 A 
ATOM     21  N   UNL     1       8.295   7.336  18.530  0.00  0.00    +0.000 NA
ATOM     22  C   UNL     1       7.646   7.908  17.470  0.00  0.00    +0.000 A 
ATOM     23  N   UNL     1       6.599   7.222  17.004  0.00  0.00    +0.000 NA
ENDBRANCH  18  19
ENDBRANCH  15  18
ENDBRANCH  14  15
ENDBRANCH  13  14
ENDBRANCH   9  13
TORSDOF 6
ENDMDL
MODEL 2
REMARK VINA RESULT:      -7.3      2.941      3.721
REMARK  Name = 
REMARK  7 active torsions:
REMARK  status: ('A' for Active; 'I' for Inactive)
REMARK    1  A    between atoms: C_1  and  C_2
REMARK    2  A    between atoms: C_9  and  O_10
REMARK    3  A    between atoms: O_10  and  C_11
REMARK    4  A    between atoms: C_11  and  C_12
REMARK    5  A    between atoms: C_12  and  O_13
REMARK    6  A    between atoms: C_12  and  C_14
REMARK    7  A    between atoms: C_14  and  N_15
REMARK                            x       y       z     vdW  Elec       q    Type
REMARK                         _______ _______ _______ _____ _____    ______ ____
ROOT
ATOM      1  C   UNL     1       0.207  10.901  18.526  0.00  0.00    +0.000 C 
ATOM      2  C   UNL     1       0.450   9.894  19.611  0.00  0.00    +0.000 A 
ATOM      3  C   UNL     1      -0.134  10.008  20.812  0.00  0.00    +0.000 A 
ATOM      4  C   UNL     1       0.070   9.053  21.912  0.00  0.00    +0.000 A 
ATOM      5  O   UNL     1      -0.489   9.208  22.988  0.00  0.00    +0.000 OA
ATOM      6  O   UNL     1       0.920   7.991  21.663  0.00  0.00    +0.000 OA
ATOM      7  C   UNL     1       1.548   7.837  20.412  0.00  0.00    +0.000 A 
ATOM      8  C   UNL     1       2.382   6.723  20.279  0.00  0.00    +0.000 A 
ATOM      9  C   UNL     1       3.041   6.500  19.077  0.00  0.00    +0.000 A 
ATOM     10  C   UNL     1       2.848   7.400  18.022  0.00  0.00    +0.000 A 
ATOM     11  C   UNL     1       2.008   8.515  18.168  0.00  0.00    +0.000 A 
ATOM     12  C   UNL     1       1.344   8.749  19.375  0.00  0.00    +0.000 A 
ENDROOT
BRANCH   9  13
ATOM     13  O   UNL     1       3.888   5.460  18.807  0.00  0.00    +0.000 OA
BRANCH  13  14
ATOM     14  C   UNL     1       3.594   4.671  17.641  0.00  0.00    +0.000 C 
BRANCH  14  15
ATOM     15  C   UNL     1       4.255   3.295  17.810  0.00  0.00    +0.000 C 
BRANCH  15  16
ATOM     16  O   UNL     1       5.300   3.400  18.787  0.00  0.00    +0.000 OA
ATOM     17  H   UNL     1       5.871   4.150  18.530  0.00  0.00    +0.000 HD
ENDBRANCH  15  16
BRANCH  15  18
ATOM     18  C   UNL     1       3.229   2.246  18.237  0.00  0.00    +0.000 C 
BRANCH  18  19
ATOM     19  N   UNL     1       2.608   2.575  19.501  0.00  0.00    +0.000 N 
ATOM     20  C   UNL     1       1.307   2.913  19.714  0.00  0.00    +0.000 A 
ATOM     21  N   UNL     1       1.114   3.114  20.997  0.00  0.00    +0.000 NA
ATOM     22  C   UNL     1       2.353   2.885  21.531  0.00  0.00    +0.000 A 
ATOM     23  N   UNL     1       3.296   2.529  20.655  0.00  0.00    +0.000 NA
ENDBRANCH  18  19
ENDBRANCH  15  18
ENDBRANCH  14  15
ENDBRANCH  13  14
ENDBRANCH   9  13
TORSDOF 6
ENDMDL
MODEL 3
REMARK VINA RESULT:      -7.1      1.348      1.855
REMARK  Name = 
REMARK  7 active torsions:
REMARK  status: ('A' for Active; 'I' for Inactive)
REMARK    1  A    between atoms: C_1  and  C_2
REMARK    2  A    between atoms: C_9  and  O_10
REMARK    3  A    between atoms: O_10  and  C_11
REMARK    4  A    between atoms: C_11  and  C_12
REMARK    5  A    between atoms: C_12  and  O_13
REMARK    6  A    between atoms: C_12  and  C_14
REMARK    7  A    between atoms: C_14  and  N_15
REMARK                            x       y       z     vdW  Elec       q    Type
REMARK                         _______ _______ _______ _____ _____    ______ ____
ROOT
ATOM      1  C   UNL     1       0.191  11.488  18.749  0.00  0.00    +0.000 C 
ATOM      2  C   UNL     1       0.397  10.382  19.742  0.00  0.00    +0.000 A 
ATOM      3  C   UNL     1      -0.166  10.422  20.958  0.00  0.00    +0.000 A 
ATOM      4  C   UNL     1       0.004   9.369  21.971  0.00  0.00    +0.000 A 
ATOM      5  O   UNL     1      -0.534   9.460  23.064  0.00  0.00    +0.000 OA
ATOM      6  O   UNL     1       0.797   8.292  21.620  0.00  0.00    +0.000 OA
ATOM      7  C   UNL     1       1.403   8.215  20.350  0.00  0.00    +0.000 A 
ATOM      8  C   UNL     1       2.179   7.078  20.112  0.00  0.00    +0.000 A 
ATOM      9  C   UNL     1       2.813   6.926  18.885  0.00  0.00    +0.000 A 
ATOM     10  C   UNL     1       2.651   7.920  17.912  0.00  0.00    +0.000 A 
ATOM     11  C   UNL     1       1.868   9.057  18.164  0.00  0.00    +0.000 A 
ATOM     12  C   UNL     1       1.231   9.220  19.397  0.00  0.00    +0.000 A 
ENDROOT
BRANCH   9  13
ATOM     13  O   UNL     1       3.604   5.873  18.515  0.00  0.00    +0.000 OA
BRANCH  13  14
ATOM     14  C   UNL     1       4.402   5.268  19.547  0.00  0.00    +0.000 C 
BRANCH  14  15
ATOM     15  C   UNL     1       5.816   5.041  18.994  0.00  0.00    +0.000 C 
BRANCH  15  16
ATOM     16  O   UNL     1       5.883   3.729  18.417  0.00  0.00    +0.000 OA
ATOM     17  H   UNL     1       5.040   3.568  17.950  0.00  0.00    +0.000 HD
ENDBRANCH  15  16
BRANCH  15  18
ATOM     18  C   UNL     1       6.172   6.100  17.951  0.00  0.00    +0.000 C 
BRANCH  18  19
ATOM     19  N   UNL     1       6.284   5.539  16.623  0.00  0.00    +0.000 N 
ATOM     20  C   UNL     1       5.390   5.654  15.603  0.00  0.00    +0.000 A 
ATOM     21  N   UNL     1       5.855   5.032  14.544  0.00  0.00    +0.000 NA
ATOM     22  C   UNL     1       7.057   4.544  14.981  0.00  0.00    +0.000 A 
ATOM     23  N   UNL     1       7.373   4.848  16.242  0.00  0.00    +0.000 NA
ENDBRANCH  18  19
ENDBRANCH  15  18
ENDBRANCH  14  15
ENDBRANCH  13  14
ENDBRANCH   9  13
TORSDOF 6
ENDMDL
MODEL 4
REMARK VINA RESULT:      -7.0      4.744      8.410
REMARK  Name = 
REMARK  7 active torsions:
REMARK  status: ('A' for Active; 'I' for Inactive)
REMARK    1  A    between atoms: C_1  and  C_2
REMARK    2  A    between atoms: C_9  and  O_10
REMARK    3  A    between atoms: O_10  and  C_11
REMARK    4  A    between atoms: C_11  and  C_12
REMARK    5  A    between atoms: C_12  and  O_13
REMARK    6  A    between atoms: C_12  and  C_14
REMARK    7  A    between atoms: C_14  and  N_15
REMARK                            x       y       z     vdW  Elec       q    Type
REMARK                         _______ _______ _______ _____ _____    ______ ____
ROOT
ATOM      1  C   UNL     1       5.328   3.105  12.145  0.00  0.00    +0.000 C 
ATOM      2  C   UNL     1       6.258   3.987  12.925  0.00  0.00    +0.000 A 
ATOM      3  C   UNL     1       7.196   4.725  12.313  0.00  0.00    +0.000 A 
ATOM      4  C   UNL     1       8.136   5.603  13.027  0.00  0.00    +0.000 A 
ATOM      5  O   UNL     1       8.971   6.254  12.417  0.00  0.00    +0.000 OA
ATOM      6  O   UNL     1       8.022   5.646  14.405  0.00  0.00    +0.000 OA
ATOM      7  C   UNL     1       7.048   4.886  15.080  0.00  0.00    +0.000 A 
ATOM      8  C   UNL     1       7.029   5.014  16.472  0.00  0.00    +0.000 A 
ATOM      9  C   UNL     1       6.099   4.296  17.214  0.00  0.00    +0.000 A 
ATOM     10  C   UNL     1       5.196   3.463  16.543  0.00  0.00    +0.000 A 
ATOM     11  C   UNL     1       5.225   3.343  15.145  0.00  0.00    +0.000 A 
ATOM     12  C   UNL     1       6.160   4.058  14.391  0.00  0.00    +0.000 A 
ENDROOT
BRANCH   9  13
ATOM     13  O   UNL     1       5.969   4.319  18.575  0.00  0.00    +0.000 OA
BRANCH  13  14
ATOM     14  C   UNL     1       5.416   5.513  19.154  0.00  0.00    +0.000 C 
BRANCH  14  15
ATOM     15  C   UNL     1       3.987   5.205  19.624  0.00  0.00    +0.000 C 
BRANCH  15  16
ATOM     16  O   UNL     1       3.062   5.665  18.628  0.00  0.00    +0.000 OA
ATOM     17  H   UNL     1       2.161   5.484  18.958  0.00  0.00    +0.000 HD
ENDBRANCH  15  16
BRANCH  15  18
ATOM     18  C   UNL     1       3.803   3.708  19.871  0.00  0.00    +0.000 C 
BRANCH  18  19
ATOM     19  N   UNL     1       2.503   3.242  19.443  0.00  0.00    +0.000 N 
ATOM     20  C   UNL     1       2.236   2.321  18.477  0.00  0.00    +0.000 A 
ATOM     21  N   UNL     1       0.938   2.140  18.394  0.00  0.00    +0.000 NA
ATOM     22  C   UNL     1       0.451   2.994  19.347  0.00  0.00    +0.000 A 
ATOM     23  N   UNL     1       1.374   3.674  20.031  0.00  0.00    +0.000 NA
ENDBRANCH  18  19
ENDBRANCH  15  18
ENDBRANCH  14  15
ENDBRANCH  13  14
ENDBRANCH   9  13
TORSDOF 6
ENDMDL
MODEL 5
REMARK VINA RESULT:      -7.0      1.318      1.391
REMARK  Name = 
REMARK  7 active torsions:
REMARK  status: ('A' for Active; 'I' for Inactive)
REMARK    1  A    between atoms: C_1  and  C_2
REMARK    2  A    between atoms: C_9  and  O_10
REMARK    3  A    between atoms: O_10  and  C_11
REMARK    4  A    between atoms: C_11  and  C_12
REMARK    5  A    between atoms: C_12  and  O_13
REMARK    6  A    between atoms: C_12  and  C_14
REMARK    7  A    between atoms: C_14  and  N_15
REMARK                            x       y       z     vdW  Elec       q    Type
REMARK                         _______ _______ _______ _____ _____    ______ ____
ROOT
ATOM      1  C   UNL     1      -0.114  12.206  19.094  0.00  0.00    +0.000 C 
ATOM      2  C   UNL     1       0.122  11.115  20.097  0.00  0.00    +0.000 A 
ATOM      3  C   UNL     1      -0.326  11.216  21.356  0.00  0.00    +0.000 A 
ATOM      4  C   UNL     1      -0.121  10.180  22.381  0.00  0.00    +0.000 A 
ATOM      5  O   UNL     1      -0.552  10.327  23.515  0.00  0.00    +0.000 OA
ATOM      6  O   UNL     1       0.581   9.054  21.993  0.00  0.00    +0.000 OA
ATOM      7  C   UNL     1       1.064   8.912  20.677  0.00  0.00    +0.000 A 
ATOM      8  C   UNL     1       1.755   7.729  20.404  0.00  0.00    +0.000 A 
ATOM      9  C   UNL     1       2.267   7.512  19.131  0.00  0.00    +0.000 A 
ATOM     10  C   UNL     1       2.070   8.489  18.147  0.00  0.00    +0.000 A 
ATOM     11  C   UNL     1       1.374   9.674  18.434  0.00  0.00    +0.000 A 
ATOM     12  C   UNL     1       0.860   9.901  19.714  0.00  0.00    +0.000 A 
ENDROOT
BRANCH   9  13
ATOM     13  O   UNL     1       2.965   6.409  18.723  0.00  0.00    +0.000 OA
BRANCH  13  14
ATOM     14  C   UNL     1       3.277   5.430  19.730  0.00  0.00    +0.000 C 
BRANCH  14  15
ATOM     15  C   UNL     1       4.460   4.587  19.234  0.00  0.00    +0.000 C 
BRANCH  15  16
ATOM     16  O   UNL     1       4.122   4.014  17.963  0.00  0.00    +0.000 OA
ATOM     17  H   UNL     1       4.728   4.393  17.298  0.00  0.00    +0.000 HD
ENDBRANCH  15  16
BRANCH  15  18
ATOM     18  C   UNL     1       5.725   5.437  19.116  0.00  0.00    +0.000 C 
BRANCH  18  19
ATOM     19  N   UNL     1       6.389   5.249  17.844  0.00  0.00    +0.000 N 
ATOM     20  C   UNL     1       7.511   4.519  17.602  0.00  0.00    +0.000 A 
ATOM     21  N   UNL     1       7.793   4.566  16.320  0.00  0.00    +0.000 NA
ATOM     22  C   UNL     1       6.794   5.355  15.817  0.00  0.00    +0.000 A 
ATOM     23  N   UNL     1       5.897   5.780  16.711  0.00  0.00    +0.000 NA
ENDBRANCH  18  19
ENDBRANCH  15  18
ENDBRANCH  14  15
ENDBRANCH  13  14
ENDBRANCH   9  13
TORSDOF 6
ENDMDL
MODEL 6
REMARK VINA RESULT:      -7.0      1.592      1.845
REMARK  Name = 
REMARK  7 active torsions:
REMARK  status: ('A' for Active; 'I' for Inactive)
REMARK    1  A    between atoms: C_1  and  C_2
REMARK    2  A    between atoms: C_9  and  O_10
REMARK    3  A    between atoms: O_10  and  C_11
REMARK    4  A    between atoms: C_11  and  C_12
REMARK    5  A    between atoms: C_12  and  O_13
REMARK    6  A    between atoms: C_12  and  C_14
REMARK    7  A    between atoms: C_14  and  N_15
REMARK                            x       y       z     vdW  Elec       q    Type
REMARK                         _______ _______ _______ _____ _____    ______ ____
ROOT
ATOM      1  C   UNL     1      -1.253  11.609  19.714  0.00  0.00    +0.000 C 
ATOM      2  C   UNL     1      -0.428  10.633  20.500  0.00  0.00    +0.000 A 
ATOM      3  C   UNL     1      -0.499  10.578  21.838  0.00  0.00    +0.000 A 
ATOM      4  C   UNL     1       0.287   9.644  22.659  0.00  0.00    +0.000 A 
ATOM      5  O   UNL     1       0.182   9.639  23.876  0.00  0.00    +0.000 OA
ATOM      6  O   UNL     1       1.141   8.791  21.983  0.00  0.00    +0.000 OA
ATOM      7  C   UNL     1       1.239   8.820  20.579  0.00  0.00    +0.000 A 
ATOM      8  C   UNL     1       2.134   7.908  20.010  0.00  0.00    +0.000 A 
ATOM      9  C   UNL     1       2.292   7.873  18.631  0.00  0.00    +0.000 A 
ATOM     10  C   UNL     1       1.543   8.753  17.841  0.00  0.00    +0.000 A 
ATOM     11  C   UNL     1       0.647   9.663  18.423  0.00  0.00    +0.000 A 
ATOM     12  C   UNL     1       0.485   9.708  19.811  0.00  0.00    +0.000 A 
ENDROOT
BRANCH   9  13
ATOM     13  O   UNL     1       3.131   7.042  17.940  0.00  0.00    +0.000 OA
BRANCH  13  14
ATOM     14  C   UNL     1       2.781   5.647  17.909  0.00  0.00    +0.000 C 
BRANCH  14  15
ATOM     15  C   UNL     1       3.675   4.902  18.911  0.00  0.00    +0.000 C 
BRANCH  15  16
ATOM     16  O   UNL     1       2.861   4.421  19.990  0.00  0.00    +0.000 OA
ATOM     17  H   UNL     1       3.089   3.483  20.135  0.00  0.00    +0.000 HD
ENDBRANCH  15  16
BRANCH  15  18
ATOM     18  C   UNL     1       4.403   3.741  18.235  0.00  0.00    +0.000 C 
BRANCH  18  19
ATOM     19  N   UNL     1       5.717   4.123  17.764  0.00  0.00    +0.000 N 
ATOM     20  C   UNL     1       6.120   4.256  16.471  0.00  0.00    +0.000 A 
ATOM     21  N   UNL     1       7.375   4.644  16.444  0.00  0.00    +0.000 NA
ATOM     22  C   UNL     1       7.695   4.731  17.772  0.00  0.00    +0.000 A 
ATOM     23  N   UNL     1       6.704   4.442  18.619  0.00  0.00    +0.000 NA
ENDBRANCH  18  19
ENDBRANCH  15  18
ENDBRANCH  14  15
ENDBRANCH  13  14
ENDBRANCH   9  13
TORSDOF 6
ENDMDL
MODEL 7
REMARK VINA RESULT:      -7.0      2.504      3.554
REMARK  Name = 
REMARK  7 active torsions:
REMARK  status: ('A' for Active; 'I' for Inactive)
REMARK    1  A    between atoms: C_1  and  C_2
REMARK    2  A    between atoms: C_9  and  O_10
REMARK    3  A    between atoms: O_10  and  C_11
REMARK    4  A    between atoms: C_11  and  C_12
REMARK    5  A    between atoms: C_12  and  O_13
REMARK    6  A    between atoms: C_12  and  C_14
REMARK    7  A    between atoms: C_14  and  N_15
REMARK                            x       y       z     vdW  Elec       q    Type
REMARK                         _______ _______ _______ _____ _____    ______ ____
ROOT
ATOM      1  C   UNL     1       0.055  11.823  19.331  0.00  0.00    +0.000 C 
ATOM      2  C   UNL     1       0.470  10.652  20.172  0.00  0.00    +0.000 A 
ATOM      3  C   UNL     1       0.255  10.632  21.495  0.00  0.00    +0.000 A 
ATOM      4  C   UNL     1       0.643   9.514  22.368  0.00  0.00    +0.000 A 
ATOM      5  O   UNL     1       0.422   9.551  23.569  0.00  0.00    +0.000 OA
ATOM      6  O   UNL     1       1.267   8.439  21.760  0.00  0.00    +0.000 OA
ATOM      7  C   UNL     1       1.507   8.425  20.373  0.00  0.00    +0.000 A 
ATOM      8  C   UNL     1       2.142   7.284  19.874  0.00  0.00    +0.000 A 
ATOM      9  C   UNL     1       2.417   7.191  18.516  0.00  0.00    +0.000 A 
ATOM     10  C   UNL     1       2.045   8.248  17.676  0.00  0.00    +0.000 A 
ATOM     11  C   UNL     1       1.408   9.389  18.189  0.00  0.00    +0.000 A 
ATOM     12  C   UNL     1       1.131   9.492  19.555  0.00  0.00    +0.000 A 
ENDROOT
BRANCH   9  13
ATOM     13  O   UNL     1       3.035   6.142  17.892  0.00  0.00    +0.000 OA
BRANCH  13  14
ATOM     14  C   UNL     1       4.425   5.935  18.194  0.00  0.00    +0.000 C 
BRANCH  14  15
ATOM     15  C   UNL     1       4.685   4.424  18.264  0.00  0.00    +0.000 C 
BRANCH  15  16
ATOM     16  O   UNL     1       6.020   4.161  17.805  0.00  0.00    +0.000 OA
ATOM     17  H   UNL     1       6.286   3.290  18.159  0.00  0.00    +0.000 HD
ENDBRANCH  15  16
BRANCH  15  18
ATOM     18  C   UNL     1       4.500   3.903  19.689  0.00  0.00    +0.000 C 
BRANCH  18  19
ATOM     19  N   UNL     1       3.192   3.316  19.887  0.00  0.00    +0.000 N 
ATOM     20  C   UNL     1       2.521   2.495  19.034  0.00  0.00    +0.000 A 
ATOM     21  N   UNL     1       1.377   2.146  19.577  0.00  0.00    +0.000 NA
ATOM     22  C   UNL     1       1.399   2.797  20.780  0.00  0.00    +0.000 A 
ATOM     23  N   UNL     1       2.502   3.509  21.025  0.00  0.00    +0.000 NA
ENDBRANCH  18  19
ENDBRANCH  15  18
ENDBRANCH  14  15
ENDBRANCH  13  14
ENDBRANCH   9  13
TORSDOF 6
ENDMDL
MODEL 8
REMARK VINA RESULT:      -6.9      4.328      6.976
REMARK  Name = 
REMARK  7 active torsions:
REMARK  status: ('A' for Active; 'I' for Inactive)
REMARK    1  A    between atoms: C_1  and  C_2
REMARK    2  A    between atoms: C_9  and  O_10
REMARK    3  A    between atoms: O_10  and  C_11
REMARK    4  A    between atoms: C_11  and  C_12
REMARK    5  A    between atoms: C_12  and  O_13
REMARK    6  A    between atoms: C_12  and  C_14
REMARK    7  A    between atoms: C_14  and  N_15
REMARK                            x       y       z     vdW  Elec       q    Type
REMARK                         _______ _______ _______ _____ _____    ______ ____
ROOT
ATOM      1  C   UNL     1       7.885   6.086  18.272  0.00  0.00    +0.000 C 
ATOM      2  C   UNL     1       6.852   5.436  17.400  0.00  0.00    +0.000 A 
ATOM      3  C   UNL     1       7.167   4.944  16.194  0.00  0.00    +0.000 A 
ATOM      4  C   UNL     1       6.194   4.301  15.297  0.00  0.00    +0.000 A 
ATOM      5  O   UNL     1       6.538   3.870  14.206  0.00  0.00    +0.000 OA
ATOM      6  O   UNL     1       4.891   4.217  15.751  0.00  0.00    +0.000 OA
ATOM      7  C   UNL     1       4.525   4.721  17.014  0.00  0.00    +0.000 A 
ATOM      8  C   UNL     1       3.179   4.576  17.363  0.00  0.00    +0.000 A 
ATOM      9  C   UNL     1       2.735   5.048  18.592  0.00  0.00    +0.000 A 
ATOM     10  C   UNL     1       3.655   5.656  19.456  0.00  0.00    +0.000 A 
ATOM     11  C   UNL     1       5.004   5.796  19.093  0.00  0.00    +0.000 A 
ATOM     12  C   UNL     1       5.458   5.327  17.857  0.00  0.00    +0.000 A 
ENDROOT
BRANCH   9  13
ATOM     13  O   UNL     1       1.453   4.980  19.063  0.00  0.00    +0.000 OA
BRANCH  13  14
ATOM     14  C   UNL     1       1.290   4.817  20.482  0.00  0.00    +0.000 C 
BRANCH  14  15
ATOM     15  C   UNL     1       0.712   3.419  20.745  0.00  0.00    +0.000 C 
BRANCH  15  16
ATOM     16  O   UNL     1       0.262   2.862  19.501  0.00  0.00    +0.000 OA
ATOM     17  H   UNL     1      -0.445   3.441  19.157  0.00  0.00    +0.000 HD
ENDBRANCH  15  16
BRANCH  15  18
ATOM     18  C   UNL     1       1.756   2.508  21.389  0.00  0.00    +0.000 C 
BRANCH  18  19
ATOM     19  N   UNL     1       2.843   2.202  20.486  0.00  0.00    +0.000 N 
ATOM     20  C   UNL     1       4.171   2.413  20.695  0.00  0.00    +0.000 A 
ATOM     21  N   UNL     1       4.850   1.980  19.658  0.00  0.00    +0.000 NA
ATOM     22  C   UNL     1       3.869   1.508  18.828  0.00  0.00    +0.000 A 
ATOM     23  N   UNL     1       2.624   1.603  19.302  0.00  0.00    +0.000 NA
ENDBRANCH  18  19
ENDBRANCH  15  18
ENDBRANCH  14  15
ENDBRANCH  13  14
ENDBRANCH   9  13
TORSDOF 6
ENDMDL
MODEL 9
REMARK VINA RESULT:      -6.9      2.494      3.414
REMARK  Name = 
REMARK  7 active torsions:
REMARK  status: ('A' for Active; 'I' for Inactive)
REMARK    1  A    between atoms: C_1  and  C_2
REMARK    2  A    between atoms: C_9  and  O_10
REMARK    3  A    between atoms: O_10  and  C_11
REMARK    4  A    between atoms: C_11  and  C_12
REMARK    5  A    between atoms: C_12  and  O_13
REMARK    6  A    between atoms: C_12  and  C_14
REMARK    7  A    between atoms: C_14  and  N_15
REMARK                            x       y       z     vdW  Elec       q    Type
REMARK                         _______ _______ _______ _____ _____    ______ ____
ROOT
ATOM      1  C   UNL     1      -0.051  11.738  19.144  0.00  0.00    +0.000 C 
ATOM      2  C   UNL     1       0.388  10.611  20.032  0.00  0.00    +0.000 A 
ATOM      3  C   UNL     1       0.128  10.617  21.347  0.00  0.00    +0.000 A 
ATOM      4  C   UNL     1       0.537   9.542  22.264  0.00  0.00    +0.000 A 
ATOM      5  O   UNL     1       0.272   9.601  23.456  0.00  0.00    +0.000 OA
ATOM      6  O   UNL     1       1.231   8.482  21.709  0.00  0.00    +0.000 OA
ATOM      7  C   UNL     1       1.520   8.442  20.331  0.00  0.00    +0.000 A 
ATOM      8  C   UNL     1       2.224   7.318  19.887  0.00  0.00    +0.000 A 
ATOM      9  C   UNL     1       2.550   7.202  18.542  0.00  0.00    +0.000 A 
ATOM     10  C   UNL     1       2.159   8.217  17.660  0.00  0.00    +0.000 A 
ATOM     11  C   UNL     1       1.452   9.340  18.118  0.00  0.00    +0.000 A 
ATOM     12  C   UNL     1       1.123   9.467  19.471  0.00  0.00    +0.000 A 
ENDROOT
BRANCH   9  13
ATOM     13  O   UNL     1       3.237   6.167  17.969  0.00  0.00    +0.000 OA
BRANCH  13  14
ATOM     14  C   UNL     1       4.327   5.614  18.727  0.00  0.00    +0.000 C 
BRANCH  14  15
ATOM     15  C   UNL     1       4.918   4.438  17.937  0.00  0.00    +0.000 C 
BRANCH  15  16
ATOM     16  O   UNL     1       5.462   3.484  18.861  0.00  0.00    +0.000 OA
ATOM     17  H   UNL     1       6.431   3.473  18.736  0.00  0.00    +0.000 HD
ENDBRANCH  15  16
BRANCH  15  18
ATOM     18  C   UNL     1       3.853   3.780  17.059  0.00  0.00    +0.000 C 
BRANCH  18  19
ATOM     19  N   UNL     1       2.823   3.135  17.843  0.00  0.00    +0.000 N 
ATOM     20  C   UNL     1       2.991   2.162  18.780  0.00  0.00    +0.000 A 
ATOM     21  N   UNL     1       1.825   1.850  19.297  0.00  0.00    +0.000 NA
ATOM     22  C   UNL     1       0.963   2.674  18.625  0.00  0.00    +0.000 A 
ATOM     23  N   UNL     1       1.532   3.496  17.739  0.00  0.00    +0.000 NA
ENDBRANCH  18  19
ENDBRANCH  15  18
ENDBRANCH  14  15
ENDBRANCH  13  14
ENDBRANCH   9  13
TORSDOF 6
ENDMDL
