MODEL 1
REMARK VINA RESULT:      -6.3      0.000      0.000
REMARK  Name = 
REMARK  20 active torsions:
REMARK  status: ('A' for Active; 'I' for Inactive)
REMARK    1  A    between atoms: C_1  and  C_2
REMARK    2  A    between atoms: C_2  and  C_3
REMARK    3  A    between atoms: C_3  and  C_4
REMARK    4  A    between atoms: C_4  and  C_5
REMARK    5  A    between atoms: C_5  and  C_6
REMARK    6  A    between atoms: C_6  and  C_7
REMARK    7  A    between atoms: C_7  and  C_8
REMARK    8  A    between atoms: C_8  and  C_9
REMARK    9  A    between atoms: C_9  and  C_10
REMARK   10  A    between atoms: C_10  and  C_11
REMARK   11  A    between atoms: C_11  and  C_12
REMARK   12  A    between atoms: C_12  and  C_13
REMARK   13  A    between atoms: C_13  and  C_14
REMARK   14  A    between atoms: C_14  and  N_15
REMARK   15  A    between atoms: C_16  and  C_18
REMARK   16  A    between atoms: C_18  and  N_19
REMARK   17  A    between atoms: C_18  and  C_31
REMARK   18  A    between atoms: C_20  and  C_22
REMARK   19  A    between atoms: C_31  and  C_32
REMARK   20  A    between atoms: C_31  and  O_33
REMARK                            x       y       z     vdW  Elec       q    Type
REMARK                         _______ _______ _______ _____ _____    ______ ____
ROOT
ATOM      1  N   UNL     1       1.291   8.597  19.577  0.00  0.00    +0.000 N 
ATOM      2  C   UNL     1       0.361   9.574  19.787  0.00  0.00    +0.000 C 
ATOM      3  O   UNL     1      -0.206   9.725  20.885  0.00  0.00    +0.000 OA
ATOM      4  H   UNL     1       1.594   8.399  18.631  0.00  0.00    +0.000 HD
ENDROOT
BRANCH   2   5
ATOM      5  C   UNL     1       0.023  10.442  18.587  0.00  0.00    +0.000 C 
BRANCH   5   6
ATOM      6  N   UNL     1      -1.307  11.040  18.784  0.00  0.00    +0.000 N 
ATOM      7  C   UNL     1      -2.262  11.065  17.769  0.00  0.00    +0.000 C 
ATOM      8  O   UNL     1      -1.944  10.584  16.680  0.00  0.00    +0.000 OA
ATOM      9  H   UNL     1      -1.480  11.590  19.620  0.00  0.00    +0.000 HD
BRANCH   7  10
ATOM     10  C   UNL     1      -3.596  11.545  18.064  0.00  0.00    +0.000 A 
ATOM     11  C   UNL     1      -4.728  11.505  17.260  0.00  0.00    +0.000 A 
ATOM     12  C   UNL     1      -5.769  12.143  17.971  0.00  0.00    +0.000 A 
ATOM     13  C   UNL     1      -7.115  12.476  17.703  0.00  0.00    +0.000 A 
ATOM     14  C   UNL     1      -7.844  13.145  18.697  0.00  0.00    +0.000 A 
ATOM     15  C   UNL     1      -7.253  13.484  19.916  0.00  0.00    +0.000 A 
ATOM     16  C   UNL     1      -5.915  13.174  20.191  0.00  0.00    +0.000 A 
ATOM     17  C   UNL     1      -5.222  12.496  19.195  0.00  0.00    +0.000 A 
ATOM     18  O   UNL     1      -3.914  12.107  19.272  0.00  0.00    +0.000 OA
ENDBRANCH   7  10
ENDBRANCH   5   6
BRANCH   5  19
ATOM     19  C   UNL     1       1.124  11.524  18.451  0.00  0.00    +0.000 C 
ATOM     20  C   UNL     1       1.470  12.198  19.784  0.00  0.00    +0.000 C 
BRANCH  19  21
ATOM     21  O   UNL     1       2.321  10.925  17.941  0.00  0.00    +0.000 OA
ATOM     22  H   UNL     1       2.990  11.630  17.932  0.00  0.00    +0.000 HD
ENDBRANCH  19  21
ENDBRANCH   5  19
ENDBRANCH   2   5
BRANCH   1  23
ATOM     23  C   UNL     1       1.702   7.722  20.657  0.00  0.00    +0.000 C 
BRANCH  23  24
ATOM     24  C   UNL     1       2.216   6.377  20.154  0.00  0.00    +0.000 C 
BRANCH  24  25
ATOM     25  C   UNL     1       1.182   5.280  20.362  0.00  0.00    +0.000 C 
BRANCH  25  26
ATOM     26  C   UNL     1       1.820   4.048  20.989  0.00  0.00    +0.000 C 
BRANCH  26  27
ATOM     27  C   UNL     1       1.377   2.793  20.267  0.00  0.00    +0.000 C 
BRANCH  27  28
ATOM     28  C   UNL     1       2.531   2.223  19.462  0.00  0.00    +0.000 C 
BRANCH  28  29
ATOM     29  C   UNL     1       2.275   2.425  17.979  0.00  0.00    +0.000 C 
BRANCH  29  30
ATOM     30  C   UNL     1       3.188   3.511  17.440  0.00  0.00    +0.000 C 
BRANCH  30  31
ATOM     31  C   UNL     1       4.446   3.596  18.283  0.00  0.00    +0.000 C 
BRANCH  31  32
ATOM     32  C   UNL     1       5.114   4.945  18.086  0.00  0.00    +0.000 C 
BRANCH  32  33
ATOM     33  C   UNL     1       4.319   5.778  17.094  0.00  0.00    +0.000 C 
BRANCH  33  34
ATOM     34  C   UNL     1       5.206   6.187  15.932  0.00  0.00    +0.000 C 
BRANCH  34  36
ATOM     35  C   UNL     1       6.581   4.470  14.761  0.00  0.00    +0.000 C 
ATOM     36  C   UNL     1       6.508   5.400  15.956  0.00  0.00    +0.000 C 
ENDBRANCH  34  36
ENDBRANCH  33  34
ENDBRANCH  32  33
ENDBRANCH  31  32
ENDBRANCH  30  31
ENDBRANCH  29  30
ENDBRANCH  28  29
ENDBRANCH  27  28
ENDBRANCH  26  27
ENDBRANCH  25  26
ENDBRANCH  24  25
ENDBRANCH  23  24
ENDBRANCH   1  23
TORSDOF 18
ENDMDL
MODEL 2
REMARK VINA RESULT:      -6.2      3.038      4.295
REMARK  Name = 
REMARK  20 active torsions:
REMARK  status: ('A' for Active; 'I' for Inactive)
REMARK    1  A    between atoms: C_1  and  C_2
REMARK    2  A    between atoms: C_2  and  C_3
REMARK    3  A    between atoms: C_3  and  C_4
REMARK    4  A    between atoms: C_4  and  C_5
REMARK    5  A    between atoms: C_5  and  C_6
REMARK    6  A    between atoms: C_6  and  C_7
REMARK    7  A    between atoms: C_7  and  C_8
REMARK    8  A    between atoms: C_8  and  C_9
REMARK    9  A    between atoms: C_9  and  C_10
REMARK   10  A    between atoms: C_10  and  C_11
REMARK   11  A    between atoms: C_11  and  C_12
REMARK   12  A    between atoms: C_12  and  C_13
REMARK   13  A    between atoms: C_13  and  C_14
REMARK   14  A    between atoms: C_14  and  N_15
REMARK   15  A    between atoms: C_16  and  C_18
REMARK   16  A    between atoms: C_18  and  N_19
REMARK   17  A    between atoms: C_18  and  C_31
REMARK   18  A    between atoms: C_20  and  C_22
REMARK   19  A    between atoms: C_31  and  C_32
REMARK   20  A    between atoms: C_31  and  O_33
REMARK                            x       y       z     vdW  Elec       q    Type
REMARK                         _______ _______ _______ _____ _____    ______ ____
ROOT
ATOM      1  N   UNL     1      -0.070   9.981  19.681  0.00  0.00    +0.000 N 
ATOM      2  C   UNL     1      -0.046  11.143  20.396  0.00  0.00    +0.000 C 
ATOM      3  O   UNL     1       0.171  12.246  19.862  0.00  0.00    +0.000 OA
ATOM      4  H   UNL     1      -0.075   9.096  20.175  0.00  0.00    +0.000 HD
ENDROOT
BRANCH   2   5
ATOM      5  C   UNL     1      -0.255  11.008  21.895  0.00  0.00    +0.000 C 
BRANCH   5   6
ATOM      6  N   UNL     1      -1.609  11.474  22.237  0.00  0.00    +0.000 N 
ATOM      7  C   UNL     1      -1.822  12.582  23.055  0.00  0.00    +0.000 C 
ATOM      8  O   UNL     1      -0.828  13.153  23.507  0.00  0.00    +0.000 OA
ATOM      9  H   UNL     1      -2.404  10.885  22.008  0.00  0.00    +0.000 HD
BRANCH   7  10
ATOM     10  C   UNL     1      -3.171  13.072  23.245  0.00  0.00    +0.000 A 
ATOM     11  C   UNL     1      -3.642  14.374  23.145  0.00  0.00    +0.000 A 
ATOM     12  C   UNL     1      -5.017  14.350  23.470  0.00  0.00    +0.000 A 
ATOM     13  C   UNL     1      -6.037  15.315  23.608  0.00  0.00    +0.000 A 
ATOM     14  C   UNL     1      -7.321  14.879  23.970  0.00  0.00    +0.000 A 
ATOM     15  C   UNL     1      -7.581  13.527  24.200  0.00  0.00    +0.000 A 
ATOM     16  C   UNL     1      -6.576  12.558  24.083  0.00  0.00    +0.000 A 
ATOM     17  C   UNL     1      -5.319  13.017  23.706  0.00  0.00    +0.000 A 
ATOM     18  O   UNL     1      -4.213  12.231  23.538  0.00  0.00    +0.000 OA
ENDBRANCH   7  10
ENDBRANCH   5   6
BRANCH   5  19
ATOM     19  C   UNL     1      -0.047   9.520  22.276  0.00  0.00    +0.000 C 
ATOM     20  C   UNL     1       1.422   9.169  22.544  0.00  0.00    +0.000 C 
BRANCH  19  21
ATOM     21  O   UNL     1      -0.789   9.224  23.465  0.00  0.00    +0.000 OA
ATOM     22  H   UNL     1      -0.615   9.957  24.078  0.00  0.00    +0.000 HD
ENDBRANCH  19  21
ENDBRANCH   5  19
ENDBRANCH   2   5
BRANCH   1  23
ATOM     23  C   UNL     1       0.101   9.994  18.242  0.00  0.00    +0.000 C 
BRANCH  23  24
ATOM     24  C   UNL     1       1.360   9.256  17.798  0.00  0.00    +0.000 C 
BRANCH  24  25
ATOM     25  C   UNL     1       1.964   8.459  18.946  0.00  0.00    +0.000 C 
BRANCH  25  26
ATOM     26  C   UNL     1       2.424   7.089  18.469  0.00  0.00    +0.000 C 
BRANCH  26  27
ATOM     27  C   UNL     1       2.849   6.232  19.642  0.00  0.00    +0.000 C 
BRANCH  27  28
ATOM     28  C   UNL     1       1.654   5.937  20.530  0.00  0.00    +0.000 C 
BRANCH  28  29
ATOM     29  C   UNL     1       1.252   4.480  20.389  0.00  0.00    +0.000 C 
BRANCH  29  30
ATOM     30  C   UNL     1       2.487   3.619  20.198  0.00  0.00    +0.000 C 
BRANCH  30  31
ATOM     31  C   UNL     1       2.508   3.049  18.793  0.00  0.00    +0.000 C 
BRANCH  31  32
ATOM     32  C   UNL     1       3.941   2.832  18.341  0.00  0.00    +0.000 C 
BRANCH  32  33
ATOM     33  C   UNL     1       4.161   3.479  16.984  0.00  0.00    +0.000 C 
BRANCH  33  34
ATOM     34  C   UNL     1       4.916   4.786  17.149  0.00  0.00    +0.000 C 
BRANCH  34  36
ATOM     35  C   UNL     1       6.439   5.421  19.018  0.00  0.00    +0.000 C 
ATOM     36  C   UNL     1       6.271   4.538  17.797  0.00  0.00    +0.000 C 
ENDBRANCH  34  36
ENDBRANCH  33  34
ENDBRANCH  32  33
ENDBRANCH  31  32
ENDBRANCH  30  31
ENDBRANCH  29  30
ENDBRANCH  28  29
ENDBRANCH  27  28
ENDBRANCH  26  27
ENDBRANCH  25  26
ENDBRANCH  24  25
ENDBRANCH  23  24
ENDBRANCH   1  23
TORSDOF 18
ENDMDL
MODEL 3
REMARK VINA RESULT:      -6.2      2.630      4.515
REMARK  Name = 
REMARK  20 active torsions:
REMARK  status: ('A' for Active; 'I' for Inactive)
REMARK    1  A    between atoms: C_1  and  C_2
REMARK    2  A    between atoms: C_2  and  C_3
REMARK    3  A    between atoms: C_3  and  C_4
REMARK    4  A    between atoms: C_4  and  C_5
REMARK    5  A    between atoms: C_5  and  C_6
REMARK    6  A    between atoms: C_6  and  C_7
REMARK    7  A    between atoms: C_7  and  C_8
REMARK    8  A    between atoms: C_8  and  C_9
REMARK    9  A    between atoms: C_9  and  C_10
REMARK   10  A    between atoms: C_10  and  C_11
REMARK   11  A    between atoms: C_11  and  C_12
REMARK   12  A    between atoms: C_12  and  C_13
REMARK   13  A    between atoms: C_13  and  C_14
REMARK   14  A    between atoms: C_14  and  N_15
REMARK   15  A    between atoms: C_16  and  C_18
REMARK   16  A    between atoms: C_18  and  N_19
REMARK   17  A    between atoms: C_18  and  C_31
REMARK   18  A    between atoms: C_20  and  C_22
REMARK   19  A    between atoms: C_31  and  C_32
REMARK   20  A    between atoms: C_31  and  O_33
REMARK                            x       y       z     vdW  Elec       q    Type
REMARK                         _______ _______ _______ _____ _____    ______ ____
ROOT
ATOM      1  N   UNL     1       0.076  10.108  19.723  0.00  0.00    +0.000 N 
ATOM      2  C   UNL     1       0.404  11.114  20.586  0.00  0.00    +0.000 C 
ATOM      3  O   UNL     1       1.085  12.095  20.233  0.00  0.00    +0.000 OA
ATOM      4  H   UNL     1      -0.324   9.253  20.091  0.00  0.00    +0.000 HD
ENDROOT
BRANCH   2   5
ATOM      5  C   UNL     1      -0.072  10.945  22.018  0.00  0.00    +0.000 C 
BRANCH   5   6
ATOM      6  N   UNL     1      -1.507  11.264  22.090  0.00  0.00    +0.000 N 
ATOM      7  C   UNL     1      -1.980  12.396  22.751  0.00  0.00    +0.000 C 
ATOM      8  O   UNL     1      -1.147  13.120  23.301  0.00  0.00    +0.000 OA
ATOM      9  H   UNL     1      -2.181  10.564  21.793  0.00  0.00    +0.000 HD
BRANCH   7  10
ATOM     10  C   UNL     1      -3.387  12.726  22.672  0.00  0.00    +0.000 A 
ATOM     11  C   UNL     1      -4.067  13.384  21.655  0.00  0.00    +0.000 A 
ATOM     12  C   UNL     1      -5.413  13.511  22.064  0.00  0.00    +0.000 A 
ATOM     13  C   UNL     1      -6.575  14.112  21.533  0.00  0.00    +0.000 A 
ATOM     14  C   UNL     1      -7.763  14.031  22.275  0.00  0.00    +0.000 A 
ATOM     15  C   UNL     1      -7.794  13.385  23.512  0.00  0.00    +0.000 A 
ATOM     16  C   UNL     1      -6.646  12.799  24.060  0.00  0.00    +0.000 A 
ATOM     17  C   UNL     1      -5.489  12.878  23.296  0.00  0.00    +0.000 A 
ATOM     18  O   UNL     1      -4.272  12.369  23.656  0.00  0.00    +0.000 OA
ENDBRANCH   7  10
ENDBRANCH   5   6
BRANCH   5  19
ATOM     19  C   UNL     1       0.214   9.485  22.451  0.00  0.00    +0.000 C 
ATOM     20  C   UNL     1       1.691   9.096  22.311  0.00  0.00    +0.000 C 
BRANCH  19  21
ATOM     21  O   UNL     1      -0.154   9.313  23.824  0.00  0.00    +0.000 OA
ATOM     22  H   UNL     1      -0.961   9.838  23.953  0.00  0.00    +0.000 HD
ENDBRANCH  19  21
ENDBRANCH   5  19
ENDBRANCH   2   5
BRANCH   1  23
ATOM     23  C   UNL     1       0.465  10.173  18.329  0.00  0.00    +0.000 C 
BRANCH  23  24
ATOM     24  C   UNL     1       1.014   8.846  17.814  0.00  0.00    +0.000 C 
BRANCH  24  25
ATOM     25  C   UNL     1       2.166   8.355  18.681  0.00  0.00    +0.000 C 
BRANCH  25  26
ATOM     26  C   UNL     1       3.290   7.797  17.820  0.00  0.00    +0.000 C 
BRANCH  26  27
ATOM     27  C   UNL     1       3.242   6.284  17.799  0.00  0.00    +0.000 C 
BRANCH  27  28
ATOM     28  C   UNL     1       4.455   5.716  18.514  0.00  0.00    +0.000 C 
BRANCH  28  29
ATOM     29  C   UNL     1       4.545   4.221  18.271  0.00  0.00    +0.000 C 
BRANCH  29  30
ATOM     30  C   UNL     1       3.811   3.859  16.993  0.00  0.00    +0.000 C 
BRANCH  30  31
ATOM     31  C   UNL     1       2.685   2.889  17.299  0.00  0.00    +0.000 C 
BRANCH  31  32
ATOM     32  C   UNL     1       2.988   2.127  18.577  0.00  0.00    +0.000 C 
BRANCH  32  33
ATOM     33  C   UNL     1       1.705   1.892  19.356  0.00  0.00    +0.000 C 
BRANCH  33  34
ATOM     34  C   UNL     1       1.675   2.783  20.586  0.00  0.00    +0.000 C 
BRANCH  34  36
ATOM     35  C   UNL     1       1.687   5.268  20.774  0.00  0.00    +0.000 C 
ATOM     36  C   UNL     1       0.903   4.062  20.294  0.00  0.00    +0.000 C 
ENDBRANCH  34  36
ENDBRANCH  33  34
ENDBRANCH  32  33
ENDBRANCH  31  32
ENDBRANCH  30  31
ENDBRANCH  29  30
ENDBRANCH  28  29
ENDBRANCH  27  28
ENDBRANCH  26  27
ENDBRANCH  25  26
ENDBRANCH  24  25
ENDBRANCH  23  24
ENDBRANCH   1  23
TORSDOF 18
ENDMDL
MODEL 4
REMARK VINA RESULT:      -6.1      4.603      7.827
REMARK  Name = 
REMARK  20 active torsions:
REMARK  status: ('A' for Active; 'I' for Inactive)
REMARK    1  A    between atoms: C_1  and  C_2
REMARK    2  A    between atoms: C_2  and  C_3
REMARK    3  A    between atoms: C_3  and  C_4
REMARK    4  A    between atoms: C_4  and  C_5
REMARK    5  A    between atoms: C_5  and  C_6
REMARK    6  A    between atoms: C_6  and  C_7
REMARK    7  A    between atoms: C_7  and  C_8
REMARK    8  A    between atoms: C_8  and  C_9
REMARK    9  A    between atoms: C_9  and  C_10
REMARK   10  A    between atoms: C_10  and  C_11
REMARK   11  A    between atoms: C_11  and  C_12
REMARK   12  A    between atoms: C_12  and  C_13
REMARK   13  A    between atoms: C_13  and  C_14
REMARK   14  A    between atoms: C_14  and  N_15
REMARK   15  A    between atoms: C_16  and  C_18
REMARK   16  A    between atoms: C_18  and  N_19
REMARK   17  A    between atoms: C_18  and  C_31
REMARK   18  A    between atoms: C_20  and  C_22
REMARK   19  A    between atoms: C_31  and  C_32
REMARK   20  A    between atoms: C_31  and  O_33
REMARK                            x       y       z     vdW  Elec       q    Type
REMARK                         _______ _______ _______ _____ _____    ______ ____
ROOT
ATOM      1  N   UNL     1       3.070   3.756  17.981  0.00  0.00    +0.000 N 
ATOM      2  C   UNL     1       3.559   3.261  19.155  0.00  0.00    +0.000 C 
ATOM      3  O   UNL     1       4.578   2.546  19.200  0.00  0.00    +0.000 OA
ATOM      4  H   UNL     1       2.150   4.180  17.969  0.00  0.00    +0.000 HD
ENDROOT
BRANCH   2   5
ATOM      5  C   UNL     1       2.761   3.595  20.403  0.00  0.00    +0.000 C 
BRANCH   5   6
ATOM      6  N   UNL     1       2.162   4.930  20.249  0.00  0.00    +0.000 N 
ATOM      7  C   UNL     1       2.931   6.055  19.957  0.00  0.00    +0.000 C 
ATOM      8  O   UNL     1       4.149   5.897  19.852  0.00  0.00    +0.000 OA
ATOM      9  H   UNL     1       1.192   5.068  20.520  0.00  0.00    +0.000 HD
BRANCH   7  10
ATOM     10  C   UNL     1       2.270   7.314  19.685  0.00  0.00    +0.000 A 
ATOM     11  C   UNL     1       2.280   8.063  18.516  0.00  0.00    +0.000 A 
ATOM     12  C   UNL     1       1.529   9.234  18.761  0.00  0.00    +0.000 A 
ATOM     13  C   UNL     1       1.209  10.398  18.029  0.00  0.00    +0.000 A 
ATOM     14  C   UNL     1       0.418  11.377  18.649  0.00  0.00    +0.000 A 
ATOM     15  C   UNL     1      -0.031  11.212  19.961  0.00  0.00    +0.000 A 
ATOM     16  C   UNL     1       0.291  10.070  20.706  0.00  0.00    +0.000 A 
ATOM     17  C   UNL     1       1.061   9.110  20.061  0.00  0.00    +0.000 A 
ATOM     18  O   UNL     1       1.477   7.932  20.616  0.00  0.00    +0.000 OA
ENDBRANCH   7  10
ENDBRANCH   5   6
BRANCH   5  19
ATOM     19  C   UNL     1       1.681   2.499  20.590  0.00  0.00    +0.000 C 
ATOM     20  C   UNL     1       1.294   2.284  22.059  0.00  0.00    +0.000 C 
BRANCH  19  21
ATOM     21  O   UNL     1       0.496   2.871  19.877  0.00  0.00    +0.000 OA
ATOM     22  H   UNL     1       0.733   2.849  18.935  0.00  0.00    +0.000 HD
ENDBRANCH  19  21
ENDBRANCH   5  19
ENDBRANCH   2   5
BRANCH   1  23
ATOM     23  C   UNL     1       3.761   3.513  16.730  0.00  0.00    +0.000 C 
BRANCH  23  24
ATOM     24  C   UNL     1       5.003   4.383  16.571  0.00  0.00    +0.000 C 
BRANCH  24  25
ATOM     25  C   UNL     1       4.635   5.859  16.498  0.00  0.00    +0.000 C 
BRANCH  25  26
ATOM     26  C   UNL     1       5.699   6.714  17.171  0.00  0.00    +0.000 C 
BRANCH  26  27
ATOM     27  C   UNL     1       6.876   5.862  17.596  0.00  0.00    +0.000 C 
BRANCH  27  28
ATOM     28  C   UNL     1       7.882   6.708  18.357  0.00  0.00    +0.000 C 
BRANCH  28  29
ATOM     29  C   UNL     1       7.947   8.100  17.754  0.00  0.00    +0.000 C 
BRANCH  29  30
ATOM     30  C   UNL     1       8.601   9.058  18.732  0.00  0.00    +0.000 C 
BRANCH  30  31
ATOM     31  C   UNL     1       8.915  10.370  18.040  0.00  0.00    +0.000 C 
BRANCH  31  32
ATOM     32  C   UNL     1       9.938  11.151  18.846  0.00  0.00    +0.000 C 
BRANCH  32  33
ATOM     33  C   UNL     1       9.407  12.543  19.147  0.00  0.00    +0.000 C 
BRANCH  33  34
ATOM     34  C   UNL     1       9.951  13.535  18.134  0.00  0.00    +0.000 C 
BRANCH  34  36
ATOM     35  C   UNL     1      11.750  13.639  16.413  0.00  0.00    +0.000 C 
ATOM     36  C   UNL     1      11.414  13.241  17.836  0.00  0.00    +0.000 C 
ENDBRANCH  34  36
ENDBRANCH  33  34
ENDBRANCH  32  33
ENDBRANCH  31  32
ENDBRANCH  30  31
ENDBRANCH  29  30
ENDBRANCH  28  29
ENDBRANCH  27  28
ENDBRANCH  26  27
ENDBRANCH  25  26
ENDBRANCH  24  25
ENDBRANCH  23  24
ENDBRANCH   1  23
TORSDOF 18
ENDMDL
MODEL 5
REMARK VINA RESULT:      -6.0      2.719      6.075
REMARK  Name = 
REMARK  20 active torsions:
REMARK  status: ('A' for Active; 'I' for Inactive)
REMARK    1  A    between atoms: C_1  and  C_2
REMARK    2  A    between atoms: C_2  and  C_3
REMARK    3  A    between atoms: C_3  and  C_4
REMARK    4  A    between atoms: C_4  and  C_5
REMARK    5  A    between atoms: C_5  and  C_6
REMARK    6  A    between atoms: C_6  and  C_7
REMARK    7  A    between atoms: C_7  and  C_8
REMARK    8  A    between atoms: C_8  and  C_9
REMARK    9  A    between atoms: C_9  and  C_10
REMARK   10  A    between atoms: C_10  and  C_11
REMARK   11  A    between atoms: C_11  and  C_12
REMARK   12  A    between atoms: C_12  and  C_13
REMARK   13  A    between atoms: C_13  and  C_14
REMARK   14  A    between atoms: C_14  and  N_15
REMARK   15  A    between atoms: C_16  and  C_18
REMARK   16  A    between atoms: C_18  and  N_19
REMARK   17  A    between atoms: C_18  and  C_31
REMARK   18  A    between atoms: C_20  and  C_22
REMARK   19  A    between atoms: C_31  and  C_32
REMARK   20  A    between atoms: C_31  and  O_33
REMARK                            x       y       z     vdW  Elec       q    Type
REMARK                         _______ _______ _______ _____ _____    ______ ____
ROOT
ATOM      1  N   UNL     1       1.548   9.711  18.534  0.00  0.00    +0.000 N 
ATOM      2  C   UNL     1       0.252  10.082  18.320  0.00  0.00    +0.000 C 
ATOM      3  O   UNL     1      -0.415   9.641  17.366  0.00  0.00    +0.000 OA
ATOM      4  H   UNL     1       2.104  10.222  19.210  0.00  0.00    +0.000 HD
ENDROOT
BRANCH   2   5
ATOM      5  C   UNL     1      -0.317  11.104  19.289  0.00  0.00    +0.000 C 
BRANCH   5   6
ATOM      6  N   UNL     1       0.640  12.213  19.438  0.00  0.00    +0.000 N 
ATOM      7  C   UNL     1       1.136  12.597  20.683  0.00  0.00    +0.000 C 
ATOM      8  O   UNL     1       0.724  11.985  21.670  0.00  0.00    +0.000 OA
ATOM      9  H   UNL     1       0.820  12.817  18.641  0.00  0.00    +0.000 HD
BRANCH   7  10
ATOM     10  C   UNL     1       2.173  13.604  20.751  0.00  0.00    +0.000 A 
ATOM     11  C   UNL     1       2.245  14.820  20.083  0.00  0.00    +0.000 A 
ATOM     12  C   UNL     1       3.472  15.423  20.440  0.00  0.00    +0.000 A 
ATOM     13  C   UNL     1       4.158  16.602  20.078  0.00  0.00    +0.000 A 
ATOM     14  C   UNL     1       5.408  16.851  20.666  0.00  0.00    +0.000 A 
ATOM     15  C   UNL     1       5.966  15.950  21.574  0.00  0.00    +0.000 A 
ATOM     16  C   UNL     1       5.305  14.767  21.931  0.00  0.00    +0.000 A 
ATOM     17  C   UNL     1       4.062  14.556  21.348  0.00  0.00    +0.000 A 
ATOM     18  O   UNL     1       3.264  13.467  21.568  0.00  0.00    +0.000 OA
ENDBRANCH   7  10
ENDBRANCH   5   6
BRANCH   5  19
ATOM     19  C   UNL     1      -1.677  11.591  18.729  0.00  0.00    +0.000 C 
ATOM     20  C   UNL     1      -2.489  12.402  19.748  0.00  0.00    +0.000 C 
BRANCH  19  21
ATOM     21  O   UNL     1      -1.452  12.426  17.587  0.00  0.00    +0.000 OA
ATOM     22  H   UNL     1      -0.956  11.883  16.953  0.00  0.00    +0.000 HD
ENDBRANCH  19  21
ENDBRANCH   5  19
ENDBRANCH   2   5
BRANCH   1  23
ATOM     23  C   UNL     1       2.188   8.730  17.681  0.00  0.00    +0.000 C 
BRANCH  23  24
ATOM     24  C   UNL     1       2.016   7.305  18.199  0.00  0.00    +0.000 C 
BRANCH  24  25
ATOM     25  C   UNL     1       2.349   7.216  19.682  0.00  0.00    +0.000 C 
BRANCH  25  26
ATOM     26  C   UNL     1       2.882   5.834  20.033  0.00  0.00    +0.000 C 
BRANCH  26  27
ATOM     27  C   UNL     1       1.864   5.062  20.845  0.00  0.00    +0.000 C 
BRANCH  27  28
ATOM     28  C   UNL     1       1.040   4.171  19.933  0.00  0.00    +0.000 C 
BRANCH  28  29
ATOM     29  C   UNL     1       1.398   2.715  20.172  0.00  0.00    +0.000 C 
BRANCH  29  30
ATOM     30  C   UNL     1       1.689   2.030  18.850  0.00  0.00    +0.000 C 
BRANCH  30  31
ATOM     31  C   UNL     1       2.158   3.049  17.830  0.00  0.00    +0.000 C 
BRANCH  31  32
ATOM     32  C   UNL     1       3.663   2.951  17.651  0.00  0.00    +0.000 C 
BRANCH  32  33
ATOM     33  C   UNL     1       4.189   4.212  16.986  0.00  0.00    +0.000 C 
BRANCH  33  34
ATOM     34  C   UNL     1       5.626   4.461  17.410  0.00  0.00    +0.000 C 
BRANCH  34  36
ATOM     35  C   UNL     1       5.811   4.041  14.960  0.00  0.00    +0.000 C 
ATOM     36  C   UNL     1       6.529   4.561  16.189  0.00  0.00    +0.000 C 
ENDBRANCH  34  36
ENDBRANCH  33  34
ENDBRANCH  32  33
ENDBRANCH  31  32
ENDBRANCH  30  31
ENDBRANCH  29  30
ENDBRANCH  28  29
ENDBRANCH  27  28
ENDBRANCH  26  27
ENDBRANCH  25  26
ENDBRANCH  24  25
ENDBRANCH  23  24
ENDBRANCH   1  23
TORSDOF 18
ENDMDL
MODEL 6
REMARK VINA RESULT:      -6.0      4.645     10.589
REMARK  Name = 
REMARK  20 active torsions:
REMARK  status: ('A' for Active; 'I' for Inactive)
REMARK    1  A    between atoms: C_1  and  C_2
REMARK    2  A    between atoms: C_2  and  C_3
REMARK    3  A    between atoms: C_3  and  C_4
REMARK    4  A    between atoms: C_4  and  C_5
REMARK    5  A    between atoms: C_5  and  C_6
REMARK    6  A    between atoms: C_6  and  C_7
REMARK    7  A    between atoms: C_7  and  C_8
REMARK    8  A    between atoms: C_8  and  C_9
REMARK    9  A    between atoms: C_9  and  C_10
REMARK   10  A    between atoms: C_10  and  C_11
REMARK   11  A    between atoms: C_11  and  C_12
REMARK   12  A    between atoms: C_12  and  C_13
REMARK   13  A    between atoms: C_13  and  C_14
REMARK   14  A    between atoms: C_14  and  N_15
REMARK   15  A    between atoms: C_16  and  C_18
REMARK   16  A    between atoms: C_18  and  N_19
REMARK   17  A    between atoms: C_18  and  C_31
REMARK   18  A    between atoms: C_20  and  C_22
REMARK   19  A    between atoms: C_31  and  C_32
REMARK   20  A    between atoms: C_31  and  O_33
REMARK                            x       y       z     vdW  Elec       q    Type
REMARK                         _______ _______ _______ _____ _____    ______ ____
ROOT
ATOM      1  N   UNL     1       4.057   5.122  18.681  0.00  0.00    +0.000 N 
ATOM      2  C   UNL     1       5.415   5.091  18.818  0.00  0.00    +0.000 C 
ATOM      3  O   UNL     1       5.966   4.749  19.880  0.00  0.00    +0.000 OA
ATOM      4  H   UNL     1       3.653   5.571  17.867  0.00  0.00    +0.000 HD
ENDROOT
BRANCH   2   5
ATOM      5  C   UNL     1       6.217   5.542  17.610  0.00  0.00    +0.000 C 
BRANCH   5   6
ATOM      6  N   UNL     1       7.144   6.611  18.018  0.00  0.00    +0.000 N 
ATOM      7  C   UNL     1       7.131   7.867  17.415  0.00  0.00    +0.000 C 
ATOM      8  O   UNL     1       6.324   8.050  16.502  0.00  0.00    +0.000 OA
ATOM      9  H   UNL     1       7.915   6.382  18.638  0.00  0.00    +0.000 HD
BRANCH   7  10
ATOM     10  C   UNL     1       7.973   8.917  17.950  0.00  0.00    +0.000 A 
ATOM     11  C   UNL     1       8.832   8.866  19.040  0.00  0.00    +0.000 A 
ATOM     12  C   UNL     1       9.391  10.155  19.193  0.00  0.00    +0.000 A 
ATOM     13  C   UNL     1      10.268  10.770  20.114  0.00  0.00    +0.000 A 
ATOM     14  C   UNL     1      10.584  12.124  19.926  0.00  0.00    +0.000 A 
ATOM     15  C   UNL     1      10.039  12.849  18.865  0.00  0.00    +0.000 A 
ATOM     16  C   UNL     1       9.155  12.257  17.953  0.00  0.00    +0.000 A 
ATOM     17  C   UNL     1       8.873  10.911  18.153  0.00  0.00    +0.000 A 
ATOM     18  O   UNL     1       8.039  10.158  17.374  0.00  0.00    +0.000 OA
ENDBRANCH   7  10
ENDBRANCH   5   6
BRANCH   5  19
ATOM     19  C   UNL     1       6.973   4.311  17.048  0.00  0.00    +0.000 C 
ATOM     20  C   UNL     1       7.253   4.415  15.544  0.00  0.00    +0.000 C 
BRANCH  19  21
ATOM     21  O   UNL     1       8.232   4.178  17.717  0.00  0.00    +0.000 OA
ATOM     22  H   UNL     1       8.827   3.742  17.084  0.00  0.00    +0.000 HD
ENDBRANCH  19  21
ENDBRANCH   5  19
ENDBRANCH   2   5
BRANCH   1  23
ATOM     23  C   UNL     1       3.193   4.698  19.764  0.00  0.00    +0.000 C 
BRANCH  23  24
ATOM     24  C   UNL     1       2.184   5.771  20.160  0.00  0.00    +0.000 C 
BRANCH  24  25
ATOM     25  C   UNL     1       2.505   7.101  19.492  0.00  0.00    +0.000 C 
BRANCH  25  26
ATOM     26  C   UNL     1       1.522   8.176  19.932  0.00  0.00    +0.000 C 
BRANCH  26  27
ATOM     27  C   UNL     1       0.973   7.865  21.308  0.00  0.00    +0.000 C 
BRANCH  27  28
ATOM     28  C   UNL     1       0.083   9.001  21.781  0.00  0.00    +0.000 C 
BRANCH  28  29
ATOM     29  C   UNL     1       0.764  10.333  21.523  0.00  0.00    +0.000 C 
BRANCH  29  30
ATOM     30  C   UNL     1      -0.279  11.412  21.300  0.00  0.00    +0.000 C 
BRANCH  30  31
ATOM     31  C   UNL     1      -0.375  11.742  19.822  0.00  0.00    +0.000 C 
BRANCH  31  32
ATOM     32  C   UNL     1      -1.736  11.338  19.287  0.00  0.00    +0.000 C 
BRANCH  32  33
ATOM     33  C   UNL     1      -1.574  10.560  17.992  0.00  0.00    +0.000 C 
BRANCH  33  34
ATOM     34  C   UNL     1      -2.889  10.539  17.231  0.00  0.00    +0.000 C 
BRANCH  34  36
ATOM     35  C   UNL     1      -3.174   9.798  14.869  0.00  0.00    +0.000 C 
ATOM     36  C   UNL     1      -2.662  10.903  15.771  0.00  0.00    +0.000 C 
ENDBRANCH  34  36
ENDBRANCH  33  34
ENDBRANCH  32  33
ENDBRANCH  31  32
ENDBRANCH  30  31
ENDBRANCH  29  30
ENDBRANCH  28  29
ENDBRANCH  27  28
ENDBRANCH  26  27
ENDBRANCH  25  26
ENDBRANCH  24  25
ENDBRANCH  23  24
ENDBRANCH   1  23
TORSDOF 18
ENDMDL
MODEL 7
REMARK VINA RESULT:      -6.0      2.338      3.460
REMARK  Name = 
REMARK  20 active torsions:
REMARK  status: ('A' for Active; 'I' for Inactive)
REMARK    1  A    between atoms: C_1  and  C_2
REMARK    2  A    between atoms: C_2  and  C_3
REMARK    3  A    between atoms: C_3  and  C_4
REMARK    4  A    between atoms: C_4  and  C_5
REMARK    5  A    between atoms: C_5  and  C_6
REMARK    6  A    between atoms: C_6  and  C_7
REMARK    7  A    between atoms: C_7  and  C_8
REMARK    8  A    between atoms: C_8  and  C_9
REMARK    9  A    between atoms: C_9  and  C_10
REMARK   10  A    between atoms: C_10  and  C_11
REMARK   11  A    between atoms: C_11  and  C_12
REMARK   12  A    between atoms: C_12  and  C_13
REMARK   13  A    between atoms: C_13  and  C_14
REMARK   14  A    between atoms: C_14  and  N_15
REMARK   15  A    between atoms: C_16  and  C_18
REMARK   16  A    between atoms: C_18  and  N_19
REMARK   17  A    between atoms: C_18  and  C_31
REMARK   18  A    between atoms: C_20  and  C_22
REMARK   19  A    between atoms: C_31  and  C_32
REMARK   20  A    between atoms: C_31  and  O_33
REMARK                            x       y       z     vdW  Elec       q    Type
REMARK                         _______ _______ _______ _____ _____    ______ ____
ROOT
ATOM      1  N   UNL     1       1.480   9.362  19.407  0.00  0.00    +0.000 N 
ATOM      2  C   UNL     1       0.417  10.165  19.703  0.00  0.00    +0.000 C 
ATOM      3  O   UNL     1      -0.375  10.566  18.830  0.00  0.00    +0.000 OA
ATOM      4  H   UNL     1       2.192   9.205  20.111  0.00  0.00    +0.000 HD
ENDROOT
BRANCH   2   5
ATOM      5  C   UNL     1       0.280  10.579  21.158  0.00  0.00    +0.000 C 
BRANCH   5   6
ATOM      6  N   UNL     1      -1.025  11.233  21.352  0.00  0.00    +0.000 N 
ATOM      7  C   UNL     1      -1.137  12.502  21.916  0.00  0.00    +0.000 C 
ATOM      8  O   UNL     1      -0.097  13.058  22.273  0.00  0.00    +0.000 OA
ATOM      9  H   UNL     1      -1.872  10.687  21.224  0.00  0.00    +0.000 HD
BRANCH   7  10
ATOM     10  C   UNL     1      -2.434  13.146  21.958  0.00  0.00    +0.000 A 
ATOM     11  C   UNL     1      -3.598  12.790  21.290  0.00  0.00    +0.000 A 
ATOM     12  C   UNL     1      -4.579  13.754  21.616  0.00  0.00    +0.000 A 
ATOM     13  C   UNL     1      -5.917  13.998  21.237  0.00  0.00    +0.000 A 
ATOM     14  C   UNL     1      -6.573  15.108  21.791  0.00  0.00    +0.000 A 
ATOM     15  C   UNL     1      -5.917  15.957  22.684  0.00  0.00    +0.000 A 
ATOM     16  C   UNL     1      -4.584  15.738  23.057  0.00  0.00    +0.000 A 
ATOM     17  C   UNL     1      -3.966  14.622  22.506  0.00  0.00    +0.000 A 
ATOM     18  O   UNL     1      -2.675  14.240  22.746  0.00  0.00    +0.000 OA
ENDBRANCH   7  10
ENDBRANCH   5   6
BRANCH   5  19
ATOM     19  C   UNL     1       0.422   9.310  22.035  0.00  0.00    +0.000 C 
ATOM     20  C   UNL     1      -0.071   9.517  23.473  0.00  0.00    +0.000 C 
BRANCH  19  21
ATOM     21  O   UNL     1      -0.343   8.245  21.461  0.00  0.00    +0.000 OA
ATOM     22  H   UNL     1      -1.191   8.638  21.195  0.00  0.00    +0.000 HD
ENDBRANCH  19  21
ENDBRANCH   5  19
ENDBRANCH   2   5
BRANCH   1  23
ATOM     23  C   UNL     1       1.698   8.891  18.053  0.00  0.00    +0.000 C 
BRANCH  23  24
ATOM     24  C   UNL     1       2.467   7.574  18.011  0.00  0.00    +0.000 C 
BRANCH  24  25
ATOM     25  C   UNL     1       2.676   7.014  19.411  0.00  0.00    +0.000 C 
BRANCH  25  26
ATOM     26  C   UNL     1       1.813   5.780  19.633  0.00  0.00    +0.000 C 
BRANCH  26  27
ATOM     27  C   UNL     1       2.284   5.014  20.851  0.00  0.00    +0.000 C 
BRANCH  27  28
ATOM     28  C   UNL     1       2.179   3.520  20.598  0.00  0.00    +0.000 C 
BRANCH  28  29
ATOM     29  C   UNL     1       0.850   3.201  19.937  0.00  0.00    +0.000 C 
BRANCH  29  30
ATOM     30  C   UNL     1       1.070   2.282  18.750  0.00  0.00    +0.000 C 
BRANCH  30  31
ATOM     31  C   UNL     1       2.534   2.294  18.351  0.00  0.00    +0.000 C 
BRANCH  31  32
ATOM     32  C   UNL     1       2.750   3.253  17.194  0.00  0.00    +0.000 C 
BRANCH  32  33
ATOM     33  C   UNL     1       4.237   3.413  16.924  0.00  0.00    +0.000 C 
BRANCH  33  34
ATOM     34  C   UNL     1       4.673   4.831  17.250  0.00  0.00    +0.000 C 
BRANCH  34  36
ATOM     35  C   UNL     1       7.008   4.819  18.120  0.00  0.00    +0.000 C 
ATOM     36  C   UNL     1       5.541   4.844  18.499  0.00  0.00    +0.000 C 
ENDBRANCH  34  36
ENDBRANCH  33  34
ENDBRANCH  32  33
ENDBRANCH  31  32
ENDBRANCH  30  31
ENDBRANCH  29  30
ENDBRANCH  28  29
ENDBRANCH  27  28
ENDBRANCH  26  27
ENDBRANCH  25  26
ENDBRANCH  24  25
ENDBRANCH  23  24
ENDBRANCH   1  23
TORSDOF 18
ENDMDL
MODEL 8
REMARK VINA RESULT:      -6.0      4.974      8.394
REMARK  Name = 
REMARK  20 active torsions:
REMARK  status: ('A' for Active; 'I' for Inactive)
REMARK    1  A    between atoms: C_1  and  C_2
REMARK    2  A    between atoms: C_2  and  C_3
REMARK    3  A    between atoms: C_3  and  C_4
REMARK    4  A    between atoms: C_4  and  C_5
REMARK    5  A    between atoms: C_5  and  C_6
REMARK    6  A    between atoms: C_6  and  C_7
REMARK    7  A    between atoms: C_7  and  C_8
REMARK    8  A    between atoms: C_8  and  C_9
REMARK    9  A    between atoms: C_9  and  C_10
REMARK   10  A    between atoms: C_10  and  C_11
REMARK   11  A    between atoms: C_11  and  C_12
REMARK   12  A    between atoms: C_12  and  C_13
REMARK   13  A    between atoms: C_13  and  C_14
REMARK   14  A    between atoms: C_14  and  N_15
REMARK   15  A    between atoms: C_16  and  C_18
REMARK   16  A    between atoms: C_18  and  N_19
REMARK   17  A    between atoms: C_18  and  C_31
REMARK   18  A    between atoms: C_20  and  C_22
REMARK   19  A    between atoms: C_31  and  C_32
REMARK   20  A    between atoms: C_31  and  O_33
REMARK                            x       y       z     vdW  Elec       q    Type
REMARK                         _______ _______ _______ _____ _____    ______ ____
ROOT
ATOM      1  N   UNL     1       5.559   5.220  19.370  0.00  0.00    +0.000 N 
ATOM      2  C   UNL     1       4.854   4.393  18.543  0.00  0.00    +0.000 C 
ATOM      3  O   UNL     1       5.366   3.867  17.538  0.00  0.00    +0.000 OA
ATOM      4  H   UNL     1       5.063   5.761  20.068  0.00  0.00    +0.000 HD
ENDROOT
BRANCH   2   5
ATOM      5  C   UNL     1       3.391   4.189  18.896  0.00  0.00    +0.000 C 
BRANCH   5   6
ATOM      6  N   UNL     1       2.800   5.482  19.275  0.00  0.00    +0.000 N 
ATOM      7  C   UNL     1       2.904   6.608  18.460  0.00  0.00    +0.000 C 
ATOM      8  O   UNL     1       3.535   6.490  17.408  0.00  0.00    +0.000 OA
ATOM      9  H   UNL     1       2.450   5.604  20.221  0.00  0.00    +0.000 HD
BRANCH   7  10
ATOM     10  C   UNL     1       2.189   7.814  18.824  0.00  0.00    +0.000 A 
ATOM     11  C   UNL     1       1.870   8.905  18.026  0.00  0.00    +0.000 A 
ATOM     12  C   UNL     1       1.214   9.848  18.849  0.00  0.00    +0.000 A 
ATOM     13  C   UNL     1       0.698  11.151  18.675  0.00  0.00    +0.000 A 
ATOM     14  C   UNL     1       0.109  11.785  19.779  0.00  0.00    +0.000 A 
ATOM     15  C   UNL     1       0.046  11.151  21.021  0.00  0.00    +0.000 A 
ATOM     16  C   UNL     1       0.567   9.865  21.214  0.00  0.00    +0.000 A 
ATOM     17  C   UNL     1       1.128   9.254  20.099  0.00  0.00    +0.000 A 
ATOM     18  O   UNL     1       1.686   8.006  20.084  0.00  0.00    +0.000 OA
ENDBRANCH   7  10
ENDBRANCH   5   6
BRANCH   5  19
ATOM     19  C   UNL     1       2.681   3.574  17.663  0.00  0.00    +0.000 C 
ATOM     20  C   UNL     1       2.451   2.063  17.794  0.00  0.00    +0.000 C 
BRANCH  19  21
ATOM     21  O   UNL     1       1.403   4.196  17.489  0.00  0.00    +0.000 OA
ATOM     22  H   UNL     1       1.351   4.442  16.550  0.00  0.00    +0.000 HD
ENDBRANCH  19  21
ENDBRANCH   5  19
ENDBRANCH   2   5
BRANCH   1  23
ATOM     23  C   UNL     1       6.967   5.473  19.138  0.00  0.00    +0.000 C 
BRANCH  23  24
ATOM     24  C   UNL     1       7.233   6.067  17.759  0.00  0.00    +0.000 C 
BRANCH  24  25
ATOM     25  C   UNL     1       6.860   7.543  17.714  0.00  0.00    +0.000 C 
BRANCH  25  26
ATOM     26  C   UNL     1       8.083   8.400  17.419  0.00  0.00    +0.000 C 
BRANCH  26  27
ATOM     27  C   UNL     1       8.660   8.962  18.701  0.00  0.00    +0.000 C 
BRANCH  27  28
ATOM     28  C   UNL     1       8.955  10.442  18.532  0.00  0.00    +0.000 C 
BRANCH  28  29
ATOM     29  C   UNL     1       9.780  10.941  19.705  0.00  0.00    +0.000 C 
BRANCH  29  30
ATOM     30  C   UNL     1      11.023  11.649  19.199  0.00  0.00    +0.000 C 
BRANCH  30  31
ATOM     31  C   UNL     1      11.002  11.713  17.683  0.00  0.00    +0.000 C 
BRANCH  31  32
ATOM     32  C   UNL     1      10.803  13.146  17.225  0.00  0.00    +0.000 C 
BRANCH  32  33
ATOM     33  C   UNL     1      10.672  14.062  18.431  0.00  0.00    +0.000 C 
BRANCH  33  34
ATOM     34  C   UNL     1       9.426  14.921  18.296  0.00  0.00    +0.000 C 
BRANCH  34  36
ATOM     35  C   UNL     1       7.099  14.281  17.675  0.00  0.00    +0.000 C 
ATOM     36  C   UNL     1       8.193  14.134  18.714  0.00  0.00    +0.000 C 
ENDBRANCH  34  36
ENDBRANCH  33  34
ENDBRANCH  32  33
ENDBRANCH  31  32
ENDBRANCH  30  31
ENDBRANCH  29  30
ENDBRANCH  28  29
ENDBRANCH  27  28
ENDBRANCH  26  27
ENDBRANCH  25  26
ENDBRANCH  24  25
ENDBRANCH  23  24
ENDBRANCH   1  23
TORSDOF 18
ENDMDL
MODEL 9
REMARK VINA RESULT:      -5.9      1.981      2.557
REMARK  Name = 
REMARK  20 active torsions:
REMARK  status: ('A' for Active; 'I' for Inactive)
REMARK    1  A    between atoms: C_1  and  C_2
REMARK    2  A    between atoms: C_2  and  C_3
REMARK    3  A    between atoms: C_3  and  C_4
REMARK    4  A    between atoms: C_4  and  C_5
REMARK    5  A    between atoms: C_5  and  C_6
REMARK    6  A    between atoms: C_6  and  C_7
REMARK    7  A    between atoms: C_7  and  C_8
REMARK    8  A    between atoms: C_8  and  C_9
REMARK    9  A    between atoms: C_9  and  C_10
REMARK   10  A    between atoms: C_10  and  C_11
REMARK   11  A    between atoms: C_11  and  C_12
REMARK   12  A    between atoms: C_12  and  C_13
REMARK   13  A    between atoms: C_13  and  C_14
REMARK   14  A    between atoms: C_14  and  N_15
REMARK   15  A    between atoms: C_16  and  C_18
REMARK   16  A    between atoms: C_18  and  N_19
REMARK   17  A    between atoms: C_18  and  C_31
REMARK   18  A    between atoms: C_20  and  C_22
REMARK   19  A    between atoms: C_31  and  C_32
REMARK   20  A    between atoms: C_31  and  O_33
REMARK                            x       y       z     vdW  Elec       q    Type
REMARK                         _______ _______ _______ _____ _____    ______ ____
ROOT
ATOM      1  N   UNL     1       1.728   9.644  17.886  0.00  0.00    +0.000 N 
ATOM      2  C   UNL     1       0.841  10.128  18.804  0.00  0.00    +0.000 C 
ATOM      3  O   UNL     1       0.257   9.386  19.615  0.00  0.00    +0.000 OA
ATOM      4  H   UNL     1       2.044  10.250  17.137  0.00  0.00    +0.000 HD
ENDROOT
BRANCH   2   5
ATOM      5  C   UNL     1       0.572  11.621  18.748  0.00  0.00    +0.000 C 
BRANCH   5   6
ATOM      6  N   UNL     1      -0.491  11.956  19.709  0.00  0.00    +0.000 N 
ATOM      7  C   UNL     1      -1.794  12.236  19.300  0.00  0.00    +0.000 C 
ATOM      8  O   UNL     1      -2.024  12.216  18.090  0.00  0.00    +0.000 OA
ATOM      9  H   UNL     1      -0.239  12.147  20.675  0.00  0.00    +0.000 HD
BRANCH   7  10
ATOM     10  C   UNL     1      -2.824  12.426  20.300  0.00  0.00    +0.000 A 
ATOM     11  C   UNL     1      -4.176  12.684  20.111  0.00  0.00    +0.000 A 
ATOM     12  C   UNL     1      -4.755  12.839  21.391  0.00  0.00    +0.000 A 
ATOM     13  C   UNL     1      -6.038  13.161  21.884  0.00  0.00    +0.000 A 
ATOM     14  C   UNL     1      -6.217  13.234  23.273  0.00  0.00    +0.000 A 
ATOM     15  C   UNL     1      -5.152  13.007  24.147  0.00  0.00    +0.000 A 
ATOM     16  C   UNL     1      -3.870  12.702  23.674  0.00  0.00    +0.000 A 
ATOM     17  C   UNL     1      -3.726  12.619  22.294  0.00  0.00    +0.000 A 
ATOM     18  O   UNL     1      -2.559  12.334  21.641  0.00  0.00    +0.000 OA
ENDBRANCH   7  10
ENDBRANCH   5   6
BRANCH   5  19
ATOM     19  C   UNL     1       1.895  12.360  19.076  0.00  0.00    +0.000 C 
ATOM     20  C   UNL     1       2.282  13.396  18.013  0.00  0.00    +0.000 C 
BRANCH  19  21
ATOM     21  O   UNL     1       1.761  13.047  20.325  0.00  0.00    +0.000 OA
ATOM     22  H   UNL     1       2.598  12.906  20.799  0.00  0.00    +0.000 HD
ENDBRANCH  19  21
ENDBRANCH   5  19
ENDBRANCH   2   5
BRANCH   1  23
ATOM     23  C   UNL     1       2.072   8.237  17.858  0.00  0.00    +0.000 C 
BRANCH  23  24
ATOM     24  C   UNL     1       2.472   7.707  19.232  0.00  0.00    +0.000 C 
BRANCH  24  25
ATOM     25  C   UNL     1       2.450   6.185  19.262  0.00  0.00    +0.000 C 
BRANCH  25  26
ATOM     26  C   UNL     1       1.777   5.680  20.530  0.00  0.00    +0.000 C 
BRANCH  26  27
ATOM     27  C   UNL     1       1.876   4.172  20.621  0.00  0.00    +0.000 C 
BRANCH  27  28
ATOM     28  C   UNL     1       0.744   3.530  19.840  0.00  0.00    +0.000 C 
BRANCH  28  29
ATOM     29  C   UNL     1       1.288   2.884  18.579  0.00  0.00    +0.000 C 
BRANCH  29  30
ATOM     30  C   UNL     1       2.422   1.938  18.930  0.00  0.00    +0.000 C 
BRANCH  30  31
ATOM     31  C   UNL     1       3.518   2.033  17.886  0.00  0.00    +0.000 C 
BRANCH  31  32
ATOM     32  C   UNL     1       3.482   3.395  17.216  0.00  0.00    +0.000 C 
BRANCH  32  33
ATOM     33  C   UNL     1       4.811   4.105  17.411  0.00  0.00    +0.000 C 
BRANCH  33  34
ATOM     34  C   UNL     1       4.857   5.363  16.562  0.00  0.00    +0.000 C 
BRANCH  34  36
ATOM     35  C   UNL     1       6.723   4.353  15.255  0.00  0.00    +0.000 C 
ATOM     36  C   UNL     1       5.376   5.044  15.168  0.00  0.00    +0.000 C 
ENDBRANCH  34  36
ENDBRANCH  33  34
ENDBRANCH  32  33
ENDBRANCH  31  32
ENDBRANCH  30  31
ENDBRANCH  29  30
ENDBRANCH  28  29
ENDBRANCH  27  28
ENDBRANCH  26  27
ENDBRANCH  25  26
ENDBRANCH  24  25
ENDBRANCH  23  24
ENDBRANCH   1  23
TORSDOF 18
ENDMDL
