MODEL 1
REMARK VINA RESULT:      -7.1      0.000      0.000
REMARK  Name = 
REMARK  3 active torsions:
REMARK  status: ('A' for Active; 'I' for Inactive)
REMARK    1  A    between atoms: C_1  and  C_2
REMARK    2  A    between atoms: C_6  and  C_7
REMARK    3  A    between atoms: C_16  and  N_17
REMARK                            x       y       z     vdW  Elec       q    Type
REMARK                         _______ _______ _______ _____ _____    ______ ____
ROOT
ATOM      1  C   UNL     1       2.643   3.141  20.688  0.00  0.00    +0.000 C 
ATOM      2  C   UNL     1       3.241   3.952  19.568  0.00  0.00    +0.000 A 
ATOM      3  N   UNL     1       3.869   3.219  18.603  0.00  0.00    +0.000 NA
ATOM      4  C   UNL     1       4.356   3.980  17.609  0.00  0.00    +0.000 A 
ATOM      5  O   UNL     1       5.006   3.506  16.503  0.00  0.00    +0.000 OA
ATOM      6  C   UNL     1       5.283   4.635  15.772  0.00  0.00    +0.000 A 
ATOM      7  N   UNL     1       4.883   5.768  16.325  0.00  0.00    +0.000 NA
ATOM      8  C   UNL     1       4.287   5.359  17.487  0.00  0.00    +0.000 A 
ATOM      9  C   UNL     1       3.641   6.078  18.494  0.00  0.00    +0.000 A 
ATOM     10  C   UNL     1       3.137   5.364  19.588  0.00  0.00    +0.000 A 
ENDROOT
BRANCH   6  11
ATOM     11  C   UNL     1       5.945   4.454  14.481  0.00  0.00    +0.000 A 
ATOM     12  C   UNL     1       5.420   3.638  13.469  0.00  0.00    +0.000 A 
ATOM     13  C   UNL     1       6.073   3.525  12.237  0.00  0.00    +0.000 A 
ATOM     14  C   UNL     1       7.259   4.220  12.005  0.00  0.00    +0.000 A 
ATOM     15  C   UNL     1       7.799   5.024  13.004  0.00  0.00    +0.000 A 
ATOM     16  C   UNL     1       7.146   5.139  14.233  0.00  0.00    +0.000 A 
ENDBRANCH   6  11
BRANCH  10  17
ATOM     17  N   UNL     1       2.353   6.056  20.528  0.00  0.00    +0.000 N 
ATOM     18  H   UNL     1       1.418   5.675  20.650  0.00  0.00    +0.000 HD
ATOM     19  H   UNL     1       2.341   7.066  20.422  0.00  0.00    +0.000 HD
ENDBRANCH  10  17
TORSDOF 2
ENDMDL
MODEL 2
REMARK VINA RESULT:      -7.0      0.347      1.220
REMARK  Name = 
REMARK  3 active torsions:
REMARK  status: ('A' for Active; 'I' for Inactive)
REMARK    1  A    between atoms: C_1  and  C_2
REMARK    2  A    between atoms: C_6  and  C_7
REMARK    3  A    between atoms: C_16  and  N_17
REMARK                            x       y       z     vdW  Elec       q    Type
REMARK                         _______ _______ _______ _____ _____    ______ ____
ROOT
ATOM      1  C   UNL     1       2.160   2.787  20.487  0.00  0.00    +0.000 C 
ATOM      2  C   UNL     1       2.940   3.644  19.524  0.00  0.00    +0.000 A 
ATOM      3  N   UNL     1       3.458   2.975  18.453  0.00  0.00    +0.000 NA
ATOM      4  C   UNL     1       4.114   3.783  17.605  0.00  0.00    +0.000 A 
ATOM      5  O   UNL     1       4.706   3.383  16.439  0.00  0.00    +0.000 OA
ATOM      6  C   UNL     1       5.215   4.545  15.911  0.00  0.00    +0.000 A 
ATOM      7  N   UNL     1       5.011   5.626  16.645  0.00  0.00    +0.000 NA
ATOM      8  C   UNL     1       4.307   5.151  17.718  0.00  0.00    +0.000 A 
ATOM      9  C   UNL     1       3.768   5.803  18.827  0.00  0.00    +0.000 A 
ATOM     10  C   UNL     1       3.098   5.027  19.782  0.00  0.00    +0.000 A 
ENDROOT
BRANCH   6  11
ATOM     11  C   UNL     1       5.880   4.457  14.612  0.00  0.00    +0.000 A 
ATOM     12  C   UNL     1       7.081   5.123  14.330  0.00  0.00    +0.000 A 
ATOM     13  C   UNL     1       7.697   4.980  13.082  0.00  0.00    +0.000 A 
ATOM     14  C   UNL     1       7.119   4.176  12.102  0.00  0.00    +0.000 A 
ATOM     15  C   UNL     1       5.920   3.518  12.362  0.00  0.00    +0.000 A 
ATOM     16  C   UNL     1       5.307   3.658  13.609  0.00  0.00    +0.000 A 
ENDBRANCH   6  11
BRANCH  10  17
ATOM     17  N   UNL     1       2.421   5.690  20.821  0.00  0.00    +0.000 N 
ATOM     18  H   UNL     1       2.311   6.690  20.674  0.00  0.00    +0.000 HD
ATOM     19  H   UNL     1       2.751   5.477  21.757  0.00  0.00    +0.000 HD
ENDBRANCH  10  17
TORSDOF 2
ENDMDL
MODEL 3
REMARK VINA RESULT:      -7.0      1.575      6.506
REMARK  Name = 
REMARK  3 active torsions:
REMARK  status: ('A' for Active; 'I' for Inactive)
REMARK    1  A    between atoms: C_1  and  C_2
REMARK    2  A    between atoms: C_6  and  C_7
REMARK    3  A    between atoms: C_16  and  N_17
REMARK                            x       y       z     vdW  Elec       q    Type
REMARK                         _______ _______ _______ _____ _____    ______ ____
ROOT
ATOM      1  C   UNL     1       6.336   3.638  12.698  0.00  0.00    +0.000 C 
ATOM      2  C   UNL     1       6.156   4.121  14.113  0.00  0.00    +0.000 A 
ATOM      3  N   UNL     1       5.096   3.573  14.775  0.00  0.00    +0.000 NA
ATOM      4  C   UNL     1       4.995   4.006  16.042  0.00  0.00    +0.000 A 
ATOM      5  O   UNL     1       4.045   3.600  16.938  0.00  0.00    +0.000 OA
ATOM      6  C   UNL     1       4.360   4.282  18.088  0.00  0.00    +0.000 A 
ATOM      7  N   UNL     1       5.406   5.087  17.988  0.00  0.00    +0.000 NA
ATOM      8  C   UNL     1       5.818   4.911  16.695  0.00  0.00    +0.000 A 
ATOM      9  C   UNL     1       6.890   5.456  15.988  0.00  0.00    +0.000 A 
ATOM     10  C   UNL     1       7.046   5.086  14.646  0.00  0.00    +0.000 A 
ENDROOT
BRANCH   6  11
ATOM     11  C   UNL     1       3.542   4.021  19.270  0.00  0.00    +0.000 A 
ATOM     12  C   UNL     1       2.552   4.908  19.717  0.00  0.00    +0.000 A 
ATOM     13  C   UNL     1       1.770   4.596  20.834  0.00  0.00    +0.000 A 
ATOM     14  C   UNL     1       1.972   3.400  21.521  0.00  0.00    +0.000 A 
ATOM     15  C   UNL     1       2.958   2.515  21.097  0.00  0.00    +0.000 A 
ATOM     16  C   UNL     1       3.737   2.824  19.980  0.00  0.00    +0.000 A 
ENDBRANCH   6  11
BRANCH  10  17
ATOM     17  N   UNL     1       8.206   5.506  13.971  0.00  0.00    +0.000 N 
ATOM     18  H   UNL     1       8.209   5.292  12.977  0.00  0.00    +0.000 HD
ATOM     19  H   UNL     1       9.082   5.252  14.418  0.00  0.00    +0.000 HD
ENDBRANCH  10  17
TORSDOF 2
ENDMDL
MODEL 4
REMARK VINA RESULT:      -6.9      1.574      6.492
REMARK  Name = 
REMARK  3 active torsions:
REMARK  status: ('A' for Active; 'I' for Inactive)
REMARK    1  A    between atoms: C_1  and  C_2
REMARK    2  A    between atoms: C_6  and  C_7
REMARK    3  A    between atoms: C_16  and  N_17
REMARK                            x       y       z     vdW  Elec       q    Type
REMARK                         _______ _______ _______ _____ _____    ______ ____
ROOT
ATOM      1  C   UNL     1       6.314   3.712  12.628  0.00  0.00    +0.000 C 
ATOM      2  C   UNL     1       6.160   4.155  14.060  0.00  0.00    +0.000 A 
ATOM      3  N   UNL     1       5.098   3.605  14.718  0.00  0.00    +0.000 NA
ATOM      4  C   UNL     1       5.020   4.000  15.999  0.00  0.00    +0.000 A 
ATOM      5  O   UNL     1       4.073   3.584  16.894  0.00  0.00    +0.000 OA
ATOM      6  C   UNL     1       4.415   4.225  18.060  0.00  0.00    +0.000 A 
ATOM      7  N   UNL     1       5.473   5.014  17.972  0.00  0.00    +0.000 NA
ATOM      8  C   UNL     1       5.867   4.870  16.669  0.00  0.00    +0.000 A 
ATOM      9  C   UNL     1       6.940   5.418  15.965  0.00  0.00    +0.000 A 
ATOM     10  C   UNL     1       7.073   5.086  14.611  0.00  0.00    +0.000 A 
ENDROOT
BRANCH   6  11
ATOM     11  C   UNL     1       3.605   3.942  19.244  0.00  0.00    +0.000 A 
ATOM     12  C   UNL     1       3.720   2.750  19.972  0.00  0.00    +0.000 A 
ATOM     13  C   UNL     1       2.948   2.541  21.119  0.00  0.00    +0.000 A 
ATOM     14  C   UNL     1       2.049   3.517  21.548  0.00  0.00    +0.000 A 
ATOM     15  C   UNL     1       1.914   4.700  20.829  0.00  0.00    +0.000 A 
ATOM     16  C   UNL     1       2.688   4.910  19.685  0.00  0.00    +0.000 A 
ENDBRANCH   6  11
BRANCH  10  17
ATOM     17  N   UNL     1       8.232   5.506  13.935  0.00  0.00    +0.000 N 
ATOM     18  H   UNL     1       8.224   5.313  12.937  0.00  0.00    +0.000 HD
ATOM     19  H   UNL     1       9.109   5.232  14.368  0.00  0.00    +0.000 HD
ENDBRANCH  10  17
TORSDOF 2
ENDMDL
MODEL 5
REMARK VINA RESULT:      -6.6      3.678      5.163
REMARK  Name = 
REMARK  3 active torsions:
REMARK  status: ('A' for Active; 'I' for Inactive)
REMARK    1  A    between atoms: C_1  and  C_2
REMARK    2  A    between atoms: C_6  and  C_7
REMARK    3  A    between atoms: C_16  and  N_17
REMARK                            x       y       z     vdW  Elec       q    Type
REMARK                         _______ _______ _______ _____ _____    ______ ____
ROOT
ATOM      1  C   UNL     1      -0.194   9.391  22.783  0.00  0.00    +0.000 C 
ATOM      2  C   UNL     1       0.449   9.215  21.432  0.00  0.00    +0.000 A 
ATOM      3  N   UNL     1       1.227   8.100  21.310  0.00  0.00    +0.000 NA
ATOM      4  C   UNL     1       1.751   7.965  20.081  0.00  0.00    +0.000 A 
ATOM      5  O   UNL     1       2.544   6.928  19.674  0.00  0.00    +0.000 OA
ATOM      6  C   UNL     1       2.805   7.208  18.355  0.00  0.00    +0.000 A 
ATOM      7  N   UNL     1       2.265   8.329  17.907  0.00  0.00    +0.000 NA
ATOM      8  C   UNL     1       1.589   8.811  18.995  0.00  0.00    +0.000 A 
ATOM      9  C   UNL     1       0.791   9.945  19.155  0.00  0.00    +0.000 A 
ATOM     10  C   UNL     1       0.235  10.181  20.419  0.00  0.00    +0.000 A 
ENDROOT
BRANCH   6  11
ATOM     11  C   UNL     1       3.606   6.240  17.608  0.00  0.00    +0.000 A 
ATOM     12  C   UNL     1       3.380   4.858  17.677  0.00  0.00    +0.000 A 
ATOM     13  C   UNL     1       4.151   3.973  16.916  0.00  0.00    +0.000 A 
ATOM     14  C   UNL     1       5.159   4.457  16.082  0.00  0.00    +0.000 A 
ATOM     15  C   UNL     1       5.402   5.826  16.012  0.00  0.00    +0.000 A 
ATOM     16  C   UNL     1       4.631   6.709  16.770  0.00  0.00    +0.000 A 
ENDBRANCH   6  11
BRANCH  10  17
ATOM     17  N   UNL     1      -0.691  11.230  20.552  0.00  0.00    +0.000 N 
ATOM     18  H   UNL     1      -0.544  11.813  21.372  0.00  0.00    +0.000 HD
ATOM     19  H   UNL     1      -1.665  10.964  20.445  0.00  0.00    +0.000 HD
ENDBRANCH  10  17
TORSDOF 2
ENDMDL
MODEL 6
REMARK VINA RESULT:      -6.6      5.824      7.224
REMARK  Name = 
REMARK  3 active torsions:
REMARK  status: ('A' for Active; 'I' for Inactive)
REMARK    1  A    between atoms: C_1  and  C_2
REMARK    2  A    between atoms: C_6  and  C_7
REMARK    3  A    between atoms: C_16  and  N_17
REMARK                            x       y       z     vdW  Elec       q    Type
REMARK                         _______ _______ _______ _____ _____    ______ ____
ROOT
ATOM      1  C   UNL     1       5.205   5.206  15.854  0.00  0.00    +0.000 C 
ATOM      2  C   UNL     1       6.190   5.840  16.801  0.00  0.00    +0.000 A 
ATOM      3  N   UNL     1       6.511   7.134  16.511  0.00  0.00    +0.000 NA
ATOM      4  C   UNL     1       7.364   7.668  17.400  0.00  0.00    +0.000 A 
ATOM      5  O   UNL     1       7.829   8.953  17.368  0.00  0.00    +0.000 OA
ATOM      6  C   UNL     1       8.635   9.043  18.477  0.00  0.00    +0.000 A 
ATOM      7  N   UNL     1       8.728   7.931  19.187  0.00  0.00    +0.000 NA
ATOM      8  C   UNL     1       7.919   7.057  18.514  0.00  0.00    +0.000 A 
ATOM      9  C   UNL     1       7.573   5.731  18.779  0.00  0.00    +0.000 A 
ATOM     10  C   UNL     1       6.716   5.086  17.878  0.00  0.00    +0.000 A 
ENDROOT
BRANCH   6  11
ATOM     11  C   UNL     1       9.256  10.337  18.755  0.00  0.00    +0.000 A 
ATOM     12  C   UNL     1       9.618  11.235  17.742  0.00  0.00    +0.000 A 
ATOM     13  C   UNL     1      10.177  12.477  18.060  0.00  0.00    +0.000 A 
ATOM     14  C   UNL     1      10.386  12.833  19.392  0.00  0.00    +0.000 A 
ATOM     15  C   UNL     1      10.043  11.946  20.409  0.00  0.00    +0.000 A 
ATOM     16  C   UNL     1       9.482  10.708  20.091  0.00  0.00    +0.000 A 
ENDBRANCH   6  11
BRANCH  10  17
ATOM     17  N   UNL     1       6.239   3.806  18.215  0.00  0.00    +0.000 N 
ATOM     18  H   UNL     1       5.228   3.747  18.296  0.00  0.00    +0.000 HD
ATOM     19  H   UNL     1       6.709   3.362  18.998  0.00  0.00    +0.000 HD
ENDBRANCH  10  17
TORSDOF 2
ENDMDL
MODEL 7
REMARK VINA RESULT:      -6.6      5.952      7.375
REMARK  Name = 
REMARK  3 active torsions:
REMARK  status: ('A' for Active; 'I' for Inactive)
REMARK    1  A    between atoms: C_1  and  C_2
REMARK    2  A    between atoms: C_6  and  C_7
REMARK    3  A    between atoms: C_16  and  N_17
REMARK                            x       y       z     vdW  Elec       q    Type
REMARK                         _______ _______ _______ _____ _____    ______ ____
ROOT
ATOM      1  C   UNL     1       5.143   5.508  15.887  0.00  0.00    +0.000 C 
ATOM      2  C   UNL     1       6.180   6.071  16.824  0.00  0.00    +0.000 A 
ATOM      3  N   UNL     1       6.484   7.385  16.618  0.00  0.00    +0.000 NA
ATOM      4  C   UNL     1       7.385   7.853  17.497  0.00  0.00    +0.000 A 
ATOM      5  O   UNL     1       7.848   9.138  17.539  0.00  0.00    +0.000 OA
ATOM      6  C   UNL     1       8.715   9.145  18.604  0.00  0.00    +0.000 A 
ATOM      7  N   UNL     1       8.848   7.981  19.219  0.00  0.00    +0.000 NA
ATOM      8  C   UNL     1       8.002   7.159  18.527  0.00  0.00    +0.000 A 
ATOM      9  C   UNL     1       7.671   5.815  18.706  0.00  0.00    +0.000 A 
ATOM     10  C   UNL     1       6.765   5.238  17.808  0.00  0.00    +0.000 A 
ENDROOT
BRANCH   6  11
ATOM     11  C   UNL     1       9.350  10.416  18.947  0.00  0.00    +0.000 A 
ATOM     12  C   UNL     1       9.422  10.896  20.262  0.00  0.00    +0.000 A 
ATOM     13  C   UNL     1      10.072  12.103  20.543  0.00  0.00    +0.000 A 
ATOM     14  C   UNL     1      10.651  12.845  19.515  0.00  0.00    +0.000 A 
ATOM     15  C   UNL     1      10.578  12.387  18.203  0.00  0.00    +0.000 A 
ATOM     16  C   UNL     1       9.932  11.181  17.922  0.00  0.00    +0.000 A 
ENDBRANCH   6  11
BRANCH  10  17
ATOM     17  N   UNL     1       6.309   3.934  18.071  0.00  0.00    +0.000 N 
ATOM     18  H   UNL     1       5.414   3.896  18.552  0.00  0.00    +0.000 HD
ATOM     19  H   UNL     1       6.993   3.312  18.491  0.00  0.00    +0.000 HD
ENDBRANCH  10  17
TORSDOF 2
ENDMDL
MODEL 8
REMARK VINA RESULT:      -6.5      3.445      4.883
REMARK  Name = 
REMARK  3 active torsions:
REMARK  status: ('A' for Active; 'I' for Inactive)
REMARK    1  A    between atoms: C_1  and  C_2
REMARK    2  A    between atoms: C_6  and  C_7
REMARK    3  A    between atoms: C_16  and  N_17
REMARK                            x       y       z     vdW  Elec       q    Type
REMARK                         _______ _______ _______ _____ _____    ______ ____
ROOT
ATOM      1  C   UNL     1      -0.050   9.229  22.265  0.00  0.00    +0.000 C 
ATOM      2  C   UNL     1       0.657   9.074  20.944  0.00  0.00    +0.000 A 
ATOM      3  N   UNL     1       1.436   7.959  20.838  0.00  0.00    +0.000 NA
ATOM      4  C   UNL     1       2.018   7.844  19.634  0.00  0.00    +0.000 A 
ATOM      5  O   UNL     1       2.827   6.812  19.247  0.00  0.00    +0.000 OA
ATOM      6  C   UNL     1       3.152   7.114  17.947  0.00  0.00    +0.000 A 
ATOM      7  N   UNL     1       2.637   8.246  17.494  0.00  0.00    +0.000 NA
ATOM      8  C   UNL     1       1.911   8.710  18.557  0.00  0.00    +0.000 A 
ATOM      9  C   UNL     1       1.110   9.844  18.699  0.00  0.00    +0.000 A 
ATOM     10  C   UNL     1       0.495  10.059  19.939  0.00  0.00    +0.000 A 
ENDROOT
BRANCH   6  11
ATOM     11  C   UNL     1       3.984   6.156  17.222  0.00  0.00    +0.000 A 
ATOM     12  C   UNL     1       4.984   6.551  16.322  0.00  0.00    +0.000 A 
ATOM     13  C   UNL     1       5.778   5.596  15.679  0.00  0.00    +0.000 A 
ATOM     14  C   UNL     1       5.580   4.238  15.922  0.00  0.00    +0.000 A 
ATOM     15  C   UNL     1       4.583   3.830  16.804  0.00  0.00    +0.000 A 
ATOM     16  C   UNL     1       3.792   4.783  17.448  0.00  0.00    +0.000 A 
ENDBRANCH   6  11
BRANCH  10  17
ATOM     17  N   UNL     1      -0.434  11.110  20.047  0.00  0.00    +0.000 N 
ATOM     18  H   UNL     1      -0.133  11.977  19.609  0.00  0.00    +0.000 HD
ATOM     19  H   UNL     1      -0.807  11.263  20.978  0.00  0.00    +0.000 HD
ENDBRANCH  10  17
TORSDOF 2
ENDMDL
MODEL 9
REMARK VINA RESULT:      -6.4      1.245      1.855
REMARK  Name = 
REMARK  3 active torsions:
REMARK  status: ('A' for Active; 'I' for Inactive)
REMARK    1  A    between atoms: C_1  and  C_2
REMARK    2  A    between atoms: C_6  and  C_7
REMARK    3  A    between atoms: C_16  and  N_17
REMARK                            x       y       z     vdW  Elec       q    Type
REMARK                         _______ _______ _______ _____ _____    ______ ____
ROOT
ATOM      1  C   UNL     1       2.210   7.342  20.079  0.00  0.00    +0.000 C 
ATOM      2  C   UNL     1       2.890   6.271  19.267  0.00  0.00    +0.000 A 
ATOM      3  N   UNL     1       3.346   6.679  18.047  0.00  0.00    +0.000 NA
ATOM      4  C   UNL     1       3.974   5.702  17.374  0.00  0.00    +0.000 A 
ATOM      5  O   UNL     1       4.551   5.842  16.143  0.00  0.00    +0.000 OA
ATOM      6  C   UNL     1       5.085   4.603  15.883  0.00  0.00    +0.000 A 
ATOM      7  N   UNL     1       4.880   3.701  16.829  0.00  0.00    +0.000 NA
ATOM      8  C   UNL     1       4.182   4.393  17.781  0.00  0.00    +0.000 A 
ATOM      9  C   UNL     1       3.700   4.007  19.032  0.00  0.00    +0.000 A 
ATOM     10  C   UNL     1       2.997   4.957  19.785  0.00  0.00    +0.000 A 
ENDROOT
BRANCH   6  11
ATOM     11  C   UNL     1       5.827   4.439  14.635  0.00  0.00    +0.000 A 
ATOM     12  C   UNL     1       5.368   3.638  13.580  0.00  0.00    +0.000 A 
ATOM     13  C   UNL     1       6.098   3.541  12.391  0.00  0.00    +0.000 A 
ATOM     14  C   UNL     1       7.298   4.236  12.245  0.00  0.00    +0.000 A 
ATOM     15  C   UNL     1       7.773   5.026  13.288  0.00  0.00    +0.000 A 
ATOM     16  C   UNL     1       7.043   5.125  14.474  0.00  0.00    +0.000 A 
ENDBRANCH   6  11
BRANCH  10  17
ATOM     17  N   UNL     1       2.643   4.628  21.105  0.00  0.00    +0.000 N 
ATOM     18  H   UNL     1       3.402   4.721  21.775  0.00  0.00    +0.000 HD
ATOM     19  H   UNL     1       2.146   3.749  21.213  0.00  0.00    +0.000 HD
ENDBRANCH  10  17
TORSDOF 2
ENDMDL
