MODEL 1
REMARK VINA RESULT:      -8.0      0.000      0.000
REMARK  Name = 
REMARK  5 active torsions:
REMARK  status: ('A' for Active; 'I' for Inactive)
REMARK    1  A    between atoms: C_2  and  C_5
REMARK    2  A    between atoms: C_9  and  N_10
REMARK    3  A    between atoms: C_11  and  S_12
REMARK    4  A    between atoms: N_13  and  C_14
REMARK    5  A    between atoms: C_14  and  C_15
REMARK                            x       y       z     vdW  Elec       q    Type
REMARK                         _______ _______ _______ _____ _____    ______ ____
ROOT
ATOM      1  N   UNL     1       5.802   4.094  19.213  0.00  0.00    +0.000 N 
ATOM      2  C   UNL     1       6.506   4.794  18.261  0.00  0.00    +0.000 C 
ATOM      3  N   UNL     1       6.306   4.740  16.993  0.00  0.00    +0.000 NA
ATOM      4  H   UNL     1       6.028   4.343  20.167  0.00  0.00    +0.000 HD
ENDROOT
BRANCH   1   9
ATOM      5  C   UNL     1       2.192   3.150  19.699  0.00  0.00    +0.000 A 
ATOM      6  C   UNL     1       2.086   2.099  18.785  0.00  0.00    +0.000 A 
ATOM      7  C   UNL     1       3.186   1.742  18.008  0.00  0.00    +0.000 A 
ATOM      8  C   UNL     1       4.405   2.413  18.162  0.00  0.00    +0.000 A 
ATOM      9  C   UNL     1       4.549   3.461  19.083  0.00  0.00    +0.000 A 
ATOM     10  C   UNL     1       3.409   3.848  19.793  0.00  0.00    +0.000 A 
BRANCH   5  12
ATOM     11  F   UNL     1      -0.168   3.237  20.132  0.00  0.00    +0.000 F 
ATOM     12  C   UNL     1       1.065   3.526  20.627  0.00  0.00    +0.000 C 
ATOM     13  F   UNL     1       1.048   4.853  20.931  0.00  0.00    +0.000 F 
ATOM     14  F   UNL     1       1.145   2.873  21.821  0.00  0.00    +0.000 F 
ENDBRANCH   5  12
ENDBRANCH   1   9
BRANCH   2  15
ATOM     15  S   UNL     1       7.745   5.815  18.984  0.00  0.00    +0.000 S 
ATOM     16  H   UNL     1       6.976   6.319  19.957  0.00  0.00    +0.000 HD
ENDBRANCH   2  15
BRANCH   3  17
ATOM     17  C   UNL     1       7.079   5.524  16.032  0.00  0.00    +0.000 C 
BRANCH  17  18
ATOM     18  C   UNL     1       7.001   4.959  14.621  0.00  0.00    +0.000 A 
ATOM     19  C   UNL     1       6.083   3.959  14.299  0.00  0.00    +0.000 A 
ATOM     20  C   UNL     1       6.027   3.478  12.993  0.00  0.00    +0.000 A 
ATOM     21  C   UNL     1       6.870   4.021  12.036  0.00  0.00    +0.000 A 
ATOM     22  C   UNL     1       7.738   5.027  12.427  0.00  0.00    +0.000 A 
ATOM     23  N   UNL     1       7.820   5.508  13.687  0.00  0.00    +0.000 NA
ENDBRANCH  17  18
ENDBRANCH   3  17
TORSDOF 5
ENDMDL
MODEL 2
REMARK VINA RESULT:      -7.6      1.556      1.842
REMARK  Name = 
REMARK  5 active torsions:
REMARK  status: ('A' for Active; 'I' for Inactive)
REMARK    1  A    between atoms: C_2  and  C_5
REMARK    2  A    between atoms: C_9  and  N_10
REMARK    3  A    between atoms: C_11  and  S_12
REMARK    4  A    between atoms: N_13  and  C_14
REMARK    5  A    between atoms: C_14  and  C_15
REMARK                            x       y       z     vdW  Elec       q    Type
REMARK                         _______ _______ _______ _____ _____    ______ ____
ROOT
ATOM      1  N   UNL     1       3.637   5.540  17.549  0.00  0.00    +0.000 N 
ATOM      2  C   UNL     1       4.861   5.688  16.941  0.00  0.00    +0.000 C 
ATOM      3  N   UNL     1       5.851   4.876  17.044  0.00  0.00    +0.000 NA
ATOM      4  H   UNL     1       2.945   6.223  17.268  0.00  0.00    +0.000 HD
ENDROOT
BRANCH   1   9
ATOM      5  C   UNL     1       2.262   3.046  20.008  0.00  0.00    +0.000 A 
ATOM      6  C   UNL     1       1.990   1.977  19.151  0.00  0.00    +0.000 A 
ATOM      7  C   UNL     1       2.233   2.105  17.785  0.00  0.00    +0.000 A 
ATOM      8  C   UNL     1       2.777   3.289  17.273  0.00  0.00    +0.000 A 
ATOM      9  C   UNL     1       3.076   4.374  18.111  0.00  0.00    +0.000 A 
ATOM     10  C   UNL     1       2.751   4.246  19.464  0.00  0.00    +0.000 A 
BRANCH   5  12
ATOM     11  F   UNL     1       2.338   4.105  22.162  0.00  0.00    +0.000 F 
ATOM     12  C   UNL     1       2.101   2.939  21.503  0.00  0.00    +0.000 C 
ATOM     13  F   UNL     1       2.928   2.015  22.063  0.00  0.00    +0.000 F 
ATOM     14  F   UNL     1       0.837   2.567  21.857  0.00  0.00    +0.000 F 
ENDBRANCH   5  12
ENDBRANCH   1   9
BRANCH   2  15
ATOM     15  S   UNL     1       4.932   7.151  15.963  0.00  0.00    +0.000 S 
ATOM     16  H   UNL     1       5.680   6.640  14.978  0.00  0.00    +0.000 HD
ENDBRANCH   2  15
BRANCH   3  17
ATOM     17  C   UNL     1       7.124   5.081  16.356  0.00  0.00    +0.000 C 
BRANCH  17  18
ATOM     18  C   UNL     1       7.047   4.746  14.874  0.00  0.00    +0.000 A 
ATOM     19  C   UNL     1       6.130   3.808  14.398  0.00  0.00    +0.000 A 
ATOM     20  C   UNL     1       6.075   3.539  13.033  0.00  0.00    +0.000 A 
ATOM     21  C   UNL     1       6.917   4.227  12.173  0.00  0.00    +0.000 A 
ATOM     22  C   UNL     1       7.784   5.159  12.718  0.00  0.00    +0.000 A 
ATOM     23  N   UNL     1       7.865   5.436  14.038  0.00  0.00    +0.000 NA
ENDBRANCH  17  18
ENDBRANCH   3  17
TORSDOF 5
ENDMDL
MODEL 3
REMARK VINA RESULT:      -7.5      1.423      1.858
REMARK  Name = 
REMARK  5 active torsions:
REMARK  status: ('A' for Active; 'I' for Inactive)
REMARK    1  A    between atoms: C_2  and  C_5
REMARK    2  A    between atoms: C_9  and  N_10
REMARK    3  A    between atoms: C_11  and  S_12
REMARK    4  A    between atoms: N_13  and  C_14
REMARK    5  A    between atoms: C_14  and  C_15
REMARK                            x       y       z     vdW  Elec       q    Type
REMARK                         _______ _______ _______ _____ _____    ______ ____
ROOT
ATOM      1  N   UNL     1       5.494   5.235  19.184  0.00  0.00    +0.000 N 
ATOM      2  C   UNL     1       6.498   5.407  18.261  0.00  0.00    +0.000 C 
ATOM      3  N   UNL     1       6.423   5.117  17.012  0.00  0.00    +0.000 NA
ATOM      4  H   UNL     1       5.696   5.618  20.099  0.00  0.00    +0.000 HD
ENDROOT
BRANCH   1   9
ATOM      5  C   UNL     1       2.046   3.731  19.087  0.00  0.00    +0.000 A 
ATOM      6  C   UNL     1       1.358   4.732  18.396  0.00  0.00    +0.000 A 
ATOM      7  C   UNL     1       2.028   5.890  18.005  0.00  0.00    +0.000 A 
ATOM      8  C   UNL     1       3.394   6.039  18.274  0.00  0.00    +0.000 A 
ATOM      9  C   UNL     1       4.116   5.044  18.951  0.00  0.00    +0.000 A 
ATOM     10  C   UNL     1       3.402   3.930  19.399  0.00  0.00    +0.000 A 
BRANCH   5  12
ATOM     11  F   UNL     1       2.164   1.335  19.180  0.00  0.00    +0.000 F 
ATOM     12  C   UNL     1       1.398   2.422  19.461  0.00  0.00    +0.000 C 
ATOM     13  F   UNL     1       0.208   2.219  18.832  0.00  0.00    +0.000 F 
ATOM     14  F   UNL     1       1.129   2.347  20.796  0.00  0.00    +0.000 F 
ENDBRANCH   5  12
ENDBRANCH   1   9
BRANCH   2  15
ATOM     15  S   UNL     1       7.944   6.100  18.991  0.00  0.00    +0.000 S 
ATOM     16  H   UNL     1       8.474   4.942  19.404  0.00  0.00    +0.000 HD
ENDBRANCH   2  15
BRANCH   3  17
ATOM     17  C   UNL     1       7.524   5.340  16.077  0.00  0.00    +0.000 C 
BRANCH  17  18
ATOM     18  C   UNL     1       7.203   4.856  14.670  0.00  0.00    +0.000 A 
ATOM     19  C   UNL     1       6.172   3.942  14.446  0.00  0.00    +0.000 A 
ATOM     20  C   UNL     1       5.895   3.533  13.144  0.00  0.00    +0.000 A 
ATOM     21  C   UNL     1       6.633   4.062  12.096  0.00  0.00    +0.000 A 
ATOM     22  C   UNL     1       7.624   4.981  12.397  0.00  0.00    +0.000 A 
ATOM     23  N   UNL     1       7.922   5.391  13.650  0.00  0.00    +0.000 NA
ENDBRANCH  17  18
ENDBRANCH   3  17
TORSDOF 5
ENDMDL
MODEL 4
REMARK VINA RESULT:      -7.4      5.927      7.704
REMARK  Name = 
REMARK  5 active torsions:
REMARK  status: ('A' for Active; 'I' for Inactive)
REMARK    1  A    between atoms: C_2  and  C_5
REMARK    2  A    between atoms: C_9  and  N_10
REMARK    3  A    between atoms: C_11  and  S_12
REMARK    4  A    between atoms: N_13  and  C_14
REMARK    5  A    between atoms: C_14  and  C_15
REMARK                            x       y       z     vdW  Elec       q    Type
REMARK                         _______ _______ _______ _____ _____    ______ ____
ROOT
ATOM      1  N   UNL     1       1.725   7.500  21.203  0.00  0.00    +0.000 N 
ATOM      2  C   UNL     1       1.160   8.745  21.051  0.00  0.00    +0.000 C 
ATOM      3  N   UNL     1       0.972   9.350  19.934  0.00  0.00    +0.000 NA
ATOM      4  H   UNL     1       1.695   7.140  22.148  0.00  0.00    +0.000 HD
ENDROOT
BRANCH   1   9
ATOM      5  C   UNL     1       1.665   4.197  19.402  0.00  0.00    +0.000 A 
ATOM      6  C   UNL     1       2.350   4.539  18.233  0.00  0.00    +0.000 A 
ATOM      7  C   UNL     1       2.788   5.849  18.045  0.00  0.00    +0.000 A 
ATOM      8  C   UNL     1       2.572   6.814  19.037  0.00  0.00    +0.000 A 
ATOM      9  C   UNL     1       1.903   6.497  20.228  0.00  0.00    +0.000 A 
ATOM     10  C   UNL     1       1.408   5.197  20.356  0.00  0.00    +0.000 A 
BRANCH   5  12
ATOM     11  F   UNL     1       0.200   2.352  18.940  0.00  0.00    +0.000 F 
ATOM     12  C   UNL     1       1.242   2.781  19.701  0.00  0.00    +0.000 C 
ATOM     13  F   UNL     1       0.864   2.601  20.996  0.00  0.00    +0.000 F 
ATOM     14  F   UNL     1       2.249   1.888  19.481  0.00  0.00    +0.000 F 
ENDBRANCH   5  12
ENDBRANCH   1   9
BRANCH   2  15
ATOM     15  S   UNL     1       0.695   9.444  22.600  0.00  0.00    +0.000 S 
ATOM     16  H   UNL     1       1.716  10.305  22.690  0.00  0.00    +0.000 HD
ENDBRANCH   2  15
BRANCH   3  17
ATOM     17  C   UNL     1       0.349  10.668  19.838  0.00  0.00    +0.000 C 
BRANCH  17  18
ATOM     18  C   UNL     1      -0.849  10.680  18.900  0.00  0.00    +0.000 A 
ATOM     19  C   UNL     1      -0.881   9.864  17.769  0.00  0.00    +0.000 A 
ATOM     20  C   UNL     1      -2.001   9.889  16.941  0.00  0.00    +0.000 A 
ATOM     21  C   UNL     1      -3.071  10.706  17.274  0.00  0.00    +0.000 A 
ATOM     22  C   UNL     1      -2.973  11.470  18.425  0.00  0.00    +0.000 A 
ATOM     23  N   UNL     1      -1.897  11.473  19.242  0.00  0.00    +0.000 NA
ENDBRANCH  17  18
ENDBRANCH   3  17
TORSDOF 5
ENDMDL
MODEL 5
REMARK VINA RESULT:      -7.3      1.466      1.701
REMARK  Name = 
REMARK  5 active torsions:
REMARK  status: ('A' for Active; 'I' for Inactive)
REMARK    1  A    between atoms: C_2  and  C_5
REMARK    2  A    between atoms: C_9  and  N_10
REMARK    3  A    between atoms: C_11  and  S_12
REMARK    4  A    between atoms: N_13  and  C_14
REMARK    5  A    between atoms: C_14  and  C_15
REMARK                            x       y       z     vdW  Elec       q    Type
REMARK                         _______ _______ _______ _____ _____    ______ ____
ROOT
ATOM      1  N   UNL     1       4.349   5.944  18.304  0.00  0.00    +0.000 N 
ATOM      2  C   UNL     1       5.518   5.852  17.585  0.00  0.00    +0.000 C 
ATOM      3  N   UNL     1       6.140   4.764  17.305  0.00  0.00    +0.000 NA
ATOM      4  H   UNL     1       3.949   6.873  18.335  0.00  0.00    +0.000 HD
ENDROOT
BRANCH   1   9
ATOM      5  C   UNL     1       2.194   3.464  20.139  0.00  0.00    +0.000 A 
ATOM      6  C   UNL     1       1.564   2.837  19.061  0.00  0.00    +0.000 A 
ATOM      7  C   UNL     1       1.834   3.259  17.760  0.00  0.00    +0.000 A 
ATOM      8  C   UNL     1       2.756   4.287  17.529  0.00  0.00    +0.000 A 
ATOM      9  C   UNL     1       3.417   4.924  18.589  0.00  0.00    +0.000 A 
ATOM     10  C   UNL     1       3.070   4.534  19.885  0.00  0.00    +0.000 A 
BRANCH   5  12
ATOM     11  F   UNL     1       2.755   1.905  21.877  0.00  0.00    +0.000 F 
ATOM     12  C   UNL     1       2.009   2.997  21.560  0.00  0.00    +0.000 C 
ATOM     13  F   UNL     1       0.720   2.670  21.849  0.00  0.00    +0.000 F 
ATOM     14  F   UNL     1       2.359   3.957  22.464  0.00  0.00    +0.000 F 
ENDBRANCH   5  12
ENDBRANCH   1   9
BRANCH   2  15
ATOM     15  S   UNL     1       6.089   7.435  17.063  0.00  0.00    +0.000 S 
ATOM     16  H   UNL     1       5.786   8.085  18.194  0.00  0.00    +0.000 HD
ENDBRANCH   2  15
BRANCH   3  17
ATOM     17  C   UNL     1       7.372   4.733  16.520  0.00  0.00    +0.000 C 
BRANCH  17  18
ATOM     18  C   UNL     1       7.112   4.563  15.031  0.00  0.00    +0.000 A 
ATOM     19  C   UNL     1       6.070   3.755  14.573  0.00  0.00    +0.000 A 
ATOM     20  C   UNL     1       5.850   3.637  13.203  0.00  0.00    +0.000 A 
ATOM     21  C   UNL     1       6.656   4.345  12.324  0.00  0.00    +0.000 A 
ATOM     22  C   UNL     1       7.655   5.144  12.856  0.00  0.00    +0.000 A 
ATOM     23  N   UNL     1       7.897   5.272  14.179  0.00  0.00    +0.000 NA
ENDBRANCH  17  18
ENDBRANCH   3  17
TORSDOF 5
ENDMDL
MODEL 6
REMARK VINA RESULT:      -7.3      4.950      7.311
REMARK  Name = 
REMARK  5 active torsions:
REMARK  status: ('A' for Active; 'I' for Inactive)
REMARK    1  A    between atoms: C_2  and  C_5
REMARK    2  A    between atoms: C_9  and  N_10
REMARK    3  A    between atoms: C_11  and  S_12
REMARK    4  A    between atoms: N_13  and  C_14
REMARK    5  A    between atoms: C_14  and  C_15
REMARK                            x       y       z     vdW  Elec       q    Type
REMARK                         _______ _______ _______ _____ _____    ______ ____
ROOT
ATOM      1  N   UNL     1       4.561   3.138  17.388  0.00  0.00    +0.000 N 
ATOM      2  C   UNL     1       3.805   3.761  18.354  0.00  0.00    +0.000 C 
ATOM      3  N   UNL     1       3.930   4.983  18.729  0.00  0.00    +0.000 NA
ATOM      4  H   UNL     1       4.251   2.205  17.151  0.00  0.00    +0.000 HD
ENDROOT
BRANCH   1   9
ATOM      5  C   UNL     1       6.052   4.048  14.055  0.00  0.00    +0.000 A 
ATOM      6  C   UNL     1       7.053   4.932  14.465  0.00  0.00    +0.000 A 
ATOM      7  C   UNL     1       7.199   5.236  15.817  0.00  0.00    +0.000 A 
ATOM      8  C   UNL     1       6.367   4.635  16.769  0.00  0.00    +0.000 A 
ATOM      9  C   UNL     1       5.363   3.730  16.390  0.00  0.00    +0.000 A 
ATOM     10  C   UNL     1       5.190   3.504  15.023  0.00  0.00    +0.000 A 
BRANCH   5  12
ATOM     11  F   UNL     1       4.668   3.869  12.101  0.00  0.00    +0.000 F 
ATOM     12  C   UNL     1       5.899   3.615  12.620  0.00  0.00    +0.000 C 
ATOM     13  F   UNL     1       6.117   2.284  12.439  0.00  0.00    +0.000 F 
ATOM     14  F   UNL     1       6.783   4.249  11.797  0.00  0.00    +0.000 F 
ENDBRANCH   5  12
ENDBRANCH   1   9
BRANCH   2  15
ATOM     15  S   UNL     1       2.600   2.675  19.040  0.00  0.00    +0.000 S 
ATOM     16  H   UNL     1       1.551   3.171  18.373  0.00  0.00    +0.000 HD
ENDBRANCH   2  15
BRANCH   3  17
ATOM     17  C   UNL     1       3.081   5.592  19.751  0.00  0.00    +0.000 C 
BRANCH  17  18
ATOM     18  C   UNL     1       2.541   6.950  19.328  0.00  0.00    +0.000 A 
ATOM     19  C   UNL     1       2.735   7.426  18.031  0.00  0.00    +0.000 A 
ATOM     20  C   UNL     1       2.212   8.666  17.674  0.00  0.00    +0.000 A 
ATOM     21  C   UNL     1       1.488   9.390  18.609  0.00  0.00    +0.000 A 
ATOM     22  C   UNL     1       1.319   8.841  19.869  0.00  0.00    +0.000 A 
ATOM     23  N   UNL     1       1.822   7.645  20.247  0.00  0.00    +0.000 NA
ENDBRANCH  17  18
ENDBRANCH   3  17
TORSDOF 5
ENDMDL
MODEL 7
REMARK VINA RESULT:      -7.3      1.599      1.898
REMARK  Name = 
REMARK  5 active torsions:
REMARK  status: ('A' for Active; 'I' for Inactive)
REMARK    1  A    between atoms: C_2  and  C_5
REMARK    2  A    between atoms: C_9  and  N_10
REMARK    3  A    between atoms: C_11  and  S_12
REMARK    4  A    between atoms: N_13  and  C_14
REMARK    5  A    between atoms: C_14  and  C_15
REMARK                            x       y       z     vdW  Elec       q    Type
REMARK                         _______ _______ _______ _____ _____    ______ ____
ROOT
ATOM      1  N   UNL     1       4.815   6.269  18.519  0.00  0.00    +0.000 N 
ATOM      2  C   UNL     1       5.934   6.027  17.757  0.00  0.00    +0.000 C 
ATOM      3  N   UNL     1       6.314   4.877  17.331  0.00  0.00    +0.000 NA
ATOM      4  H   UNL     1       4.617   7.249  18.672  0.00  0.00    +0.000 HD
ENDROOT
BRANCH   1   9
ATOM      5  C   UNL     1       2.394   3.805  20.011  0.00  0.00    +0.000 A 
ATOM      6  C   UNL     1       1.433   3.757  18.998  0.00  0.00    +0.000 A 
ATOM      7  C   UNL     1       1.582   4.554  17.864  0.00  0.00    +0.000 A 
ATOM      8  C   UNL     1       2.705   5.378  17.723  0.00  0.00    +0.000 A 
ATOM      9  C   UNL     1       3.695   5.435  18.716  0.00  0.00    +0.000 A 
ATOM     10  C   UNL     1       3.482   4.685  19.875  0.00  0.00    +0.000 A 
BRANCH   5  12
ATOM     11  F   UNL     1       2.028   3.562  22.372  0.00  0.00    +0.000 F 
ATOM     12  C   UNL     1       2.333   2.906  21.220  0.00  0.00    +0.000 C 
ATOM     13  F   UNL     1       3.504   2.253  21.457  0.00  0.00    +0.000 F 
ATOM     14  F   UNL     1       1.387   1.934  21.088  0.00  0.00    +0.000 F 
ENDBRANCH   5  12
ENDBRANCH   1   9
BRANCH   2  15
ATOM     15  S   UNL     1       6.815   7.511  17.404  0.00  0.00    +0.000 S 
ATOM     16  H   UNL     1       6.408   8.190  18.483  0.00  0.00    +0.000 HD
ENDBRANCH   2  15
BRANCH   3  17
ATOM     17  C   UNL     1       7.507   4.689  16.507  0.00  0.00    +0.000 C 
BRANCH  17  18
ATOM     18  C   UNL     1       7.178   4.546  15.029  0.00  0.00    +0.000 A 
ATOM     19  C   UNL     1       6.108   3.757  14.606  0.00  0.00    +0.000 A 
ATOM     20  C   UNL     1       5.825   3.662  13.245  0.00  0.00    +0.000 A 
ATOM     21  C   UNL     1       6.600   4.375  12.342  0.00  0.00    +0.000 A 
ATOM     22  C   UNL     1       7.630   5.154  12.841  0.00  0.00    +0.000 A 
ATOM     23  N   UNL     1       7.933   5.259  14.154  0.00  0.00    +0.000 NA
ENDBRANCH  17  18
ENDBRANCH   3  17
TORSDOF 5
ENDMDL
MODEL 8
REMARK VINA RESULT:      -7.3      5.847      7.674
REMARK  Name = 
REMARK  5 active torsions:
REMARK  status: ('A' for Active; 'I' for Inactive)
REMARK    1  A    between atoms: C_2  and  C_5
REMARK    2  A    between atoms: C_9  and  N_10
REMARK    3  A    between atoms: C_11  and  S_12
REMARK    4  A    between atoms: N_13  and  C_14
REMARK    5  A    between atoms: C_14  and  C_15
REMARK                            x       y       z     vdW  Elec       q    Type
REMARK                         _______ _______ _______ _____ _____    ______ ____
ROOT
ATOM      1  N   UNL     1       1.725   7.471  21.129  0.00  0.00    +0.000 N 
ATOM      2  C   UNL     1       1.203   8.730  20.945  0.00  0.00    +0.000 C 
ATOM      3  N   UNL     1       1.083   9.331  19.816  0.00  0.00    +0.000 NA
ATOM      4  H   UNL     1       1.643   7.118  22.074  0.00  0.00    +0.000 HD
ENDROOT
BRANCH   1   9
ATOM      5  C   UNL     1       1.683   4.149  19.363  0.00  0.00    +0.000 A 
ATOM      6  C   UNL     1       2.397   4.474  18.207  0.00  0.00    +0.000 A 
ATOM      7  C   UNL     1       2.849   5.778  18.015  0.00  0.00    +0.000 A 
ATOM      8  C   UNL     1       2.618   6.755  18.991  0.00  0.00    +0.000 A 
ATOM      9  C   UNL     1       1.919   6.456  20.169  0.00  0.00    +0.000 A 
ATOM     10  C   UNL     1       1.411   5.161  20.300  0.00  0.00    +0.000 A 
BRANCH   5  12
ATOM     11  F   UNL     1       2.206   1.807  19.443  0.00  0.00    +0.000 F 
ATOM     12  C   UNL     1       1.242   2.740  19.666  0.00  0.00    +0.000 C 
ATOM     13  F   UNL     1       0.164   2.350  18.933  0.00  0.00    +0.000 F 
ATOM     14  F   UNL     1       0.878   2.587  20.971  0.00  0.00    +0.000 F 
ENDBRANCH   5  12
ENDBRANCH   1   9
BRANCH   2  15
ATOM     15  S   UNL     1       0.689   9.453  22.466  0.00  0.00    +0.000 S 
ATOM     16  H   UNL     1       1.194   8.503  23.263  0.00  0.00    +0.000 HD
ENDBRANCH   2  15
BRANCH   3  17
ATOM     17  C   UNL     1       0.502  10.666  19.684  0.00  0.00    +0.000 C 
BRANCH  17  18
ATOM     18  C   UNL     1      -0.778  10.667  18.863  0.00  0.00    +0.000 A 
ATOM     19  C   UNL     1      -1.844  11.502  19.199  0.00  0.00    +0.000 A 
ATOM     20  C   UNL     1      -2.995  11.489  18.415  0.00  0.00    +0.000 A 
ATOM     21  C   UNL     1      -3.046  10.664  17.301  0.00  0.00    +0.000 A 
ATOM     22  C   UNL     1      -1.939   9.881  17.020  0.00  0.00    +0.000 A 
ATOM     23  N   UNL     1      -0.813   9.866  17.767  0.00  0.00    +0.000 NA
ENDBRANCH  17  18
ENDBRANCH   3  17
TORSDOF 5
ENDMDL
MODEL 9
REMARK VINA RESULT:      -7.2      5.018      7.210
REMARK  Name = 
REMARK  5 active torsions:
REMARK  status: ('A' for Active; 'I' for Inactive)
REMARK    1  A    between atoms: C_2  and  C_5
REMARK    2  A    between atoms: C_9  and  N_10
REMARK    3  A    between atoms: C_11  and  S_12
REMARK    4  A    between atoms: N_13  and  C_14
REMARK    5  A    between atoms: C_14  and  C_15
REMARK                            x       y       z     vdW  Elec       q    Type
REMARK                         _______ _______ _______ _____ _____    ______ ____
ROOT
ATOM      1  N   UNL     1       3.811   3.745  18.790  0.00  0.00    +0.000 N 
ATOM      2  C   UNL     1       2.879   4.537  19.419  0.00  0.00    +0.000 C 
ATOM      3  N   UNL     1       3.038   5.772  19.734  0.00  0.00    +0.000 NA
ATOM      4  H   UNL     1       3.472   2.829  18.527  0.00  0.00    +0.000 HD
ENDROOT
BRANCH   1   9
ATOM      5  C   UNL     1       6.180   4.530  15.974  0.00  0.00    +0.000 A 
ATOM      6  C   UNL     1       7.306   4.927  16.700  0.00  0.00    +0.000 A 
ATOM      7  C   UNL     1       7.256   4.960  18.093  0.00  0.00    +0.000 A 
ATOM      8  C   UNL     1       6.093   4.567  18.766  0.00  0.00    +0.000 A 
ATOM      9  C   UNL     1       4.952   4.147  18.065  0.00  0.00    +0.000 A 
ATOM     10  C   UNL     1       5.005   4.198  16.670  0.00  0.00    +0.000 A 
BRANCH   5  12
ATOM     11  F   UNL     1       7.196   5.098  13.873  0.00  0.00    +0.000 F 
ATOM     12  C   UNL     1       6.199   4.393  14.473  0.00  0.00    +0.000 C 
ATOM     13  F   UNL     1       5.041   4.803  13.887  0.00  0.00    +0.000 F 
ATOM     14  F   UNL     1       6.376   3.099  14.079  0.00  0.00    +0.000 F 
ENDBRANCH   5  12
ENDBRANCH   1   9
BRANCH   2  15
ATOM     15  S   UNL     1       1.392   3.655  19.753  0.00  0.00    +0.000 S 
ATOM     16  H   UNL     1       1.610   3.479  21.061  0.00  0.00    +0.000 HD
ENDBRANCH   2  15
BRANCH   3  17
ATOM     17  C   UNL     1       2.000   6.566  20.388  0.00  0.00    +0.000 C 
BRANCH  17  18
ATOM     18  C   UNL     1       1.780   7.911  19.712  0.00  0.00    +0.000 A 
ATOM     19  C   UNL     1       2.232   8.142  18.413  0.00  0.00    +0.000 A 
ATOM     20  C   UNL     1       1.998   9.380  17.818  0.00  0.00    +0.000 A 
ATOM     21  C   UNL     1       1.298  10.347  18.523  0.00  0.00    +0.000 A 
ATOM     22  C   UNL     1       0.862  10.035  19.800  0.00  0.00    +0.000 A 
ATOM     23  N   UNL     1       1.081   8.847  20.405  0.00  0.00    +0.000 NA
ENDBRANCH  17  18
ENDBRANCH   3  17
TORSDOF 5
ENDMDL
