MODEL 1
REMARK VINA RESULT:      -7.9      0.000      0.000
REMARK  Name = 
REMARK  7 active torsions:
REMARK  status: ('A' for Active; 'I' for Inactive)
REMARK    1  A    between atoms: C_1  and  O_2
REMARK    2  A    between atoms: O_2  and  C_3
REMARK    3  A    between atoms: C_6  and  C_7
REMARK    4  A    between atoms: N_9  and  C_10
REMARK    5  A    between atoms: C_17  and  C_18
REMARK    6  A    between atoms: N_26  and  C_27
REMARK    7  A    between atoms: C_27  and  C_28
REMARK                            x       y       z     vdW  Elec       q    Type
REMARK                         _______ _______ _______ _____ _____    ______ ____
ROOT
ATOM      1  C   UNL     1      -1.010  11.560  18.944  0.00  0.00    +0.000 A 
ATOM      2  N   UNL     1      -0.575  10.302  18.772  0.00  0.00    +0.000 NA
ATOM      3  N   UNL     1       0.742  10.316  19.055  0.00  0.00    +0.000 N 
ATOM      4  C   UNL     1       1.175  11.573  19.411  0.00  0.00    +0.000 A 
ATOM      5  C   UNL     1       0.080  12.401  19.312  0.00  0.00    +0.000 A 
ENDROOT
BRANCH   5   6
ATOM      6  C   UNL     1       0.116  13.879  19.471  0.00  0.00    +0.000 A 
ATOM      7  N   UNL     1      -0.409  14.667  18.558  0.00  0.00    +0.000 NA
ATOM      8  C   UNL     1      -0.031  15.931  18.886  0.00  0.00    +0.000 A 
ATOM      9  C   UNL     1      -0.303  17.125  18.205  0.00  0.00    +0.000 A 
ATOM     10  C   UNL     1       0.230  18.315  18.700  0.00  0.00    +0.000 A 
ATOM     11  C   UNL     1       1.011  18.313  19.856  0.00  0.00    +0.000 A 
ATOM     12  C   UNL     1       1.250  17.132  20.579  0.00  0.00    +0.000 A 
ATOM     13  C   UNL     1       0.711  15.945  20.064  0.00  0.00    +0.000 A 
ATOM     14  N   UNL     1       0.665  14.626  20.508  0.00  0.00    +0.000 N 
BRANCH  14  15
ATOM     15  C   UNL     1       0.520  14.253  21.923  0.00  0.00    +0.000 C 
BRANCH  15  16
ATOM     16  C   UNL     1      -0.804  13.697  22.409  0.00  0.00    +0.000 A 
ATOM     17  C   UNL     1      -1.009  12.354  22.748  0.00  0.00    +0.000 A 
ATOM     18  C   UNL     1      -2.192  11.951  23.384  0.00  0.00    +0.000 A 
ATOM     19  C   UNL     1      -3.187  12.881  23.677  0.00  0.00    +0.000 A 
ATOM     20 CL   UNL     1      -4.615  12.388  24.500  0.00  0.00    +0.000 Cl
ATOM     21  C   UNL     1      -3.017  14.216  23.331  0.00  0.00    +0.000 A 
ATOM     22  C   UNL     1      -1.831  14.619  22.707  0.00  0.00    +0.000 A 
ENDBRANCH  15  16
ENDBRANCH  14  15
ENDBRANCH   5   6
BRANCH   1  26
ATOM     23  C   UNL     1      -5.278  11.870  18.790  0.00  0.00    +0.000 A 
ATOM     24  C   UNL     1      -4.566  12.473  19.828  0.00  0.00    +0.000 A 
ATOM     25  C   UNL     1      -3.167  12.451  19.850  0.00  0.00    +0.000 A 
ATOM     26  C   UNL     1      -2.452  11.812  18.832  0.00  0.00    +0.000 A 
ATOM     27  C   UNL     1      -3.176  11.254  17.765  0.00  0.00    +0.000 A 
ATOM     28  C   UNL     1      -4.577  11.281  17.741  0.00  0.00    +0.000 A 
BRANCH  23  30
ATOM     29  C   UNL     1      -7.161  11.000  19.957  0.00  0.00    +0.000 C 
ATOM     30  O   UNL     1      -6.635  11.860  18.957  0.00  0.00    +0.000 OA
ENDBRANCH  23  30
ENDBRANCH   1  26
BRANCH   3  31
ATOM     31  C   UNL     1       1.493   9.109  18.985  0.00  0.00    +0.000 A 
ATOM     32  C   UNL     1       2.199   8.807  17.807  0.00  0.00    +0.000 A 
ATOM     33  C   UNL     1       2.916   7.611  17.703  0.00  0.00    +0.000 A 
ATOM     34  C   UNL     1       2.933   6.718  18.767  0.00  0.00    +0.000 A 
ATOM     35  C   UNL     1       2.247   7.021  19.944  0.00  0.00    +0.000 A 
ATOM     36  C   UNL     1       1.531   8.215  20.059  0.00  0.00    +0.000 A 
ENDBRANCH   3  31
TORSDOF 6
ENDMDL
MODEL 2
REMARK VINA RESULT:      -7.8      0.748      1.096
REMARK  Name = 
REMARK  7 active torsions:
REMARK  status: ('A' for Active; 'I' for Inactive)
REMARK    1  A    between atoms: C_1  and  O_2
REMARK    2  A    between atoms: O_2  and  C_3
REMARK    3  A    between atoms: C_6  and  C_7
REMARK    4  A    between atoms: N_9  and  C_10
REMARK    5  A    between atoms: C_17  and  C_18
REMARK    6  A    between atoms: N_26  and  C_27
REMARK    7  A    between atoms: C_27  and  C_28
REMARK                            x       y       z     vdW  Elec       q    Type
REMARK                         _______ _______ _______ _____ _____    ______ ____
ROOT
ATOM      1  C   UNL     1      -1.012  11.423  18.704  0.00  0.00    +0.000 A 
ATOM      2  N   UNL     1      -0.540  10.177  18.550  0.00  0.00    +0.000 NA
ATOM      3  N   UNL     1       0.729  10.195  19.001  0.00  0.00    +0.000 N 
ATOM      4  C   UNL     1       1.094  11.444  19.450  0.00  0.00    +0.000 A 
ATOM      5  C   UNL     1       0.009  12.264  19.236  0.00  0.00    +0.000 A 
ENDROOT
BRANCH   5   6
ATOM      6  C   UNL     1       0.002  13.736  19.445  0.00  0.00    +0.000 A 
ATOM      7  N   UNL     1      -0.441  14.547  18.509  0.00  0.00    +0.000 NA
ATOM      8  C   UNL     1      -0.121  15.804  18.914  0.00  0.00    +0.000 A 
ATOM      9  C   UNL     1      -0.342  17.016  18.247  0.00  0.00    +0.000 A 
ATOM     10  C   UNL     1       0.116  18.197  18.831  0.00  0.00    +0.000 A 
ATOM     11  C   UNL     1       0.775  18.167  20.061  0.00  0.00    +0.000 A 
ATOM     12  C   UNL     1       0.960  16.966  20.767  0.00  0.00    +0.000 A 
ATOM     13  C   UNL     1       0.498  15.789  20.162  0.00  0.00    +0.000 A 
ATOM     14  N   UNL     1       0.430  14.455  20.556  0.00  0.00    +0.000 N 
BRANCH  14  15
ATOM     15  C   UNL     1       0.147  14.033  21.936  0.00  0.00    +0.000 C 
BRANCH  15  16
ATOM     16  C   UNL     1      -1.292  13.858  22.376  0.00  0.00    +0.000 A 
ATOM     17  C   UNL     1      -2.299  14.804  22.147  0.00  0.00    +0.000 A 
ATOM     18  C   UNL     1      -3.644  14.490  22.393  0.00  0.00    +0.000 A 
ATOM     19  C   UNL     1      -3.995  13.234  22.882  0.00  0.00    +0.000 A 
ATOM     20 CL   UNL     1      -5.650  12.839  23.138  0.00  0.00    +0.000 Cl
ATOM     21  C   UNL     1      -3.013  12.285  23.139  0.00  0.00    +0.000 A 
ATOM     22  C   UNL     1      -1.674  12.596  22.881  0.00  0.00    +0.000 A 
ENDBRANCH  15  16
ENDBRANCH  14  15
ENDBRANCH   5   6
BRANCH   1  26
ATOM     23  C   UNL     1      -5.222  11.680  17.966  0.00  0.00    +0.000 A 
ATOM     24  C   UNL     1      -4.688  12.156  19.165  0.00  0.00    +0.000 A 
ATOM     25  C   UNL     1      -3.307  12.154  19.388  0.00  0.00    +0.000 A 
ATOM     26  C   UNL     1      -2.431  11.664  18.414  0.00  0.00    +0.000 A 
ATOM     27  C   UNL     1      -2.975  11.237  17.191  0.00  0.00    +0.000 A 
ATOM     28  C   UNL     1      -4.358  11.244  16.966  0.00  0.00    +0.000 A 
BRANCH  23  30
ATOM     29  C   UNL     1      -7.286  12.860  17.835  0.00  0.00    +0.000 C 
ATOM     30  O   UNL     1      -6.588  11.627  17.930  0.00  0.00    +0.000 OA
ENDBRANCH  23  30
ENDBRANCH   1  26
BRANCH   3  31
ATOM     31  C   UNL     1       1.500   8.999  18.991  0.00  0.00    +0.000 A 
ATOM     32  C   UNL     1       2.251   8.675  17.846  0.00  0.00    +0.000 A 
ATOM     33  C   UNL     1       2.988   7.489  17.800  0.00  0.00    +0.000 A 
ATOM     34  C   UNL     1       2.983   6.626  18.890  0.00  0.00    +0.000 A 
ATOM     35  C   UNL     1       2.254   6.951  20.034  0.00  0.00    +0.000 A 
ATOM     36  C   UNL     1       1.516   8.137  20.091  0.00  0.00    +0.000 A 
ENDBRANCH   3  31
TORSDOF 6
ENDMDL
MODEL 3
REMARK VINA RESULT:      -7.7      6.311     11.051
REMARK  Name = 
REMARK  7 active torsions:
REMARK  status: ('A' for Active; 'I' for Inactive)
REMARK    1  A    between atoms: C_1  and  O_2
REMARK    2  A    between atoms: O_2  and  C_3
REMARK    3  A    between atoms: C_6  and  C_7
REMARK    4  A    between atoms: N_9  and  C_10
REMARK    5  A    between atoms: C_17  and  C_18
REMARK    6  A    between atoms: N_26  and  C_27
REMARK    7  A    between atoms: C_27  and  C_28
REMARK                            x       y       z     vdW  Elec       q    Type
REMARK                         _______ _______ _______ _____ _____    ______ ____
ROOT
ATOM      1  C   UNL     1       6.389   5.622  16.685  0.00  0.00    +0.000 A 
ATOM      2  N   UNL     1       6.870   5.418  15.449  0.00  0.00    +0.000 NA
ATOM      3  N   UNL     1       6.076   4.489  14.883  0.00  0.00    +0.000 N 
ATOM      4  C   UNL     1       5.077   4.082  15.738  0.00  0.00    +0.000 A 
ATOM      5  C   UNL     1       5.276   4.763  16.917  0.00  0.00    +0.000 A 
ENDROOT
BRANCH   5   6
ATOM      6  C   UNL     1       4.512   4.530  18.171  0.00  0.00    +0.000 A 
ATOM      7  N   UNL     1       4.676   3.424  18.864  0.00  0.00    +0.000 NA
ATOM      8  C   UNL     1       3.702   3.424  19.813  0.00  0.00    +0.000 A 
ATOM      9  C   UNL     1       3.426   2.445  20.775  0.00  0.00    +0.000 A 
ATOM     10  C   UNL     1       2.337   2.630  21.627  0.00  0.00    +0.000 A 
ATOM     11  C   UNL     1       1.546   3.775  21.524  0.00  0.00    +0.000 A 
ATOM     12  C   UNL     1       1.840   4.790  20.597  0.00  0.00    +0.000 A 
ATOM     13  C   UNL     1       2.934   4.584  19.747  0.00  0.00    +0.000 A 
ATOM     14  N   UNL     1       3.571   5.356  18.778  0.00  0.00    +0.000 N 
BRANCH  14  15
ATOM     15  C   UNL     1       3.739   6.812  18.886  0.00  0.00    +0.000 C 
BRANCH  15  16
ATOM     16  C   UNL     1       2.510   7.696  18.954  0.00  0.00    +0.000 A 
ATOM     17  C   UNL     1       1.872   8.055  20.148  0.00  0.00    +0.000 A 
ATOM     18  C   UNL     1       0.871   9.037  20.155  0.00  0.00    +0.000 A 
ATOM     19  C   UNL     1       0.488   9.661  18.970  0.00  0.00    +0.000 A 
ATOM     20 CL   UNL     1      -0.708  10.899  18.993  0.00  0.00    +0.000 Cl
ATOM     21  C   UNL     1       1.089   9.307  17.769  0.00  0.00    +0.000 A 
ATOM     22  C   UNL     1       2.096   8.336  17.765  0.00  0.00    +0.000 A 
ENDBRANCH  15  16
ENDBRANCH  14  15
ENDBRANCH   5   6
BRANCH   1  26
ATOM     23  C   UNL     1       8.531   8.664  18.806  0.00  0.00    +0.000 A 
ATOM     24  C   UNL     1       7.684   9.006  17.750  0.00  0.00    +0.000 A 
ATOM     25  C   UNL     1       6.915   8.034  17.100  0.00  0.00    +0.000 A 
ATOM     26  C   UNL     1       6.988   6.694  17.490  0.00  0.00    +0.000 A 
ATOM     27  C   UNL     1       7.804   6.368  18.588  0.00  0.00    +0.000 A 
ATOM     28  C   UNL     1       8.569   7.342  19.241  0.00  0.00    +0.000 A 
BRANCH  23  30
ATOM     29  C   UNL     1       9.516  10.792  18.398  0.00  0.00    +0.000 C 
ATOM     30  O   UNL     1       9.312   9.687  19.266  0.00  0.00    +0.000 OA
ENDBRANCH  23  30
ENDBRANCH   1  26
BRANCH   3  31
ATOM     31  C   UNL     1       6.319   4.073  13.543  0.00  0.00    +0.000 A 
ATOM     32  C   UNL     1       7.320   4.717  12.795  0.00  0.00    +0.000 A 
ATOM     33  C   UNL     1       7.553   4.348  11.466  0.00  0.00    +0.000 A 
ATOM     34  C   UNL     1       6.795   3.340  10.884  0.00  0.00    +0.000 A 
ATOM     35  C   UNL     1       5.812   2.686  11.628  0.00  0.00    +0.000 A 
ATOM     36  C   UNL     1       5.574   3.045  12.958  0.00  0.00    +0.000 A 
ENDBRANCH   3  31
TORSDOF 6
ENDMDL
MODEL 4
REMARK VINA RESULT:      -7.7      0.266      1.168
REMARK  Name = 
REMARK  7 active torsions:
REMARK  status: ('A' for Active; 'I' for Inactive)
REMARK    1  A    between atoms: C_1  and  O_2
REMARK    2  A    between atoms: O_2  and  C_3
REMARK    3  A    between atoms: C_6  and  C_7
REMARK    4  A    between atoms: N_9  and  C_10
REMARK    5  A    between atoms: C_17  and  C_18
REMARK    6  A    between atoms: N_26  and  C_27
REMARK    7  A    between atoms: C_27  and  C_28
REMARK                            x       y       z     vdW  Elec       q    Type
REMARK                         _______ _______ _______ _____ _____    ______ ____
ROOT
ATOM      1  C   UNL     1      -0.973  11.431  18.913  0.00  0.00    +0.000 A 
ATOM      2  N   UNL     1      -0.538  10.173  18.739  0.00  0.00    +0.000 NA
ATOM      3  N   UNL     1       0.786  10.194  18.985  0.00  0.00    +0.000 N 
ATOM      4  C   UNL     1       1.223  11.456  19.319  0.00  0.00    +0.000 A 
ATOM      5  C   UNL     1       0.123  12.279  19.243  0.00  0.00    +0.000 A 
ENDROOT
BRANCH   5   6
ATOM      6  C   UNL     1       0.158  13.759  19.388  0.00  0.00    +0.000 A 
ATOM      7  N   UNL     1      -0.450  14.535  18.517  0.00  0.00    +0.000 NA
ATOM      8  C   UNL     1      -0.058  15.805  18.804  0.00  0.00    +0.000 A 
ATOM      9  C   UNL     1      -0.397  16.991  18.140  0.00  0.00    +0.000 A 
ATOM     10  C   UNL     1       0.163  18.190  18.580  0.00  0.00    +0.000 A 
ATOM     11  C   UNL     1       1.038  18.204  19.666  0.00  0.00    +0.000 A 
ATOM     12  C   UNL     1       1.349  17.030  20.375  0.00  0.00    +0.000 A 
ATOM     13  C   UNL     1       0.780  15.835  19.915  0.00  0.00    +0.000 A 
ATOM     14  N   UNL     1       0.784  14.519  20.371  0.00  0.00    +0.000 N 
BRANCH  14  15
ATOM     15  C   UNL     1       0.762  14.155  21.795  0.00  0.00    +0.000 C 
BRANCH  15  16
ATOM     16  C   UNL     1      -0.570  13.900  22.472  0.00  0.00    +0.000 A 
ATOM     17  C   UNL     1      -1.554  14.880  22.655  0.00  0.00    +0.000 A 
ATOM     18  C   UNL     1      -2.837  14.530  23.098  0.00  0.00    +0.000 A 
ATOM     19  C   UNL     1      -3.148  13.200  23.376  0.00  0.00    +0.000 A 
ATOM     20 CL   UNL     1      -4.738  12.771  23.874  0.00  0.00    +0.000 Cl
ATOM     21  C   UNL     1      -2.184  12.212  23.224  0.00  0.00    +0.000 A 
ATOM     22  C   UNL     1      -0.908  12.561  22.769  0.00  0.00    +0.000 A 
ENDBRANCH  15  16
ENDBRANCH  14  15
ENDBRANCH   5   6
BRANCH   1  26
ATOM     23  C   UNL     1      -5.243  11.756  18.937  0.00  0.00    +0.000 A 
ATOM     24  C   UNL     1      -4.475  12.507  19.828  0.00  0.00    +0.000 A 
ATOM     25  C   UNL     1      -3.077  12.475  19.779  0.00  0.00    +0.000 A 
ATOM     26  C   UNL     1      -2.419  11.677  18.839  0.00  0.00    +0.000 A 
ATOM     27  C   UNL     1      -3.200  10.965  17.912  0.00  0.00    +0.000 A 
ATOM     28  C   UNL     1      -4.600  11.003  17.959  0.00  0.00    +0.000 A 
BRANCH  23  30
ATOM     29  C   UNL     1      -7.179  10.618  19.728  0.00  0.00    +0.000 C 
ATOM     30  O   UNL     1      -6.589  11.786  19.175  0.00  0.00    +0.000 OA
ENDBRANCH  23  30
ENDBRANCH   1  26
BRANCH   3  31
ATOM     31  C   UNL     1       1.539   8.989  18.905  0.00  0.00    +0.000 A 
ATOM     32  C   UNL     1       1.543   8.108  20.001  0.00  0.00    +0.000 A 
ATOM     33  C   UNL     1       2.303   6.935  19.959  0.00  0.00    +0.000 A 
ATOM     34  C   UNL     1       3.056   6.637  18.829  0.00  0.00    +0.000 A 
ATOM     35  C   UNL     1       3.042   7.501  17.733  0.00  0.00    +0.000 A 
ATOM     36  C   UNL     1       2.283   8.674  17.765  0.00  0.00    +0.000 A 
ENDBRANCH   3  31
TORSDOF 6
ENDMDL
MODEL 5
REMARK VINA RESULT:      -7.6      3.129      7.967
REMARK  Name = 
REMARK  7 active torsions:
REMARK  status: ('A' for Active; 'I' for Inactive)
REMARK    1  A    between atoms: C_1  and  O_2
REMARK    2  A    between atoms: O_2  and  C_3
REMARK    3  A    between atoms: C_6  and  C_7
REMARK    4  A    between atoms: N_9  and  C_10
REMARK    5  A    between atoms: C_17  and  C_18
REMARK    6  A    between atoms: N_26  and  C_27
REMARK    7  A    between atoms: C_27  and  C_28
REMARK                            x       y       z     vdW  Elec       q    Type
REMARK                         _______ _______ _______ _____ _____    ______ ____
ROOT
ATOM      1  C   UNL     1       0.904  12.877  20.996  0.00  0.00    +0.000 A 
ATOM      2  N   UNL     1       0.194  13.720  21.762  0.00  0.00    +0.000 NA
ATOM      3  N   UNL     1      -0.676  12.960  22.454  0.00  0.00    +0.000 N 
ATOM      4  C   UNL     1      -0.542  11.624  22.148  0.00  0.00    +0.000 A 
ATOM      5  C   UNL     1       0.439  11.544  21.186  0.00  0.00    +0.000 A 
ENDROOT
BRANCH   5   6
ATOM      6  C   UNL     1       0.818  10.303  20.461  0.00  0.00    +0.000 A 
ATOM      7  N   UNL     1       0.964   9.165  21.104  0.00  0.00    +0.000 NA
ATOM      8  C   UNL     1       1.509   8.294  20.213  0.00  0.00    +0.000 A 
ATOM      9  C   UNL     1       1.892   6.963  20.421  0.00  0.00    +0.000 A 
ATOM     10  C   UNL     1       2.480   6.261  19.369  0.00  0.00    +0.000 A 
ATOM     11  C   UNL     1       2.674   6.877  18.131  0.00  0.00    +0.000 A 
ATOM     12  C   UNL     1       2.249   8.195  17.891  0.00  0.00    +0.000 A 
ATOM     13  C   UNL     1       1.665   8.885  18.962  0.00  0.00    +0.000 A 
ATOM     14  N   UNL     1       1.070  10.136  19.103  0.00  0.00    +0.000 N 
BRANCH  14  15
ATOM     15  C   UNL     1       0.251  10.765  18.056  0.00  0.00    +0.000 C 
BRANCH  15  16
ATOM     16  C   UNL     1      -1.257  10.778  18.205  0.00  0.00    +0.000 A 
ATOM     17  C   UNL     1      -1.976  11.836  18.777  0.00  0.00    +0.000 A 
ATOM     18  C   UNL     1      -3.375  11.874  18.695  0.00  0.00    +0.000 A 
ATOM     19  C   UNL     1      -4.072  10.852  18.054  0.00  0.00    +0.000 A 
ATOM     20 CL   UNL     1      -5.785  10.929  17.916  0.00  0.00    +0.000 Cl
ATOM     21  C   UNL     1      -3.383   9.780  17.499  0.00  0.00    +0.000 A 
ATOM     22  C   UNL     1      -1.987   9.749  17.570  0.00  0.00    +0.000 A 
ENDBRANCH  15  16
ENDBRANCH  14  15
ENDBRANCH   5   6
BRANCH   1  26
ATOM     23  C   UNL     1       3.954  14.880  18.754  0.00  0.00    +0.000 A 
ATOM     24  C   UNL     1       4.116  14.662  20.124  0.00  0.00    +0.000 A 
ATOM     25  C   UNL     1       3.168  13.939  20.855  0.00  0.00    +0.000 A 
ATOM     26  C   UNL     1       2.029  13.426  20.226  0.00  0.00    +0.000 A 
ATOM     27  C   UNL     1       1.901  13.605  18.839  0.00  0.00    +0.000 A 
ATOM     28  C   UNL     1       2.854  14.326  18.106  0.00  0.00    +0.000 A 
BRANCH  23  30
ATOM     29  C   UNL     1       5.753  16.406  19.074  0.00  0.00    +0.000 C 
ATOM     30  O   UNL     1       4.890  15.703  18.192  0.00  0.00    +0.000 OA
ENDBRANCH  23  30
ENDBRANCH   1  26
BRANCH   3  31
ATOM     31  C   UNL     1      -1.564  13.570  23.383  0.00  0.00    +0.000 A 
ATOM     32  C   UNL     1      -2.855  13.037  23.551  0.00  0.00    +0.000 A 
ATOM     33  C   UNL     1      -3.757  13.639  24.432  0.00  0.00    +0.000 A 
ATOM     34  C   UNL     1      -3.377  14.768  25.148  0.00  0.00    +0.000 A 
ATOM     35  C   UNL     1      -2.092  15.291  24.999  0.00  0.00    +0.000 A 
ATOM     36  C   UNL     1      -1.182  14.693  24.122  0.00  0.00    +0.000 A 
ENDBRANCH   3  31
TORSDOF 6
ENDMDL
MODEL 6
REMARK VINA RESULT:      -7.6      1.738      2.595
REMARK  Name = 
REMARK  7 active torsions:
REMARK  status: ('A' for Active; 'I' for Inactive)
REMARK    1  A    between atoms: C_1  and  O_2
REMARK    2  A    between atoms: O_2  and  C_3
REMARK    3  A    between atoms: C_6  and  C_7
REMARK    4  A    between atoms: N_9  and  C_10
REMARK    5  A    between atoms: C_17  and  C_18
REMARK    6  A    between atoms: N_26  and  C_27
REMARK    7  A    between atoms: C_27  and  C_28
REMARK                            x       y       z     vdW  Elec       q    Type
REMARK                         _______ _______ _______ _____ _____    ______ ____
ROOT
ATOM      1  C   UNL     1      -0.932  10.982  19.049  0.00  0.00    +0.000 A 
ATOM      2  N   UNL     1      -0.262   9.937  18.537  0.00  0.00    +0.000 NA
ATOM      3  N   UNL     1       0.771   9.707  19.369  0.00  0.00    +0.000 N 
ATOM      4  C   UNL     1       0.785  10.592  20.423  0.00  0.00    +0.000 A 
ATOM      5  C   UNL     1      -0.273  11.448  20.224  0.00  0.00    +0.000 A 
ENDROOT
BRANCH   5   6
ATOM      6  C   UNL     1      -0.559  12.653  21.047  0.00  0.00    +0.000 A 
ATOM      7  N   UNL     1      -0.390  13.860  20.553  0.00  0.00    +0.000 NA
ATOM      8  C   UNL     1      -0.526  14.719  21.598  0.00  0.00    +0.000 A 
ATOM      9  C   UNL     1      -0.398  16.114  21.601  0.00  0.00    +0.000 A 
ATOM     10  C   UNL     1      -0.533  16.798  22.808  0.00  0.00    +0.000 A 
ATOM     11  C   UNL     1      -0.800  16.102  23.988  0.00  0.00    +0.000 A 
ATOM     12  C   UNL     1      -0.982  14.709  23.995  0.00  0.00    +0.000 A 
ATOM     13  C   UNL     1      -0.837  14.038  22.773  0.00  0.00    +0.000 A 
ATOM     14  N   UNL     1      -1.004  12.718  22.363  0.00  0.00    +0.000 N 
BRANCH  14  15
ATOM     15  C   UNL     1      -2.050  11.832  22.896  0.00  0.00    +0.000 C 
BRANCH  15  16
ATOM     16  C   UNL     1      -3.426  12.399  23.179  0.00  0.00    +0.000 A 
ATOM     17  C   UNL     1      -4.282  12.902  22.191  0.00  0.00    +0.000 A 
ATOM     18  C   UNL     1      -5.614  13.218  22.493  0.00  0.00    +0.000 A 
ATOM     19  C   UNL     1      -6.103  13.047  23.787  0.00  0.00    +0.000 A 
ATOM     20 CL   UNL     1      -7.751  13.392  24.140  0.00  0.00    +0.000 Cl
ATOM     21  C   UNL     1      -5.268  12.572  24.790  0.00  0.00    +0.000 A 
ATOM     22  C   UNL     1      -3.942  12.245  24.484  0.00  0.00    +0.000 A 
ENDBRANCH  15  16
ENDBRANCH  14  15
ENDBRANCH   5   6
BRANCH   1  26
ATOM     23  C   UNL     1      -4.754  11.676  17.248  0.00  0.00    +0.000 A 
ATOM     24  C   UNL     1      -4.518  12.063  18.568  0.00  0.00    +0.000 A 
ATOM     25  C   UNL     1      -3.252  11.918  19.146  0.00  0.00    +0.000 A 
ATOM     26  C   UNL     1      -2.196  11.370  18.411  0.00  0.00    +0.000 A 
ATOM     27  C   UNL     1      -2.430  11.034  17.067  0.00  0.00    +0.000 A 
ATOM     28  C   UNL     1      -3.697  11.184  16.488  0.00  0.00    +0.000 A 
BRANCH  23  30
ATOM     29  C   UNL     1      -6.858  12.772  17.450  0.00  0.00    +0.000 C 
ATOM     30  O   UNL     1      -6.060  11.760  16.853  0.00  0.00    +0.000 OA
ENDBRANCH  23  30
ENDBRANCH   1  26
BRANCH   3  31
ATOM     31  C   UNL     1       1.665   8.631  19.106  0.00  0.00    +0.000 A 
ATOM     32  C   UNL     1       2.371   8.608  17.890  0.00  0.00    +0.000 A 
ATOM     33  C   UNL     1       3.229   7.544  17.593  0.00  0.00    +0.000 A 
ATOM     34  C   UNL     1       3.387   6.507  18.505  0.00  0.00    +0.000 A 
ATOM     35  C   UNL     1       2.702   6.534  19.720  0.00  0.00    +0.000 A 
ATOM     36  C   UNL     1       1.845   7.595  20.026  0.00  0.00    +0.000 A 
ENDBRANCH   3  31
TORSDOF 6
ENDMDL
MODEL 7
REMARK VINA RESULT:      -7.5      3.100      6.351
REMARK  Name = 
REMARK  7 active torsions:
REMARK  status: ('A' for Active; 'I' for Inactive)
REMARK    1  A    between atoms: C_1  and  O_2
REMARK    2  A    between atoms: O_2  and  C_3
REMARK    3  A    between atoms: C_6  and  C_7
REMARK    4  A    between atoms: N_9  and  C_10
REMARK    5  A    between atoms: C_17  and  C_18
REMARK    6  A    between atoms: N_26  and  C_27
REMARK    7  A    between atoms: C_27  and  C_28
REMARK                            x       y       z     vdW  Elec       q    Type
REMARK                         _______ _______ _______ _____ _____    ______ ____
ROOT
ATOM      1  C   UNL     1      -3.411  12.582  19.968  0.00  0.00    +0.000 A 
ATOM      2  N   UNL     1      -4.546  12.543  20.683  0.00  0.00    +0.000 NA
ATOM      3  N   UNL     1      -4.454  13.531  21.593  0.00  0.00    +0.000 N 
ATOM      4  C   UNL     1      -3.266  14.219  21.481  0.00  0.00    +0.000 A 
ATOM      5  C   UNL     1      -2.559  13.608  20.472  0.00  0.00    +0.000 A 
ENDROOT
BRANCH   5   6
ATOM      6  C   UNL     1      -1.157  13.933  20.099  0.00  0.00    +0.000 A 
ATOM      7  N   UNL     1      -0.837  15.132  19.663  0.00  0.00    +0.000 NA
ATOM      8  C   UNL     1       0.444  15.044  19.216  0.00  0.00    +0.000 A 
ATOM      9  C   UNL     1       1.229  16.040  18.622  0.00  0.00    +0.000 A 
ATOM     10  C   UNL     1       2.514  15.714  18.191  0.00  0.00    +0.000 A 
ATOM     11  C   UNL     1       3.008  14.419  18.359  0.00  0.00    +0.000 A 
ATOM     12  C   UNL     1       2.252  13.421  18.998  0.00  0.00    +0.000 A 
ATOM     13  C   UNL     1       0.961  13.767  19.420  0.00  0.00    +0.000 A 
ATOM     14  N   UNL     1      -0.038  13.107  20.131  0.00  0.00    +0.000 N 
BRANCH  14  15
ATOM     15  C   UNL     1       0.235  12.178  21.237  0.00  0.00    +0.000 C 
BRANCH  15  16
ATOM     16  C   UNL     1       0.512  10.720  20.927  0.00  0.00    +0.000 A 
ATOM     17  C   UNL     1       0.974  10.260  19.687  0.00  0.00    +0.000 A 
ATOM     18  C   UNL     1       1.405   8.935  19.533  0.00  0.00    +0.000 A 
ATOM     19  C   UNL     1       1.369   8.052  20.610  0.00  0.00    +0.000 A 
ATOM     20 CL   UNL     1       1.944   6.441  20.426  0.00  0.00    +0.000 Cl
ATOM     21  C   UNL     1       0.894   8.478  21.844  0.00  0.00    +0.000 A 
ATOM     22  C   UNL     1       0.476   9.803  22.000  0.00  0.00    +0.000 A 
ENDBRANCH  15  16
ENDBRANCH  14  15
ENDBRANCH   5   6
BRANCH   1  26
ATOM     23  C   UNL     1      -2.935  10.356  16.340  0.00  0.00    +0.000 A 
ATOM     24  C   UNL     1      -1.960  10.294  17.338  0.00  0.00    +0.000 A 
ATOM     25  C   UNL     1      -2.137  10.950  18.561  0.00  0.00    +0.000 A 
ATOM     26  C   UNL     1      -3.297  11.692  18.806  0.00  0.00    +0.000 A 
ATOM     27  C   UNL     1      -4.295  11.705  17.817  0.00  0.00    +0.000 A 
ATOM     28  C   UNL     1      -4.118  11.044  16.594  0.00  0.00    +0.000 A 
BRANCH  23  30
ATOM     29  C   UNL     1      -3.331  10.129  14.004  0.00  0.00    +0.000 C 
ATOM     30  O   UNL     1      -2.579   9.775  15.156  0.00  0.00    +0.000 OA
ENDBRANCH  23  30
ENDBRANCH   1  26
BRANCH   3  31
ATOM     31  C   UNL     1      -5.528  13.762  22.497  0.00  0.00    +0.000 A 
ATOM     32  C   UNL     1      -6.411  12.710  22.798  0.00  0.00    +0.000 A 
ATOM     33  C   UNL     1      -7.494  12.923  23.656  0.00  0.00    +0.000 A 
ATOM     34  C   UNL     1      -7.698  14.178  24.217  0.00  0.00    +0.000 A 
ATOM     35  C   UNL     1      -6.814  15.220  23.936  0.00  0.00    +0.000 A 
ATOM     36  C   UNL     1      -5.727  15.017  23.081  0.00  0.00    +0.000 A 
ENDBRANCH   3  31
TORSDOF 6
ENDMDL
MODEL 8
REMARK VINA RESULT:      -7.3      2.683      5.614
REMARK  Name = 
REMARK  7 active torsions:
REMARK  status: ('A' for Active; 'I' for Inactive)
REMARK    1  A    between atoms: C_1  and  O_2
REMARK    2  A    between atoms: O_2  and  C_3
REMARK    3  A    between atoms: C_6  and  C_7
REMARK    4  A    between atoms: N_9  and  C_10
REMARK    5  A    between atoms: C_17  and  C_18
REMARK    6  A    between atoms: N_26  and  C_27
REMARK    7  A    between atoms: C_27  and  C_28
REMARK                            x       y       z     vdW  Elec       q    Type
REMARK                         _______ _______ _______ _____ _____    ______ ____
ROOT
ATOM      1  C   UNL     1      -0.140  10.989  19.066  0.00  0.00    +0.000 A 
ATOM      2  N   UNL     1      -1.443  10.688  18.957  0.00  0.00    +0.000 NA
ATOM      3  N   UNL     1      -2.082  11.852  18.730  0.00  0.00    +0.000 N 
ATOM      4  C   UNL     1      -1.208  12.915  18.691  0.00  0.00    +0.000 A 
ATOM      5  C   UNL     1       0.042  12.397  18.942  0.00  0.00    +0.000 A 
ENDROOT
BRANCH   5   6
ATOM      6  C   UNL     1       1.274  13.207  19.132  0.00  0.00    +0.000 A 
ATOM      7  N   UNL     1       2.088  13.441  18.125  0.00  0.00    +0.000 NA
ATOM      8  C   UNL     1       3.199  14.011  18.662  0.00  0.00    +0.000 A 
ATOM      9  C   UNL     1       4.373  14.411  18.010  0.00  0.00    +0.000 A 
ATOM     10  C   UNL     1       5.417  14.937  18.771  0.00  0.00    +0.000 A 
ATOM     11  C   UNL     1       5.287  15.066  20.154  0.00  0.00    +0.000 A 
ATOM     12  C   UNL     1       4.098  14.717  20.817  0.00  0.00    +0.000 A 
ATOM     13  C   UNL     1       3.062  14.187  20.037  0.00  0.00    +0.000 A 
ATOM     14  N   UNL     1       1.749  13.801  20.297  0.00  0.00    +0.000 N 
BRANCH  14  15
ATOM     15  C   UNL     1       0.874  14.499  21.250  0.00  0.00    +0.000 C 
BRANCH  15  16
ATOM     16  C   UNL     1      -0.336  13.777  21.808  0.00  0.00    +0.000 A 
ATOM     17  C   UNL     1      -0.297  12.480  22.335  0.00  0.00    +0.000 A 
ATOM     18  C   UNL     1      -1.402  11.955  23.020  0.00  0.00    +0.000 A 
ATOM     19  C   UNL     1      -2.561  12.712  23.175  0.00  0.00    +0.000 A 
ATOM     20 CL   UNL     1      -3.896  12.079  24.057  0.00  0.00    +0.000 Cl
ATOM     21  C   UNL     1      -2.633  13.993  22.641  0.00  0.00    +0.000 A 
ATOM     22  C   UNL     1      -1.525  14.521  21.969  0.00  0.00    +0.000 A 
ENDBRANCH  15  16
ENDBRANCH  14  15
ENDBRANCH   5   6
BRANCH   1  26
ATOM     23  C   UNL     1       2.287   7.473  19.357  0.00  0.00    +0.000 A 
ATOM     24  C   UNL     1       2.232   8.194  18.162  0.00  0.00    +0.000 A 
ATOM     25  C   UNL     1       1.510   9.388  18.074  0.00  0.00    +0.000 A 
ATOM     26  C   UNL     1       0.816   9.881  19.184  0.00  0.00    +0.000 A 
ATOM     27  C   UNL     1       0.921   9.176  20.395  0.00  0.00    +0.000 A 
ATOM     28  C   UNL     1       1.649   7.983  20.484  0.00  0.00    +0.000 A 
BRANCH  23  30
ATOM     29  C   UNL     1       2.465   5.224  20.116  0.00  0.00    +0.000 C 
ATOM     30  O   UNL     1       2.924   6.267  19.268  0.00  0.00    +0.000 OA
ENDBRANCH  23  30
ENDBRANCH   1  26
BRANCH   3  31
ATOM     31  C   UNL     1      -3.493  11.859  18.544  0.00  0.00    +0.000 A 
ATOM     32  C   UNL     1      -4.321  12.315  19.585  0.00  0.00    +0.000 A 
ATOM     33  C   UNL     1      -5.711  12.300  19.438  0.00  0.00    +0.000 A 
ATOM     34  C   UNL     1      -6.278  11.834  18.257  0.00  0.00    +0.000 A 
ATOM     35  C   UNL     1      -5.460  11.396  17.215  0.00  0.00    +0.000 A 
ATOM     36  C   UNL     1      -4.069  11.411  17.352  0.00  0.00    +0.000 A 
ENDBRANCH   3  31
TORSDOF 6
ENDMDL
MODEL 9
REMARK VINA RESULT:      -7.3      3.085      7.987
REMARK  Name = 
REMARK  7 active torsions:
REMARK  status: ('A' for Active; 'I' for Inactive)
REMARK    1  A    between atoms: C_1  and  O_2
REMARK    2  A    between atoms: O_2  and  C_3
REMARK    3  A    between atoms: C_6  and  C_7
REMARK    4  A    between atoms: N_9  and  C_10
REMARK    5  A    between atoms: C_17  and  C_18
REMARK    6  A    between atoms: N_26  and  C_27
REMARK    7  A    between atoms: C_27  and  C_28
REMARK                            x       y       z     vdW  Elec       q    Type
REMARK                         _______ _______ _______ _____ _____    ______ ____
ROOT
ATOM      1  C   UNL     1       0.823  13.507  21.092  0.00  0.00    +0.000 A 
ATOM      2  N   UNL     1       0.145  14.355  21.881  0.00  0.00    +0.000 NA
ATOM      3  N   UNL     1      -0.723  13.603  22.586  0.00  0.00    +0.000 N 
ATOM      4  C   UNL     1      -0.620  12.268  22.265  0.00  0.00    +0.000 A 
ATOM      5  C   UNL     1       0.337  12.180  21.280  0.00  0.00    +0.000 A 
ENDROOT
BRANCH   5   6
ATOM      6  C   UNL     1       0.678  10.940  20.534  0.00  0.00    +0.000 A 
ATOM      7  N   UNL     1       0.894   9.809  21.171  0.00  0.00    +0.000 NA
ATOM      8  C   UNL     1       1.380   8.940  20.246  0.00  0.00    +0.000 A 
ATOM      9  C   UNL     1       1.800   7.617  20.431  0.00  0.00    +0.000 A 
ATOM     10  C   UNL     1       2.315   6.917  19.339  0.00  0.00    +0.000 A 
ATOM     11  C   UNL     1       2.399   7.526  18.087  0.00  0.00    +0.000 A 
ATOM     12  C   UNL     1       1.935   8.835  17.872  0.00  0.00    +0.000 A 
ATOM     13  C   UNL     1       1.426   9.524  18.982  0.00  0.00    +0.000 A 
ATOM     14  N   UNL     1       0.824  10.767  19.162  0.00  0.00    +0.000 N 
BRANCH  14  15
ATOM     15  C   UNL     1      -0.086  11.375  18.180  0.00  0.00    +0.000 C 
BRANCH  15  16
ATOM     16  C   UNL     1      -1.581  11.182  18.339  0.00  0.00    +0.000 A 
ATOM     17  C   UNL     1      -2.421  12.096  18.987  0.00  0.00    +0.000 A 
ATOM     18  C   UNL     1      -3.815  11.958  18.916  0.00  0.00    +0.000 A 
ATOM     19  C   UNL     1      -4.383  10.900  18.209  0.00  0.00    +0.000 A 
ATOM     20 CL   UNL     1      -6.094  10.763  18.088  0.00  0.00    +0.000 Cl
ATOM     21  C   UNL     1      -3.571   9.967  17.577  0.00  0.00    +0.000 A 
ATOM     22  C   UNL     1      -2.181  10.113  17.638  0.00  0.00    +0.000 A 
ENDBRANCH  15  16
ENDBRANCH  14  15
ENDBRANCH   5   6
BRANCH   1  26
ATOM     23  C   UNL     1       4.224  14.632  18.747  0.00  0.00    +0.000 A 
ATOM     24  C   UNL     1       2.961  14.547  18.158  0.00  0.00    +0.000 A 
ATOM     25  C   UNL     1       1.827  14.261  18.926  0.00  0.00    +0.000 A 
ATOM     26  C   UNL     1       1.939  14.043  20.303  0.00  0.00    +0.000 A 
ATOM     27  C   UNL     1       3.206  14.183  20.893  0.00  0.00    +0.000 A 
ATOM     28  C   UNL     1       4.341  14.475  20.125  0.00  0.00    +0.000 A 
BRANCH  23  30
ATOM     29  C   UNL     1       6.388  15.527  18.314  0.00  0.00    +0.000 C 
ATOM     30  O   UNL     1       5.256  14.796  17.864  0.00  0.00    +0.000 OA
ENDBRANCH  23  30
ENDBRANCH   1  26
BRANCH   3  31
ATOM     31  C   UNL     1      -1.580  14.220  23.541  0.00  0.00    +0.000 A 
ATOM     32  C   UNL     1      -1.035  15.128  24.466  0.00  0.00    +0.000 A 
ATOM     33  C   UNL     1      -1.851  15.720  25.435  0.00  0.00    +0.000 A 
ATOM     34  C   UNL     1      -3.205  15.412  25.483  0.00  0.00    +0.000 A 
ATOM     35  C   UNL     1      -3.753  14.524  24.557  0.00  0.00    +0.000 A 
ATOM     36  C   UNL     1      -2.946  13.930  23.582  0.00  0.00    +0.000 A 
ENDBRANCH   3  31
TORSDOF 6
ENDMDL
