MODEL 1
REMARK VINA RESULT:      -7.9      0.000      0.000
REMARK  Name = 
REMARK  5 active torsions:
REMARK  status: ('A' for Active; 'I' for Inactive)
REMARK    1  A    between atoms: C_1  and  O_2
REMARK    2  A    between atoms: O_2  and  C_3
REMARK    3  A    between atoms: C_3  and  C_5
REMARK    4  A    between atoms: C_7  and  N_8
REMARK    5  A    between atoms: C_9  and  C_11
REMARK                            x       y       z     vdW  Elec       q    Type
REMARK                         _______ _______ _______ _____ _____    ______ ____
ROOT
ATOM      1  N   UNL     1       4.781   6.259  17.761  0.00  0.00    +0.000 N 
ATOM      2  C   UNL     1       3.494   6.723  17.987  0.00  0.00    +0.000 C 
ATOM      3  O   UNL     1       3.070   7.732  17.439  0.00  0.00    +0.000 OA
ATOM      4  H   UNL     1       5.009   5.316  18.042  0.00  0.00    +0.000 HD
ENDROOT
BRANCH   2   5
ATOM      5  C   UNL     1       2.665   5.938  18.961  0.00  0.00    +0.000 A 
ATOM      6  C   UNL     1       2.123   6.626  20.064  0.00  0.00    +0.000 A 
ATOM      7  C   UNL     1       1.307   5.971  20.978  0.00  0.00    +0.000 A 
ATOM      8  C   UNL     1       1.004   4.627  20.791  0.00  0.00    +0.000 A 
ATOM      9  C   UNL     1       1.510   3.915  19.693  0.00  0.00    +0.000 A 
ATOM     10  C   UNL     1       1.159   2.565  19.526  0.00  0.00    +0.000 A 
ATOM     11  C   UNL     1       1.636   1.824  18.449  0.00  0.00    +0.000 A 
ATOM     12  C   UNL     1       2.484   2.421  17.529  0.00  0.00    +0.000 A 
ATOM     13  C   UNL     1       2.846   3.762  17.685  0.00  0.00    +0.000 A 
ATOM     14  C   UNL     1       2.363   4.557  18.756  0.00  0.00    +0.000 A 
ENDBRANCH   2   5
BRANCH   1  17
ATOM     15  C   UNL     1       6.553   5.217  15.404  0.00  0.00    +0.000 C 
ATOM     16  C   UNL     1       5.497   6.312  15.412  0.00  0.00    +0.000 C 
ATOM     17  C   UNL     1       5.649   6.929  16.794  0.00  0.00    +0.000 C 
ATOM     18  C   UNL     1       7.147   6.736  17.110  0.00  0.00    +0.000 C 
ATOM     19  N   UNL     1       7.703   5.890  16.042  0.00  0.00    +0.000 NA
ATOM     20  H   UNL     1       8.350   5.201  16.424  0.00  0.00    +0.000 HD
BRANCH  15  21
ATOM     21  C   UNL     1       6.844   4.728  13.992  0.00  0.00    +0.000 C 
ATOM     22  O   UNL     1       7.601   5.305  13.214  0.00  0.00    +0.000 OA
BRANCH  21  24
ATOM     23  C   UNL     1       6.083   3.348  12.263  0.00  0.00    +0.000 C 
ATOM     24  O   UNL     1       6.091   3.637  13.661  0.00  0.00    +0.000 OA
ENDBRANCH  21  24
ENDBRANCH  15  21
ENDBRANCH   1  17
TORSDOF 4
ENDMDL
MODEL 2
REMARK VINA RESULT:      -7.7      1.051      1.372
REMARK  Name = 
REMARK  5 active torsions:
REMARK  status: ('A' for Active; 'I' for Inactive)
REMARK    1  A    between atoms: C_1  and  O_2
REMARK    2  A    between atoms: O_2  and  C_3
REMARK    3  A    between atoms: C_3  and  C_5
REMARK    4  A    between atoms: C_7  and  N_8
REMARK    5  A    between atoms: C_9  and  C_11
REMARK                            x       y       z     vdW  Elec       q    Type
REMARK                         _______ _______ _______ _____ _____    ______ ____
ROOT
ATOM      1  N   UNL     1       5.533   5.539  18.698  0.00  0.00    +0.000 N 
ATOM      2  C   UNL     1       4.320   6.114  18.354  0.00  0.00    +0.000 C 
ATOM      3  O   UNL     1       4.239   6.973  17.485  0.00  0.00    +0.000 OA
ATOM      4  H   UNL     1       5.526   4.687  19.241  0.00  0.00    +0.000 HD
ENDROOT
BRANCH   2   5
ATOM      5  C   UNL     1       3.121   5.649  19.127  0.00  0.00    +0.000 A 
ATOM      6  C   UNL     1       2.523   6.559  20.021  0.00  0.00    +0.000 A 
ATOM      7  C   UNL     1       1.381   6.209  20.732  0.00  0.00    +0.000 A 
ATOM      8  C   UNL     1       0.809   4.956  20.544  0.00  0.00    +0.000 A 
ATOM      9  C   UNL     1       1.366   4.032  19.647  0.00  0.00    +0.000 A 
ATOM     10  C   UNL     1       0.742   2.786  19.465  0.00  0.00    +0.000 A 
ATOM     11  C   UNL     1       1.259   1.843  18.582  0.00  0.00    +0.000 A 
ATOM     12  C   UNL     1       2.417   2.128  17.877  0.00  0.00    +0.000 A 
ATOM     13  C   UNL     1       3.052   3.361  18.051  0.00  0.00    +0.000 A 
ATOM     14  C   UNL     1       2.544   4.358  18.923  0.00  0.00    +0.000 A 
ENDBRANCH   2   5
BRANCH   1  17
ATOM     15  C   UNL     1       6.744   4.590  15.975  0.00  0.00    +0.000 C 
ATOM     16  C   UNL     1       6.478   6.001  16.478  0.00  0.00    +0.000 C 
ATOM     17  C   UNL     1       6.751   5.894  17.970  0.00  0.00    +0.000 C 
ATOM     18  C   UNL     1       7.834   4.797  18.058  0.00  0.00    +0.000 C 
ATOM     19  N   UNL     1       7.973   4.225  16.709  0.00  0.00    +0.000 NA
ATOM     20  H   UNL     1       8.073   3.212  16.753  0.00  0.00    +0.000 HD
BRANCH  15  21
ATOM     21  C   UNL     1       6.910   4.556  14.461  0.00  0.00    +0.000 C 
ATOM     22  O   UNL     1       6.351   3.739  13.734  0.00  0.00    +0.000 OA
BRANCH  21  24
ATOM     23  C   UNL     1       8.022   5.458  12.612  0.00  0.00    +0.000 C 
ATOM     24  O   UNL     1       7.829   5.468  14.026  0.00  0.00    +0.000 OA
ENDBRANCH  21  24
ENDBRANCH  15  21
ENDBRANCH   1  17
TORSDOF 4
ENDMDL
MODEL 3
REMARK VINA RESULT:      -7.6      3.051      5.038
REMARK  Name = 
REMARK  5 active torsions:
REMARK  status: ('A' for Active; 'I' for Inactive)
REMARK    1  A    between atoms: C_1  and  O_2
REMARK    2  A    between atoms: O_2  and  C_3
REMARK    3  A    between atoms: C_3  and  C_5
REMARK    4  A    between atoms: C_7  and  N_8
REMARK    5  A    between atoms: C_9  and  C_11
REMARK                            x       y       z     vdW  Elec       q    Type
REMARK                         _______ _______ _______ _____ _____    ______ ____
ROOT
ATOM      1  N   UNL     1       3.593   6.303  19.020  0.00  0.00    +0.000 N 
ATOM      2  C   UNL     1       2.482   6.660  19.769  0.00  0.00    +0.000 C 
ATOM      3  O   UNL     1       2.024   5.920  20.631  0.00  0.00    +0.000 OA
ATOM      4  H   UNL     1       4.070   7.021  18.495  0.00  0.00    +0.000 HD
ENDROOT
BRANCH   2   5
ATOM      5  C   UNL     1       1.858   7.985  19.443  0.00  0.00    +0.000 A 
ATOM      6  C   UNL     1       1.892   8.413  18.101  0.00  0.00    +0.000 A 
ATOM      7  C   UNL     1       1.290   9.607  17.722  0.00  0.00    +0.000 A 
ATOM      8  C   UNL     1       0.628  10.378  18.672  0.00  0.00    +0.000 A 
ATOM      9  C   UNL     1       0.558   9.971  20.013  0.00  0.00    +0.000 A 
ATOM     10  C   UNL     1      -0.143  10.765  20.937  0.00  0.00    +0.000 A 
ATOM     11  C   UNL     1      -0.241  10.398  22.275  0.00  0.00    +0.000 A 
ATOM     12  C   UNL     1       0.374   9.235  22.712  0.00  0.00    +0.000 A 
ATOM     13  C   UNL     1       1.079   8.438  21.806  0.00  0.00    +0.000 A 
ATOM     14  C   UNL     1       1.182   8.765  20.430  0.00  0.00    +0.000 A 
ENDBRANCH   2   5
BRANCH   1  17
ATOM     15  C   UNL     1       5.914   4.800  17.561  0.00  0.00    +0.000 C 
ATOM     16  C   UNL     1       5.788   5.201  19.023  0.00  0.00    +0.000 C 
ATOM     17  C   UNL     1       4.299   5.052  19.295  0.00  0.00    +0.000 C 
ATOM     18  C   UNL     1       3.873   3.912  18.346  0.00  0.00    +0.000 C 
ATOM     19  N   UNL     1       5.030   3.618  17.486  0.00  0.00    +0.000 NA
ATOM     20  H   UNL     1       4.736   3.456  16.524  0.00  0.00    +0.000 HD
BRANCH  15  21
ATOM     21  C   UNL     1       7.359   4.499  17.184  0.00  0.00    +0.000 C 
ATOM     22  O   UNL     1       8.206   4.115  17.987  0.00  0.00    +0.000 OA
BRANCH  21  24
ATOM     23  C   UNL     1       6.460   5.150  15.125  0.00  0.00    +0.000 C 
ATOM     24  O   UNL     1       7.622   4.805  15.879  0.00  0.00    +0.000 OA
ENDBRANCH  21  24
ENDBRANCH  15  21
ENDBRANCH   1  17
TORSDOF 4
ENDMDL
MODEL 4
REMARK VINA RESULT:      -7.4      2.253      4.273
REMARK  Name = 
REMARK  5 active torsions:
REMARK  status: ('A' for Active; 'I' for Inactive)
REMARK    1  A    between atoms: C_1  and  O_2
REMARK    2  A    between atoms: O_2  and  C_3
REMARK    3  A    between atoms: C_3  and  C_5
REMARK    4  A    between atoms: C_7  and  N_8
REMARK    5  A    between atoms: C_9  and  C_11
REMARK                            x       y       z     vdW  Elec       q    Type
REMARK                         _______ _______ _______ _____ _____    ______ ____
ROOT
ATOM      1  N   UNL     1       6.166   4.104  18.348  0.00  0.00    +0.000 N 
ATOM      2  C   UNL     1       5.042   4.101  17.538  0.00  0.00    +0.000 C 
ATOM      3  O   UNL     1       5.064   4.568  16.406  0.00  0.00    +0.000 OA
ATOM      4  H   UNL     1       6.172   3.513  19.167  0.00  0.00    +0.000 HD
ENDROOT
BRANCH   2   5
ATOM      5  C   UNL     1       3.793   3.523  18.135  0.00  0.00    +0.000 A 
ATOM      6  C   UNL     1       3.520   2.162  17.893  0.00  0.00    +0.000 A 
ATOM      7  C   UNL     1       2.406   1.551  18.456  0.00  0.00    +0.000 A 
ATOM      8  C   UNL     1       1.563   2.283  19.284  0.00  0.00    +0.000 A 
ATOM      9  C   UNL     1       1.816   3.634  19.563  0.00  0.00    +0.000 A 
ATOM     10  C   UNL     1       0.955   4.332  20.427  0.00  0.00    +0.000 A 
ATOM     11  C   UNL     1       1.171   5.672  20.734  0.00  0.00    +0.000 A 
ATOM     12  C   UNL     1       2.247   6.338  20.168  0.00  0.00    +0.000 A 
ATOM     13  C   UNL     1       3.109   5.659  19.303  0.00  0.00    +0.000 A 
ATOM     14  C   UNL     1       2.936   4.287  18.984  0.00  0.00    +0.000 A 
ENDBRANCH   2   5
BRANCH   1  17
ATOM     15  C   UNL     1       7.171   6.953  17.539  0.00  0.00    +0.000 C 
ATOM     16  C   UNL     1       7.797   5.936  18.482  0.00  0.00    +0.000 C 
ATOM     17  C   UNL     1       7.443   4.604  17.839  0.00  0.00    +0.000 C 
ATOM     18  C   UNL     1       7.390   4.936  16.332  0.00  0.00    +0.000 C 
ATOM     19  N   UNL     1       7.512   6.398  16.213  0.00  0.00    +0.000 NA
ATOM     20  H   UNL     1       6.876   6.759  15.503  0.00  0.00    +0.000 HD
BRANCH  15  21
ATOM     21  C   UNL     1       7.727   8.352  17.772  0.00  0.00    +0.000 C 
ATOM     22  O   UNL     1       7.407   9.331  17.102  0.00  0.00    +0.000 OA
BRANCH  21  24
ATOM     23  C   UNL     1       9.143   9.675  19.081  0.00  0.00    +0.000 C 
ATOM     24  O   UNL     1       8.693   8.365  18.738  0.00  0.00    +0.000 OA
ENDBRANCH  21  24
ENDBRANCH  15  21
ENDBRANCH   1  17
TORSDOF 4
ENDMDL
MODEL 5
REMARK VINA RESULT:      -7.3      4.201      7.042
REMARK  Name = 
REMARK  5 active torsions:
REMARK  status: ('A' for Active; 'I' for Inactive)
REMARK    1  A    between atoms: C_1  and  O_2
REMARK    2  A    between atoms: O_2  and  C_3
REMARK    3  A    between atoms: C_3  and  C_5
REMARK    4  A    between atoms: C_7  and  N_8
REMARK    5  A    between atoms: C_9  and  C_11
REMARK                            x       y       z     vdW  Elec       q    Type
REMARK                         _______ _______ _______ _____ _____    ______ ____
ROOT
ATOM      1  N   UNL     1       1.557   8.902  18.941  0.00  0.00    +0.000 N 
ATOM      2  C   UNL     1       1.932   7.815  19.714  0.00  0.00    +0.000 C 
ATOM      3  O   UNL     1       1.798   7.816  20.932  0.00  0.00    +0.000 OA
ATOM      4  H   UNL     1       1.467   8.776  17.943  0.00  0.00    +0.000 HD
ENDROOT
BRANCH   2   5
ATOM      5  C   UNL     1       2.536   6.653  18.981  0.00  0.00    +0.000 A 
ATOM      6  C   UNL     1       3.464   6.935  17.959  0.00  0.00    +0.000 A 
ATOM      7  C   UNL     1       4.097   5.905  17.272  0.00  0.00    +0.000 A 
ATOM      8  C   UNL     1       3.828   4.584  17.611  0.00  0.00    +0.000 A 
ATOM      9  C   UNL     1       2.925   4.268  18.636  0.00  0.00    +0.000 A 
ATOM     10  C   UNL     1       2.700   2.920  18.966  0.00  0.00    +0.000 A 
ATOM     11  C   UNL     1       1.815   2.563  19.978  0.00  0.00    +0.000 A 
ATOM     12  C   UNL     1       1.130   3.551  20.669  0.00  0.00    +0.000 A 
ATOM     13  C   UNL     1       1.339   4.895  20.349  0.00  0.00    +0.000 A 
ATOM     14  C   UNL     1       2.249   5.301  19.340  0.00  0.00    +0.000 A 
ENDBRANCH   2   5
BRANCH   1  17
ATOM     15  C   UNL     1      -0.901  10.660  18.139  0.00  0.00    +0.000 C 
ATOM     16  C   UNL     1      -0.597   9.963  19.456  0.00  0.00    +0.000 C 
ATOM     17  C   UNL     1       0.917  10.063  19.558  0.00  0.00    +0.000 C 
ATOM     18  C   UNL     1       1.241  11.380  18.821  0.00  0.00    +0.000 C 
ATOM     19  N   UNL     1      -0.011  11.838  18.197  0.00  0.00    +0.000 NA
ATOM     20  H   UNL     1       0.160  12.200  17.260  0.00  0.00    +0.000 HD
BRANCH  15  21
ATOM     21  C   UNL     1      -2.377  11.021  18.022  0.00  0.00    +0.000 C 
ATOM     22  O   UNL     1      -2.945  11.812  18.772  0.00  0.00    +0.000 OA
BRANCH  21  24
ATOM     23  C   UNL     1      -2.922  10.860  15.754  0.00  0.00    +0.000 C 
ATOM     24  O   UNL     1      -3.009  10.289  17.058  0.00  0.00    +0.000 OA
ENDBRANCH  21  24
ENDBRANCH  15  21
ENDBRANCH   1  17
TORSDOF 4
ENDMDL
MODEL 6
REMARK VINA RESULT:      -7.2      1.433      1.454
REMARK  Name = 
REMARK  5 active torsions:
REMARK  status: ('A' for Active; 'I' for Inactive)
REMARK    1  A    between atoms: C_1  and  O_2
REMARK    2  A    between atoms: O_2  and  C_3
REMARK    3  A    between atoms: C_3  and  C_5
REMARK    4  A    between atoms: C_7  and  N_8
REMARK    5  A    between atoms: C_9  and  C_11
REMARK                            x       y       z     vdW  Elec       q    Type
REMARK                         _______ _______ _______ _____ _____    ______ ____
ROOT
ATOM      1  N   UNL     1       5.150   5.925  17.950  0.00  0.00    +0.000 N 
ATOM      2  C   UNL     1       4.978   5.326  19.188  0.00  0.00    +0.000 C 
ATOM      3  O   UNL     1       5.932   4.967  19.866  0.00  0.00    +0.000 OA
ATOM      4  H   UNL     1       4.367   6.409  17.535  0.00  0.00    +0.000 HD
ENDROOT
BRANCH   2   5
ATOM      5  C   UNL     1       3.560   5.116  19.634  0.00  0.00    +0.000 A 
ATOM      6  C   UNL     1       2.913   6.186  20.284  0.00  0.00    +0.000 A 
ATOM      7  C   UNL     1       1.585   6.076  20.680  0.00  0.00    +0.000 A 
ATOM      8  C   UNL     1       0.881   4.907  20.414  0.00  0.00    +0.000 A 
ATOM      9  C   UNL     1       1.488   3.830  19.750  0.00  0.00    +0.000 A 
ATOM     10  C   UNL     1       0.734   2.677  19.476  0.00  0.00    +0.000 A 
ATOM     11  C   UNL     1       1.296   1.587  18.817  0.00  0.00    +0.000 A 
ATOM     12  C   UNL     1       2.628   1.632  18.434  0.00  0.00    +0.000 A 
ATOM     13  C   UNL     1       3.392   2.771  18.705  0.00  0.00    +0.000 A 
ATOM     14  C   UNL     1       2.850   3.910  19.353  0.00  0.00    +0.000 A 
ENDBRANCH   2   5
BRANCH   1  17
ATOM     15  C   UNL     1       6.787   4.869  15.504  0.00  0.00    +0.000 C 
ATOM     16  C   UNL     1       6.498   6.300  15.931  0.00  0.00    +0.000 C 
ATOM     17  C   UNL     1       6.494   6.214  17.450  0.00  0.00    +0.000 C 
ATOM     18  C   UNL     1       7.493   5.076  17.747  0.00  0.00    +0.000 C 
ATOM     19  N   UNL     1       7.847   4.470  16.453  0.00  0.00    +0.000 NA
ATOM     20  H   UNL     1       7.893   3.454  16.528  0.00  0.00    +0.000 HD
BRANCH  15  21
ATOM     21  C   UNL     1       7.221   4.795  14.046  0.00  0.00    +0.000 C 
ATOM     22  O   UNL     1       8.061   5.542  13.547  0.00  0.00    +0.000 OA
BRANCH  21  24
ATOM     23  C   UNL     1       6.880   3.773  11.971  0.00  0.00    +0.000 C 
ATOM     24  O   UNL     1       6.497   3.876  13.342  0.00  0.00    +0.000 OA
ENDBRANCH  21  24
ENDBRANCH  15  21
ENDBRANCH   1  17
TORSDOF 4
ENDMDL
MODEL 7
REMARK VINA RESULT:      -7.1      4.024      7.147
REMARK  Name = 
REMARK  5 active torsions:
REMARK  status: ('A' for Active; 'I' for Inactive)
REMARK    1  A    between atoms: C_1  and  O_2
REMARK    2  A    between atoms: O_2  and  C_3
REMARK    3  A    between atoms: C_3  and  C_5
REMARK    4  A    between atoms: C_7  and  N_8
REMARK    5  A    between atoms: C_9  and  C_11
REMARK                            x       y       z     vdW  Elec       q    Type
REMARK                         _______ _______ _______ _____ _____    ______ ____
ROOT
ATOM      1  N   UNL     1       1.864   8.721  18.533  0.00  0.00    +0.000 N 
ATOM      2  C   UNL     1       2.291   7.560  19.158  0.00  0.00    +0.000 C 
ATOM      3  O   UNL     1       2.143   7.386  20.362  0.00  0.00    +0.000 OA
ATOM      4  H   UNL     1       1.793   8.728  17.526  0.00  0.00    +0.000 HD
ENDROOT
BRANCH   2   5
ATOM      5  C   UNL     1       2.971   6.546  18.286  0.00  0.00    +0.000 A 
ATOM      6  C   UNL     1       4.061   6.979  17.506  0.00  0.00    +0.000 A 
ATOM      7  C   UNL     1       4.766   6.082  16.712  0.00  0.00    +0.000 A 
ATOM      8  C   UNL     1       4.406   4.739  16.703  0.00  0.00    +0.000 A 
ATOM      9  C   UNL     1       3.339   4.270  17.483  0.00  0.00    +0.000 A 
ATOM     10  C   UNL     1       3.023   2.900  17.467  0.00  0.00    +0.000 A 
ATOM     11  C   UNL     1       1.975   2.392  18.228  0.00  0.00    +0.000 A 
ATOM     12  C   UNL     1       1.217   3.252  19.009  0.00  0.00    +0.000 A 
ATOM     13  C   UNL     1       1.515   4.617  19.031  0.00  0.00    +0.000 A 
ATOM     14  C   UNL     1       2.590   5.170  18.288  0.00  0.00    +0.000 A 
ENDBRANCH   2   5
BRANCH   1  17
ATOM     15  C   UNL     1      -0.785  10.299  18.011  0.00  0.00    +0.000 C 
ATOM     16  C   UNL     1      -0.352   9.511  19.238  0.00  0.00    +0.000 C 
ATOM     17  C   UNL     1       1.149   9.748  19.290  0.00  0.00    +0.000 C 
ATOM     18  C   UNL     1       1.312  11.155  18.678  0.00  0.00    +0.000 C 
ATOM     19  N   UNL     1      -0.006  11.547  18.154  0.00  0.00    +0.000 NA
ATOM     20  H   UNL     1       0.085  12.014  17.252  0.00  0.00    +0.000 HD
BRANCH  15  21
ATOM     21  C   UNL     1      -2.291  10.525  17.990  0.00  0.00    +0.000 C 
ATOM     22  O   UNL     1      -3.107   9.644  17.730  0.00  0.00    +0.000 OA
BRANCH  21  24
ATOM     23  C   UNL     1      -3.525  12.042  19.273  0.00  0.00    +0.000 C 
ATOM     24  O   UNL     1      -2.616  11.836  18.193  0.00  0.00    +0.000 OA
ENDBRANCH  21  24
ENDBRANCH  15  21
ENDBRANCH   1  17
TORSDOF 4
ENDMDL
MODEL 8
REMARK VINA RESULT:      -7.1      4.627      7.353
REMARK  Name = 
REMARK  5 active torsions:
REMARK  status: ('A' for Active; 'I' for Inactive)
REMARK    1  A    between atoms: C_1  and  O_2
REMARK    2  A    between atoms: O_2  and  C_3
REMARK    3  A    between atoms: C_3  and  C_5
REMARK    4  A    between atoms: C_7  and  N_8
REMARK    5  A    between atoms: C_9  and  C_11
REMARK                            x       y       z     vdW  Elec       q    Type
REMARK                         _______ _______ _______ _____ _____    ______ ____
ROOT
ATOM      1  N   UNL     1       0.900   9.355  18.740  0.00  0.00    +0.000 N 
ATOM      2  C   UNL     1       1.566   8.492  19.596  0.00  0.00    +0.000 C 
ATOM      3  O   UNL     1       1.478   8.598  20.812  0.00  0.00    +0.000 OA
ATOM      4  H   UNL     1       0.812   9.097  17.768  0.00  0.00    +0.000 HD
ENDROOT
BRANCH   2   5
ATOM      5  C   UNL     1       2.422   7.443  18.949  0.00  0.00    +0.000 A 
ATOM      6  C   UNL     1       3.218   7.832  17.853  0.00  0.00    +0.000 A 
ATOM      7  C   UNL     1       4.070   6.922  17.237  0.00  0.00    +0.000 A 
ATOM      8  C   UNL     1       4.155   5.621  17.720  0.00  0.00    +0.000 A 
ATOM      9  C   UNL     1       3.392   5.206  18.821  0.00  0.00    +0.000 A 
ATOM     10  C   UNL     1       3.526   3.890  19.296  0.00  0.00    +0.000 A 
ATOM     11  C   UNL     1       2.791   3.438  20.387  0.00  0.00    +0.000 A 
ATOM     12  C   UNL     1       1.900   4.295  21.014  0.00  0.00    +0.000 A 
ATOM     13  C   UNL     1       1.751   5.605  20.550  0.00  0.00    +0.000 A 
ATOM     14  C   UNL     1       2.499   6.110  19.456  0.00  0.00    +0.000 A 
ENDBRANCH   2   5
BRANCH   1  17
ATOM     15  C   UNL     1      -1.512  10.927  17.520  0.00  0.00    +0.000 C 
ATOM     16  C   UNL     1      -1.426  10.140  18.819  0.00  0.00    +0.000 C 
ATOM     17  C   UNL     1       0.006  10.381  19.275  0.00  0.00    +0.000 C 
ATOM     18  C   UNL     1       0.324  11.789  18.727  0.00  0.00    +0.000 C 
ATOM     19  N   UNL     1      -0.804  12.177  17.866  0.00  0.00    +0.000 NA
ATOM     20  H   UNL     1      -0.473  12.643  17.022  0.00  0.00    +0.000 HD
BRANCH  15  21
ATOM     21  C   UNL     1      -2.957  11.149  17.093  0.00  0.00    +0.000 C 
ATOM     22  O   UNL     1      -3.915  11.060  17.858  0.00  0.00    +0.000 OA
BRANCH  21  24
ATOM     23  C   UNL     1      -2.987  10.157  14.975  0.00  0.00    +0.000 C 
ATOM     24  O   UNL     1      -3.068  11.354  15.747  0.00  0.00    +0.000 OA
ENDBRANCH  21  24
ENDBRANCH  15  21
ENDBRANCH   1  17
TORSDOF 4
ENDMDL
MODEL 9
REMARK VINA RESULT:      -7.1      3.357      5.571
REMARK  Name = 
REMARK  5 active torsions:
REMARK  status: ('A' for Active; 'I' for Inactive)
REMARK    1  A    between atoms: C_1  and  O_2
REMARK    2  A    between atoms: O_2  and  C_3
REMARK    3  A    between atoms: C_3  and  C_5
REMARK    4  A    between atoms: C_7  and  N_8
REMARK    5  A    between atoms: C_9  and  C_11
REMARK                            x       y       z     vdW  Elec       q    Type
REMARK                         _______ _______ _______ _____ _____    ______ ____
ROOT
ATOM      1  N   UNL     1       2.837   6.751  18.810  0.00  0.00    +0.000 N 
ATOM      2  C   UNL     1       2.016   7.199  19.833  0.00  0.00    +0.000 C 
ATOM      3  O   UNL     1       1.752   6.495  20.800  0.00  0.00    +0.000 OA
ATOM      4  H   UNL     1       3.212   7.427  18.161  0.00  0.00    +0.000 HD
ENDROOT
BRANCH   2   5
ATOM      5  C   UNL     1       1.447   8.578  19.673  0.00  0.00    +0.000 A 
ATOM      6  C   UNL     1       1.522   9.174  18.399  0.00  0.00    +0.000 A 
ATOM      7  C   UNL     1       0.972  10.430  18.169  0.00  0.00    +0.000 A 
ATOM      8  C   UNL     1       0.322  11.097  19.202  0.00  0.00    +0.000 A 
ATOM      9  C   UNL     1       0.211  10.524  20.477  0.00  0.00    +0.000 A 
ATOM     10  C   UNL     1      -0.478  11.218  21.487  0.00  0.00    +0.000 A 
ATOM     11  C   UNL     1      -0.615  10.685  22.765  0.00  0.00    +0.000 A 
ATOM     12  C   UNL     1      -0.052   9.452  23.055  0.00  0.00    +0.000 A 
ATOM     13  C   UNL     1       0.641   8.752  22.063  0.00  0.00    +0.000 A 
ATOM     14  C   UNL     1       0.782   9.250  20.743  0.00  0.00    +0.000 A 
ENDBRANCH   2   5
BRANCH   1  17
ATOM     15  C   UNL     1       5.529   5.612  17.699  0.00  0.00    +0.000 C 
ATOM     16  C   UNL     1       4.975   5.580  19.115  0.00  0.00    +0.000 C 
ATOM     17  C   UNL     1       3.476   5.438  18.897  0.00  0.00    +0.000 C 
ATOM     18  C   UNL     1       3.380   4.644  17.577  0.00  0.00    +0.000 C 
ATOM     19  N   UNL     1       4.745   4.551  17.035  0.00  0.00    +0.000 NA
ATOM     20  H   UNL     1       4.744   4.689  16.024  0.00  0.00    +0.000 HD
BRANCH  15  21
ATOM     21  C   UNL     1       7.031   5.358  17.677  0.00  0.00    +0.000 C 
ATOM     22  O   UNL     1       7.576   4.447  18.297  0.00  0.00    +0.000 OA
BRANCH  21  24
ATOM     23  C   UNL     1       7.613   7.619  17.553  0.00  0.00    +0.000 C 
ATOM     24  O   UNL     1       7.703   6.317  16.975  0.00  0.00    +0.000 OA
ENDBRANCH  21  24
ENDBRANCH  15  21
ENDBRANCH   1  17
TORSDOF 4
ENDMDL
