MODEL 1
REMARK VINA RESULT:      -6.3      0.000      0.000
REMARK  Name = 
REMARK  3 active torsions:
REMARK  status: ('A' for Active; 'I' for Inactive)
REMARK    1  A    between atoms: C_1  and  C_2
REMARK    2  A    between atoms: C_4  and  O_5
REMARK    3  A    between atoms: C_9  and  N_10
REMARK                            x       y       z     vdW  Elec       q    Type
REMARK                         _______ _______ _______ _____ _____    ______ ____
ROOT
ATOM      1  C   UNL     1       3.324   7.284  17.793  0.00  0.00    +0.000 C 
ATOM      2  C   UNL     1       3.961   6.028  18.318  0.00  0.00    +0.000 A 
ATOM      3  C   UNL     1       5.239   5.675  17.873  0.00  0.00    +0.000 A 
ATOM      4  C   UNL     1       5.811   4.522  18.372  0.00  0.00    +0.000 A 
ATOM      5  N   UNL     1       5.227   3.716  19.269  0.00  0.00    +0.000 NA
ATOM      6  C   UNL     1       3.997   4.036  19.699  0.00  0.00    +0.000 A 
ATOM      7  C   UNL     1       3.376   3.190  20.611  0.00  0.00    +0.000 A 
ATOM      8  C   UNL     1       2.100   3.445  21.125  0.00  0.00    +0.000 A 
ATOM      9  C   UNL     1       1.399   4.542  20.638  0.00  0.00    +0.000 A 
ATOM     10  C   UNL     1       2.000   5.420  19.735  0.00  0.00    +0.000 A 
ATOM     11  C   UNL     1       3.305   5.185  19.252  0.00  0.00    +0.000 A 
ENDROOT
BRANCH   8  12
ATOM     12  N   UNL     1       1.454   2.492  21.921  0.00  0.00    +0.000 N 
ATOM     13  H   UNL     1       0.448   2.463  21.792  0.00  0.00    +0.000 HD
ATOM     14  H   UNL     1       1.875   1.568  21.888  0.00  0.00    +0.000 HD
ENDBRANCH   8  12
BRANCH   4  15
ATOM     15  O   UNL     1       7.046   4.115  17.960  0.00  0.00    +0.000 OA
ATOM     16  H   UNL     1       7.124   3.166  18.137  0.00  0.00    +0.000 HD
ENDBRANCH   4  15
TORSDOF 2
ENDMDL
MODEL 2
REMARK VINA RESULT:      -6.2      1.820      2.234
REMARK  Name = 
REMARK  3 active torsions:
REMARK  status: ('A' for Active; 'I' for Inactive)
REMARK    1  A    between atoms: C_1  and  C_2
REMARK    2  A    between atoms: C_4  and  O_5
REMARK    3  A    between atoms: C_9  and  N_10
REMARK                            x       y       z     vdW  Elec       q    Type
REMARK                         _______ _______ _______ _____ _____    ______ ____
ROOT
ATOM      1  C   UNL     1       5.230   4.205  15.635  0.00  0.00    +0.000 C 
ATOM      2  C   UNL     1       5.155   4.465  17.114  0.00  0.00    +0.000 A 
ATOM      3  C   UNL     1       6.302   4.892  17.788  0.00  0.00    +0.000 A 
ATOM      4  C   UNL     1       6.213   5.133  19.145  0.00  0.00    +0.000 A 
ATOM      5  N   UNL     1       5.091   4.994  19.864  0.00  0.00    +0.000 NA
ATOM      6  C   UNL     1       3.984   4.576  19.233  0.00  0.00    +0.000 A 
ATOM      7  C   UNL     1       2.822   4.407  19.978  0.00  0.00    +0.000 A 
ATOM      8  C   UNL     1       1.617   3.985  19.407  0.00  0.00    +0.000 A 
ATOM      9  C   UNL     1       1.608   3.645  18.060  0.00  0.00    +0.000 A 
ATOM     10  C   UNL     1       2.752   3.819  17.280  0.00  0.00    +0.000 A 
ATOM     11  C   UNL     1       3.955   4.287  17.848  0.00  0.00    +0.000 A 
ENDROOT
BRANCH   8  12
ATOM     12  N   UNL     1       0.517   3.684  20.219  0.00  0.00    +0.000 N 
ATOM     13  H   UNL     1       0.661   3.897  21.201  0.00  0.00    +0.000 HD
ATOM     14  H   UNL     1      -0.367   4.040  19.871  0.00  0.00    +0.000 HD
ENDBRANCH   8  12
BRANCH   4  15
ATOM     15  O   UNL     1       7.303   5.531  19.862  0.00  0.00    +0.000 OA
ATOM     16  H   UNL     1       7.529   6.432  19.588  0.00  0.00    +0.000 HD
ENDBRANCH   4  15
TORSDOF 2
ENDMDL
MODEL 3
REMARK VINA RESULT:      -6.2      2.322      2.454
REMARK  Name = 
REMARK  3 active torsions:
REMARK  status: ('A' for Active; 'I' for Inactive)
REMARK    1  A    between atoms: C_1  and  C_2
REMARK    2  A    between atoms: C_4  and  O_5
REMARK    3  A    between atoms: C_9  and  N_10
REMARK                            x       y       z     vdW  Elec       q    Type
REMARK                         _______ _______ _______ _____ _____    ______ ____
ROOT
ATOM      1  C   UNL     1       3.176   8.060  17.678  0.00  0.00    +0.000 C 
ATOM      2  C   UNL     1       4.011   6.845  17.383  0.00  0.00    +0.000 A 
ATOM      3  C   UNL     1       5.300   7.014  16.871  0.00  0.00    +0.000 A 
ATOM      4  C   UNL     1       6.055   5.886  16.614  0.00  0.00    +0.000 A 
ATOM      5  N   UNL     1       5.638   4.632  16.833  0.00  0.00    +0.000 NA
ATOM      6  C   UNL     1       4.400   4.454  17.315  0.00  0.00    +0.000 A 
ATOM      7  C   UNL     1       3.952   3.153  17.521  0.00  0.00    +0.000 A 
ATOM      8  C   UNL     1       2.681   2.867  18.030  0.00  0.00    +0.000 A 
ATOM      9  C   UNL     1       1.808   3.924  18.259  0.00  0.00    +0.000 A 
ATOM     10  C   UNL     1       2.231   5.241  18.078  0.00  0.00    +0.000 A 
ATOM     11  C   UNL     1       3.529   5.529  17.607  0.00  0.00    +0.000 A 
ENDROOT
BRANCH   8  12
ATOM     12  N   UNL     1       2.219   1.546  18.078  0.00  0.00    +0.000 N 
ATOM     13  H   UNL     1       1.541   1.375  18.814  0.00  0.00    +0.000 HD
ATOM     14  H   UNL     1       1.918   1.178  17.181  0.00  0.00    +0.000 HD
ENDBRANCH   8  12
BRANCH   4  15
ATOM     15  O   UNL     1       7.312   5.986  16.094  0.00  0.00    +0.000 OA
ATOM     16  H   UNL     1       7.597   6.908  16.173  0.00  0.00    +0.000 HD
ENDBRANCH   4  15
TORSDOF 2
ENDMDL
MODEL 4
REMARK VINA RESULT:      -6.2      1.012      1.012
REMARK  Name = 
REMARK  3 active torsions:
REMARK  status: ('A' for Active; 'I' for Inactive)
REMARK    1  A    between atoms: C_1  and  C_2
REMARK    2  A    between atoms: C_4  and  O_5
REMARK    3  A    between atoms: C_9  and  N_10
REMARK                            x       y       z     vdW  Elec       q    Type
REMARK                         _______ _______ _______ _____ _____    ______ ____
ROOT
ATOM      1  C   UNL     1       3.260   7.376  17.771  0.00  0.00    +0.000 C 
ATOM      2  C   UNL     1       3.643   5.931  17.929  0.00  0.00    +0.000 A 
ATOM      3  C   UNL     1       4.505   5.349  16.995  0.00  0.00    +0.000 A 
ATOM      4  C   UNL     1       4.852   4.023  17.161  0.00  0.00    +0.000 A 
ATOM      5  N   UNL     1       4.425   3.251  18.169  0.00  0.00    +0.000 NA
ATOM      6  C   UNL     1       3.589   3.792  19.068  0.00  0.00    +0.000 A 
ATOM      7  C   UNL     1       3.122   2.988  20.103  0.00  0.00    +0.000 A 
ATOM      8  C   UNL     1       2.257   3.465  21.093  0.00  0.00    +0.000 A 
ATOM      9  C   UNL     1       1.785   4.767  20.986  0.00  0.00    +0.000 A 
ATOM     10  C   UNL     1       2.246   5.605  19.970  0.00  0.00    +0.000 A 
ATOM     11  C   UNL     1       3.153   5.136  18.997  0.00  0.00    +0.000 A 
ENDROOT
BRANCH   8  12
ATOM     12  N   UNL     1       1.695   2.584  22.025  0.00  0.00    +0.000 N 
ATOM     13  H   UNL     1       1.127   3.042  22.731  0.00  0.00    +0.000 HD
ATOM     14  H   UNL     1       1.228   1.783  21.611  0.00  0.00    +0.000 HD
ENDBRANCH   8  12
BRANCH   4  15
ATOM     15  O   UNL     1       5.673   3.395  16.270  0.00  0.00    +0.000 OA
ATOM     16  H   UNL     1       6.023   4.063  15.663  0.00  0.00    +0.000 HD
ENDBRANCH   4  15
TORSDOF 2
ENDMDL
MODEL 5
REMARK VINA RESULT:      -6.2      2.235      2.389
REMARK  Name = 
REMARK  3 active torsions:
REMARK  status: ('A' for Active; 'I' for Inactive)
REMARK    1  A    between atoms: C_1  and  C_2
REMARK    2  A    between atoms: C_4  and  O_5
REMARK    3  A    between atoms: C_9  and  N_10
REMARK                            x       y       z     vdW  Elec       q    Type
REMARK                         _______ _______ _______ _____ _____    ______ ____
ROOT
ATOM      1  C   UNL     1       5.204   6.594  16.098  0.00  0.00    +0.000 C 
ATOM      2  C   UNL     1       5.422   5.790  17.349  0.00  0.00    +0.000 A 
ATOM      3  C   UNL     1       6.509   6.096  18.173  0.00  0.00    +0.000 A 
ATOM      4  C   UNL     1       6.689   5.351  19.322  0.00  0.00    +0.000 A 
ATOM      5  N   UNL     1       5.881   4.355  19.711  0.00  0.00    +0.000 NA
ATOM      6  C   UNL     1       4.840   4.044  18.926  0.00  0.00    +0.000 A 
ATOM      7  C   UNL     1       4.012   2.995  19.311  0.00  0.00    +0.000 A 
ATOM      8  C   UNL     1       2.897   2.603  18.565  0.00  0.00    +0.000 A 
ATOM      9  C   UNL     1       2.659   3.237  17.351  0.00  0.00    +0.000 A 
ATOM     10  C   UNL     1       3.460   4.304  16.942  0.00  0.00    +0.000 A 
ATOM     11  C   UNL     1       4.559   4.726  17.719  0.00  0.00    +0.000 A 
ENDROOT
BRANCH   8  12
ATOM     12  N   UNL     1       2.183   1.449  18.910  0.00  0.00    +0.000 N 
ATOM     13  H   UNL     1       1.897   1.420  19.884  0.00  0.00    +0.000 HD
ATOM     14  H   UNL     1       1.424   1.224  18.276  0.00  0.00    +0.000 HD
ENDBRANCH   8  12
BRANCH   4  15
ATOM     15  O   UNL     1       7.743   5.588  20.155  0.00  0.00    +0.000 OA
ATOM     16  H   UNL     1       8.147   4.737  20.377  0.00  0.00    +0.000 HD
ENDBRANCH   4  15
TORSDOF 2
ENDMDL
MODEL 6
REMARK VINA RESULT:      -6.2      2.319      4.375
REMARK  Name = 
REMARK  3 active torsions:
REMARK  status: ('A' for Active; 'I' for Inactive)
REMARK    1  A    between atoms: C_1  and  C_2
REMARK    2  A    between atoms: C_4  and  O_5
REMARK    3  A    between atoms: C_9  and  N_10
REMARK                            x       y       z     vdW  Elec       q    Type
REMARK                         _______ _______ _______ _____ _____    ______ ____
ROOT
ATOM      1  C   UNL     1       1.666   4.399  17.779  0.00  0.00    +0.000 C 
ATOM      2  C   UNL     1       3.056   4.186  18.312  0.00  0.00    +0.000 A 
ATOM      3  C   UNL     1       3.295   3.115  19.178  0.00  0.00    +0.000 A 
ATOM      4  C   UNL     1       4.579   2.931  19.651  0.00  0.00    +0.000 A 
ATOM      5  N   UNL     1       5.622   3.707  19.328  0.00  0.00    +0.000 NA
ATOM      6  C   UNL     1       5.406   4.744  18.506  0.00  0.00    +0.000 A 
ATOM      7  C   UNL     1       6.480   5.569  18.186  0.00  0.00    +0.000 A 
ATOM      8  C   UNL     1       6.356   6.667  17.330  0.00  0.00    +0.000 A 
ATOM      9  C   UNL     1       5.092   6.991  16.850  0.00  0.00    +0.000 A 
ATOM     10  C   UNL     1       3.997   6.175  17.138  0.00  0.00    +0.000 A 
ATOM     11  C   UNL     1       4.133   5.041  17.966  0.00  0.00    +0.000 A 
ENDROOT
BRANCH   8  12
ATOM     12  N   UNL     1       7.425   7.554  17.158  0.00  0.00    +0.000 N 
ATOM     13  H   UNL     1       8.203   7.162  16.637  0.00  0.00    +0.000 HD
ATOM     14  H   UNL     1       7.154   8.471  16.818  0.00  0.00    +0.000 HD
ENDBRANCH   8  12
BRANCH   4  15
ATOM     15  O   UNL     1       4.871   1.916  20.516  0.00  0.00    +0.000 OA
ATOM     16  H   UNL     1       5.694   2.139  20.973  0.00  0.00    +0.000 HD
ENDBRANCH   4  15
TORSDOF 2
ENDMDL
MODEL 7
REMARK VINA RESULT:      -6.1      1.927      2.746
REMARK  Name = 
REMARK  3 active torsions:
REMARK  status: ('A' for Active; 'I' for Inactive)
REMARK    1  A    between atoms: C_1  and  C_2
REMARK    2  A    between atoms: C_4  and  O_5
REMARK    3  A    between atoms: C_9  and  N_10
REMARK                            x       y       z     vdW  Elec       q    Type
REMARK                         _______ _______ _______ _____ _____    ______ ____
ROOT
ATOM      1  C   UNL     1       6.256   4.038  15.477  0.00  0.00    +0.000 C 
ATOM      2  C   UNL     1       6.172   4.434  16.924  0.00  0.00    +0.000 A 
ATOM      3  C   UNL     1       7.343   4.790  17.601  0.00  0.00    +0.000 A 
ATOM      4  C   UNL     1       7.245   5.159  18.928  0.00  0.00    +0.000 A 
ATOM      5  N   UNL     1       6.096   5.209  19.615  0.00  0.00    +0.000 NA
ATOM      6  C   UNL     1       4.966   4.862  18.983  0.00  0.00    +0.000 A 
ATOM      7  C   UNL     1       3.773   4.888  19.697  0.00  0.00    +0.000 A 
ATOM      8  C   UNL     1       2.544   4.554  19.122  0.00  0.00    +0.000 A 
ATOM      9  C   UNL     1       2.531   4.098  17.809  0.00  0.00    +0.000 A 
ATOM     10  C   UNL     1       3.708   4.075  17.058  0.00  0.00    +0.000 A 
ATOM     11  C   UNL     1       4.941   4.456  17.628  0.00  0.00    +0.000 A 
ENDROOT
BRANCH   8  12
ATOM     12  N   UNL     1       1.396   4.449  19.916  0.00  0.00    +0.000 N 
ATOM     13  H   UNL     1       1.282   3.540  20.354  0.00  0.00    +0.000 HD
ATOM     14  H   UNL     1       1.272   5.213  20.572  0.00  0.00    +0.000 HD
ENDBRANCH   8  12
BRANCH   4  15
ATOM     15  O   UNL     1       8.354   5.496  19.647  0.00  0.00    +0.000 OA
ATOM     16  H   UNL     1       8.955   4.736  19.646  0.00  0.00    +0.000 HD
ENDBRANCH   4  15
TORSDOF 2
ENDMDL
MODEL 8
REMARK VINA RESULT:      -6.1      1.689      1.689
REMARK  Name = 
REMARK  3 active torsions:
REMARK  status: ('A' for Active; 'I' for Inactive)
REMARK    1  A    between atoms: C_1  and  C_2
REMARK    2  A    between atoms: C_4  and  O_5
REMARK    3  A    between atoms: C_9  and  N_10
REMARK                            x       y       z     vdW  Elec       q    Type
REMARK                         _______ _______ _______ _____ _____    ______ ____
ROOT
ATOM      1  C   UNL     1       3.730   7.467  17.387  0.00  0.00    +0.000 C 
ATOM      2  C   UNL     1       4.342   6.173  17.848  0.00  0.00    +0.000 A 
ATOM      3  C   UNL     1       5.727   6.102  18.026  0.00  0.00    +0.000 A 
ATOM      4  C   UNL     1       6.271   4.908  18.457  0.00  0.00    +0.000 A 
ATOM      5  N   UNL     1       5.558   3.808  18.729  0.00  0.00    +0.000 NA
ATOM      6  C   UNL     1       4.229   3.858  18.555  0.00  0.00    +0.000 A 
ATOM      7  C   UNL     1       3.485   2.711  18.813  0.00  0.00    +0.000 A 
ATOM      8  C   UNL     1       2.095   2.669  18.671  0.00  0.00    +0.000 A 
ATOM      9  C   UNL     1       1.447   3.794  18.173  0.00  0.00    +0.000 A 
ATOM     10  C   UNL     1       2.161   4.966  17.920  0.00  0.00    +0.000 A 
ATOM     11  C   UNL     1       3.558   5.020  18.107  0.00  0.00    +0.000 A 
ENDROOT
BRANCH   8  12
ATOM     12  N   UNL     1       1.407   1.456  18.794  0.00  0.00    +0.000 N 
ATOM     13  H   UNL     1       1.976   0.697  19.156  0.00  0.00    +0.000 HD
ATOM     14  H   UNL     1       0.513   1.530  19.270  0.00  0.00    +0.000 HD
ENDBRANCH   8  12
BRANCH   4  15
ATOM     15  O   UNL     1       7.618   4.771  18.627  0.00  0.00    +0.000 OA
ATOM     16  H   UNL     1       7.932   5.523  19.150  0.00  0.00    +0.000 HD
ENDBRANCH   4  15
TORSDOF 2
ENDMDL
MODEL 9
REMARK VINA RESULT:      -6.1      2.737      4.480
REMARK  Name = 
REMARK  3 active torsions:
REMARK  status: ('A' for Active; 'I' for Inactive)
REMARK    1  A    between atoms: C_1  and  C_2
REMARK    2  A    between atoms: C_4  and  O_5
REMARK    3  A    between atoms: C_9  and  N_10
REMARK                            x       y       z     vdW  Elec       q    Type
REMARK                         _______ _______ _______ _____ _____    ______ ____
ROOT
ATOM      1  C   UNL     1       1.744   5.687  20.835  0.00  0.00    +0.000 C 
ATOM      2  C   UNL     1       1.974   4.630  19.791  0.00  0.00    +0.000 A 
ATOM      3  C   UNL     1       0.982   3.673  19.562  0.00  0.00    +0.000 A 
ATOM      4  C   UNL     1       1.207   2.714  18.594  0.00  0.00    +0.000 A 
ATOM      5  N   UNL     1       2.316   2.644  17.845  0.00  0.00    +0.000 NA
ATOM      6  C   UNL     1       3.281   3.549  18.059  0.00  0.00    +0.000 A 
ATOM      7  C   UNL     1       4.445   3.467  17.302  0.00  0.00    +0.000 A 
ATOM      8  C   UNL     1       5.501   4.371  17.446  0.00  0.00    +0.000 A 
ATOM      9  C   UNL     1       5.414   5.337  18.442  0.00  0.00    +0.000 A 
ATOM     10  C   UNL     1       4.254   5.458  19.208  0.00  0.00    +0.000 A 
ATOM     11  C   UNL     1       3.170   4.572  19.031  0.00  0.00    +0.000 A 
ENDROOT
BRANCH   8  12
ATOM     12  N   UNL     1       6.710   4.160  16.772  0.00  0.00    +0.000 N 
ATOM     13  H   UNL     1       7.532   4.398  17.319  0.00  0.00    +0.000 HD
ATOM     14  H   UNL     1       6.789   3.248  16.334  0.00  0.00    +0.000 HD
ENDBRANCH   8  12
BRANCH   4  15
ATOM     15  O   UNL     1       0.285   1.741  18.340  0.00  0.00    +0.000 OA
ATOM     16  H   UNL     1       0.073   1.304  19.177  0.00  0.00    +0.000 HD
ENDBRANCH   4  15
TORSDOF 2
ENDMDL
