MODEL 1
REMARK VINA RESULT:      -7.8      0.000      0.000
REMARK  Name = 
REMARK  7 active torsions:
REMARK  status: ('A' for Active; 'I' for Inactive)
REMARK    1  A    between atoms: O_1  and  C_2
REMARK    2  A    between atoms: C_5  and  N_6
REMARK    3  A    between atoms: C_7  and  C_8
REMARK    4  A    between atoms: C_11  and  C_12
REMARK    5  A    between atoms: C_15  and  C_16
REMARK    6  A    between atoms: N_17  and  C_18
REMARK    7  A    between atoms: C_21  and  O_22
REMARK                            x       y       z     vdW  Elec       q    Type
REMARK                         _______ _______ _______ _____ _____    ______ ____
ROOT
ATOM      1  C   UNL     1      -1.490  12.671  22.831  0.00  0.00    +0.000 A 
ATOM      2  C   UNL     1      -1.401  11.357  23.283  0.00  0.00    +0.000 A 
ATOM      3  C   UNL     1      -0.689  10.415  22.540  0.00  0.00    +0.000 A 
ATOM      4  C   UNL     1      -0.064  10.754  21.324  0.00  0.00    +0.000 A 
ATOM      5  C   UNL     1      -0.166  12.090  20.895  0.00  0.00    +0.000 A 
ATOM      6  C   UNL     1      -0.869  13.045  21.641  0.00  0.00    +0.000 A 
ENDROOT
BRANCH   4   7
ATOM      7  C   UNL     1       0.653   9.730  20.530  0.00  0.00    +0.000 A 
ATOM      8  C   UNL     1       1.049   8.513  21.119  0.00  0.00    +0.000 A 
ATOM      9  C   UNL     1       1.750   7.544  20.401  0.00  0.00    +0.000 A 
ATOM     10  C   UNL     1       2.049   7.762  19.059  0.00  0.00    +0.000 A 
ATOM     11  C   UNL     1       1.661   8.950  18.440  0.00  0.00    +0.000 A 
ATOM     12  C   UNL     1       0.976   9.926  19.174  0.00  0.00    +0.000 A 
BRANCH  10  13
ATOM     13  C   UNL     1       2.780   6.743  18.282  0.00  0.00    +0.000 C 
ATOM     14  N   UNL     1       3.858   7.037  17.628  0.00  0.00    +0.000 NA
BRANCH  14  15
ATOM     15  C   UNL     1       4.514   6.047  16.880  0.00  0.00    +0.000 A 
ATOM     16  C   UNL     1       4.442   4.680  17.175  0.00  0.00    +0.000 A 
ATOM     17  C   UNL     1       5.081   3.736  16.366  0.00  0.00    +0.000 A 
ATOM     18  C   UNL     1       5.773   4.160  15.239  0.00  0.00    +0.000 A 
ATOM     19  C   UNL     1       5.838   5.508  14.912  0.00  0.00    +0.000 A 
ATOM     20  C   UNL     1       5.210   6.447  15.734  0.00  0.00    +0.000 A 
BRANCH  18  21
ATOM     21  O   UNL     1       6.395   3.271  14.416  0.00  0.00    +0.000 OA
ATOM     22  H   UNL     1       7.340   3.492  14.382  0.00  0.00    +0.000 HD
ENDBRANCH  18  21
ENDBRANCH  14  15
ENDBRANCH  10  13
ENDBRANCH   4   7
BRANCH   1  24
ATOM     23  N   UNL     1      -2.745  14.724  23.020  0.00  0.00    +0.000 NA
ATOM     24  C   UNL     1      -2.260  13.670  23.595  0.00  0.00    +0.000 C 
BRANCH  23  28
ATOM     25  C   UNL     1      -4.706  17.655  25.297  0.00  0.00    +0.000 A 
ATOM     26  C   UNL     1      -3.319  17.567  25.302  0.00  0.00    +0.000 A 
ATOM     27  C   UNL     1      -2.698  16.575  24.537  0.00  0.00    +0.000 A 
ATOM     28  C   UNL     1      -3.449  15.673  23.774  0.00  0.00    +0.000 A 
ATOM     29  C   UNL     1      -4.843  15.803  23.765  0.00  0.00    +0.000 A 
ATOM     30  C   UNL     1      -5.472  16.783  24.535  0.00  0.00    +0.000 A 
BRANCH  25  31
ATOM     31  O   UNL     1      -5.364  18.598  26.029  0.00  0.00    +0.000 OA
ATOM     32  H   UNL     1      -5.405  18.300  26.952  0.00  0.00    +0.000 HD
ENDBRANCH  25  31
ENDBRANCH  23  28
ENDBRANCH   1  24
TORSDOF 7
ENDMDL
MODEL 2
REMARK VINA RESULT:      -7.2      0.722      1.673
REMARK  Name = 
REMARK  7 active torsions:
REMARK  status: ('A' for Active; 'I' for Inactive)
REMARK    1  A    between atoms: O_1  and  C_2
REMARK    2  A    between atoms: C_5  and  N_6
REMARK    3  A    between atoms: C_7  and  C_8
REMARK    4  A    between atoms: C_11  and  C_12
REMARK    5  A    between atoms: C_15  and  C_16
REMARK    6  A    between atoms: N_17  and  C_18
REMARK    7  A    between atoms: C_21  and  O_22
REMARK                            x       y       z     vdW  Elec       q    Type
REMARK                         _______ _______ _______ _____ _____    ______ ____
ROOT
ATOM      1  C   UNL     1      -1.880  13.073  22.258  0.00  0.00    +0.000 A 
ATOM      2  C   UNL     1      -1.643  13.305  20.906  0.00  0.00    +0.000 A 
ATOM      3  C   UNL     1      -0.865  12.406  20.175  0.00  0.00    +0.000 A 
ATOM      4  C   UNL     1      -0.293  11.267  20.774  0.00  0.00    +0.000 A 
ATOM      5  C   UNL     1      -0.555  11.055  22.140  0.00  0.00    +0.000 A 
ATOM      6  C   UNL     1      -1.344  11.945  22.879  0.00  0.00    +0.000 A 
ENDROOT
BRANCH   4   7
ATOM      7  C   UNL     1       0.562  10.348  19.989  0.00  0.00    +0.000 A 
ATOM      8  C   UNL     1       0.979  10.690  18.688  0.00  0.00    +0.000 A 
ATOM      9  C   UNL     1       1.761   9.829  17.917  0.00  0.00    +0.000 A 
ATOM     10  C   UNL     1       2.169   8.608  18.447  0.00  0.00    +0.000 A 
ATOM     11  C   UNL     1       1.787   8.243  19.737  0.00  0.00    +0.000 A 
ATOM     12  C   UNL     1       0.984   9.103  20.496  0.00  0.00    +0.000 A 
BRANCH  10  13
ATOM     13  C   UNL     1       3.006   7.691  17.650  0.00  0.00    +0.000 C 
ATOM     14  N   UNL     1       3.249   6.483  18.045  0.00  0.00    +0.000 NA
BRANCH  14  15
ATOM     15  C   UNL     1       4.069   5.646  17.273  0.00  0.00    +0.000 A 
ATOM     16  C   UNL     1       4.103   4.253  17.412  0.00  0.00    +0.000 A 
ATOM     17  C   UNL     1       4.908   3.467  16.583  0.00  0.00    +0.000 A 
ATOM     18  C   UNL     1       5.664   4.077  15.590  0.00  0.00    +0.000 A 
ATOM     19  C   UNL     1       5.629   5.454  15.416  0.00  0.00    +0.000 A 
ATOM     20  C   UNL     1       4.833   6.234  16.259  0.00  0.00    +0.000 A 
BRANCH  18  21
ATOM     21  O   UNL     1       6.449   3.346  14.750  0.00  0.00    +0.000 OA
ATOM     22  H   UNL     1       6.233   2.407  14.865  0.00  0.00    +0.000 HD
ENDBRANCH  18  21
ENDBRANCH  14  15
ENDBRANCH  10  13
ENDBRANCH   4   7
BRANCH   1  24
ATOM     23  N   UNL     1      -2.337  15.272  23.139  0.00  0.00    +0.000 NA
ATOM     24  C   UNL     1      -2.680  14.027  23.048  0.00  0.00    +0.000 C 
BRANCH  23  28
ATOM     25  C   UNL     1      -4.748  17.797  25.470  0.00  0.00    +0.000 A 
ATOM     26  C   UNL     1      -5.307  16.739  24.765  0.00  0.00    +0.000 A 
ATOM     27  C   UNL     1      -4.478  15.920  23.993  0.00  0.00    +0.000 A 
ATOM     28  C   UNL     1      -3.099  16.154  23.919  0.00  0.00    +0.000 A 
ATOM     29  C   UNL     1      -2.557  17.209  24.662  0.00  0.00    +0.000 A 
ATOM     30  C   UNL     1      -3.382  18.038  25.426  0.00  0.00    +0.000 A 
BRANCH  25  31
ATOM     31  O   UNL     1      -5.512  18.630  26.233  0.00  0.00    +0.000 OA
ATOM     32  H   UNL     1      -6.248  18.957  25.691  0.00  0.00    +0.000 HD
ENDBRANCH  25  31
ENDBRANCH  23  28
ENDBRANCH   1  24
TORSDOF 7
ENDMDL
MODEL 3
REMARK VINA RESULT:      -7.2      0.491     13.384
REMARK  Name = 
REMARK  7 active torsions:
REMARK  status: ('A' for Active; 'I' for Inactive)
REMARK    1  A    between atoms: O_1  and  C_2
REMARK    2  A    between atoms: C_5  and  N_6
REMARK    3  A    between atoms: C_7  and  C_8
REMARK    4  A    between atoms: C_11  and  C_12
REMARK    5  A    between atoms: C_15  and  C_16
REMARK    6  A    between atoms: N_17  and  C_18
REMARK    7  A    between atoms: C_21  and  O_22
REMARK                            x       y       z     vdW  Elec       q    Type
REMARK                         _______ _______ _______ _____ _____    ______ ____
ROOT
ATOM      1  C   UNL     1       2.088   8.089  18.769  0.00  0.00    +0.000 A 
ATOM      2  C   UNL     1       1.804   9.311  18.166  0.00  0.00    +0.000 A 
ATOM      3  C   UNL     1       1.189  10.323  18.905  0.00  0.00    +0.000 A 
ATOM      4  C   UNL     1       0.829  10.136  20.254  0.00  0.00    +0.000 A 
ATOM      5  C   UNL     1       1.134   8.893  20.839  0.00  0.00    +0.000 A 
ATOM      6  C   UNL     1       1.762   7.877  20.108  0.00  0.00    +0.000 A 
ENDROOT
BRANCH   4   7
ATOM      7  C   UNL     1       0.141  11.209  21.009  0.00  0.00    +0.000 A 
ATOM      8  C   UNL     1      -0.480  10.933  22.242  0.00  0.00    +0.000 A 
ATOM      9  C   UNL     1      -1.159  11.919  22.959  0.00  0.00    +0.000 A 
ATOM     10  C   UNL     1      -1.208  13.220  22.466  0.00  0.00    +0.000 A 
ATOM     11  C   UNL     1      -0.592  13.532  21.254  0.00  0.00    +0.000 A 
ATOM     12  C   UNL     1       0.069  12.531  20.531  0.00  0.00    +0.000 A 
BRANCH  10  13
ATOM     13  C   UNL     1      -1.912  14.277  23.216  0.00  0.00    +0.000 C 
ATOM     14  N   UNL     1      -3.185  14.465  23.083  0.00  0.00    +0.000 NA
BRANCH  14  15
ATOM     15  C   UNL     1      -3.817  15.497  23.795  0.00  0.00    +0.000 A 
ATOM     16  C   UNL     1      -3.186  16.245  24.797  0.00  0.00    +0.000 A 
ATOM     17  C   UNL     1      -3.853  17.291  25.440  0.00  0.00    +0.000 A 
ATOM     18  C   UNL     1      -5.150  17.609  25.061  0.00  0.00    +0.000 A 
ATOM     19  C   UNL     1      -5.789  16.897  24.054  0.00  0.00    +0.000 A 
ATOM     20  C   UNL     1      -5.122  15.843  23.425  0.00  0.00    +0.000 A 
BRANCH  18  21
ATOM     21  O   UNL     1      -5.830  18.631  25.652  0.00  0.00    +0.000 OA
ATOM     22  H   UNL     1      -6.689  18.725  25.210  0.00  0.00    +0.000 HD
ENDBRANCH  18  21
ENDBRANCH  14  15
ENDBRANCH  10  13
ENDBRANCH   4   7
BRANCH   1  24
ATOM     23  N   UNL     1       3.961   7.067  17.642  0.00  0.00    +0.000 NA
ATOM     24  C   UNL     1       2.716   7.004  17.992  0.00  0.00    +0.000 C 
BRANCH  23  28
ATOM     25  C   UNL     1       5.753   4.097  15.276  0.00  0.00    +0.000 A 
ATOM     26  C   UNL     1       5.850   5.437  14.923  0.00  0.00    +0.000 A 
ATOM     27  C   UNL     1       5.237   6.401  15.729  0.00  0.00    +0.000 A 
ATOM     28  C   UNL     1       4.527   6.035  16.879  0.00  0.00    +0.000 A 
ATOM     29  C   UNL     1       4.468   4.681  17.228  0.00  0.00    +0.000 A 
ATOM     30  C   UNL     1       5.069   3.711  16.422  0.00  0.00    +0.000 A 
BRANCH  25  31
ATOM     31  O   UNL     1       6.326   3.116  14.523  0.00  0.00    +0.000 OA
ATOM     32  H   UNL     1       7.009   2.678  15.056  0.00  0.00    +0.000 HD
ENDBRANCH  25  31
ENDBRANCH  23  28
ENDBRANCH   1  24
TORSDOF 7
ENDMDL
MODEL 4
REMARK VINA RESULT:      -7.2      0.399      1.791
REMARK  Name = 
REMARK  7 active torsions:
REMARK  status: ('A' for Active; 'I' for Inactive)
REMARK    1  A    between atoms: O_1  and  C_2
REMARK    2  A    between atoms: C_5  and  N_6
REMARK    3  A    between atoms: C_7  and  C_8
REMARK    4  A    between atoms: C_11  and  C_12
REMARK    5  A    between atoms: C_15  and  C_16
REMARK    6  A    between atoms: N_17  and  C_18
REMARK    7  A    between atoms: C_21  and  O_22
REMARK                            x       y       z     vdW  Elec       q    Type
REMARK                         _______ _______ _______ _____ _____    ______ ____
ROOT
ATOM      1  C   UNL     1      -1.678  12.861  22.607  0.00  0.00    +0.000 A 
ATOM      2  C   UNL     1      -1.417  13.128  21.266  0.00  0.00    +0.000 A 
ATOM      3  C   UNL     1      -0.752  12.181  20.487  0.00  0.00    +0.000 A 
ATOM      4  C   UNL     1      -0.318  10.955  21.026  0.00  0.00    +0.000 A 
ATOM      5  C   UNL     1      -0.600  10.709  22.383  0.00  0.00    +0.000 A 
ATOM      6  C   UNL     1      -1.278  11.649  23.169  0.00  0.00    +0.000 A 
ENDROOT
BRANCH   4   7
ATOM      7  C   UNL     1       0.422   9.980  20.192  0.00  0.00    +0.000 A 
ATOM      8  C   UNL     1       0.562  10.183  18.805  0.00  0.00    +0.000 A 
ATOM      9  C   UNL     1       1.229   9.265  17.993  0.00  0.00    +0.000 A 
ATOM     10  C   UNL     1       1.799   8.129  18.560  0.00  0.00    +0.000 A 
ATOM     11  C   UNL     1       1.691   7.902  19.932  0.00  0.00    +0.000 A 
ATOM     12  C   UNL     1       1.001   8.818  20.737  0.00  0.00    +0.000 A 
BRANCH  10  13
ATOM     13  C   UNL     1       2.517   7.154  17.717  0.00  0.00    +0.000 C 
ATOM     14  N   UNL     1       3.810   7.083  17.720  0.00  0.00    +0.000 NA
BRANCH  14  15
ATOM     15  C   UNL     1       4.460   6.159  16.886  0.00  0.00    +0.000 A 
ATOM     16  C   UNL     1       5.233   6.528  15.778  0.00  0.00    +0.000 A 
ATOM     17  C   UNL     1       5.894   5.565  15.010  0.00  0.00    +0.000 A 
ATOM     18  C   UNL     1       5.804   4.227  15.370  0.00  0.00    +0.000 A 
ATOM     19  C   UNL     1       5.063   3.838  16.478  0.00  0.00    +0.000 A 
ATOM     20  C   UNL     1       4.393   4.805  17.232  0.00  0.00    +0.000 A 
BRANCH  18  21
ATOM     21  O   UNL     1       6.446   3.259  14.658  0.00  0.00    +0.000 OA
ATOM     22  H   UNL     1       6.018   2.407  14.841  0.00  0.00    +0.000 HD
ENDBRANCH  18  21
ENDBRANCH  14  15
ENDBRANCH  10  13
ENDBRANCH   4   7
BRANCH   1  24
ATOM     23  N   UNL     1      -2.872  14.932  22.928  0.00  0.00    +0.000 NA
ATOM     24  C   UNL     1      -2.358  13.864  23.447  0.00  0.00    +0.000 C 
BRANCH  23  28
ATOM     25  C   UNL     1      -4.868  17.694  25.381  0.00  0.00    +0.000 A 
ATOM     26  C   UNL     1      -5.584  16.795  24.599  0.00  0.00    +0.000 A 
ATOM     27  C   UNL     1      -4.889  15.893  23.789  0.00  0.00    +0.000 A 
ATOM     28  C   UNL     1      -3.490  15.885  23.752  0.00  0.00    +0.000 A 
ATOM     29  C   UNL     1      -2.792  16.781  24.571  0.00  0.00    +0.000 A 
ATOM     30  C   UNL     1      -3.480  17.693  25.374  0.00  0.00    +0.000 A 
BRANCH  25  31
ATOM     31  O   UNL     1      -5.495  18.599  26.184  0.00  0.00    +0.000 OA
ATOM     32  H   UNL     1      -5.013  18.651  27.025  0.00  0.00    +0.000 HD
ENDBRANCH  25  31
ENDBRANCH  23  28
ENDBRANCH   1  24
TORSDOF 7
ENDMDL
MODEL 5
REMARK VINA RESULT:      -6.9      1.271      2.224
REMARK  Name = 
REMARK  7 active torsions:
REMARK  status: ('A' for Active; 'I' for Inactive)
REMARK    1  A    between atoms: O_1  and  C_2
REMARK    2  A    between atoms: C_5  and  N_6
REMARK    3  A    between atoms: C_7  and  C_8
REMARK    4  A    between atoms: C_11  and  C_12
REMARK    5  A    between atoms: C_15  and  C_16
REMARK    6  A    between atoms: N_17  and  C_18
REMARK    7  A    between atoms: C_21  and  O_22
REMARK                            x       y       z     vdW  Elec       q    Type
REMARK                         _______ _______ _______ _____ _____    ______ ____
ROOT
ATOM      1  C   UNL     1      -2.629  12.941  22.243  0.00  0.00    +0.000 A 
ATOM      2  C   UNL     1      -2.447  12.854  20.865  0.00  0.00    +0.000 A 
ATOM      3  C   UNL     1      -1.587  11.890  20.338  0.00  0.00    +0.000 A 
ATOM      4  C   UNL     1      -0.877  11.002  21.169  0.00  0.00    +0.000 A 
ATOM      5  C   UNL     1      -1.085  11.108  22.556  0.00  0.00    +0.000 A 
ATOM      6  C   UNL     1      -1.955  12.065  23.093  0.00  0.00    +0.000 A 
ENDROOT
BRANCH   4   7
ATOM      7  C   UNL     1       0.061  10.013  20.591  0.00  0.00    +0.000 A 
ATOM      8  C   UNL     1       0.541  10.161  19.276  0.00  0.00    +0.000 A 
ATOM      9  C   UNL     1       1.403   9.228  18.699  0.00  0.00    +0.000 A 
ATOM     10  C   UNL     1       1.829   8.130  19.443  0.00  0.00    +0.000 A 
ATOM     11  C   UNL     1       1.385   7.959  20.753  0.00  0.00    +0.000 A 
ATOM     12  C   UNL     1       0.503   8.889  21.317  0.00  0.00    +0.000 A 
BRANCH  10  13
ATOM     13  C   UNL     1       2.749   7.140  18.852  0.00  0.00    +0.000 C 
ATOM     14  N   UNL     1       3.192   7.267  17.642  0.00  0.00    +0.000 NA
BRANCH  14  15
ATOM     15  C   UNL     1       4.047   6.292  17.105  0.00  0.00    +0.000 A 
ATOM     16  C   UNL     1       5.230   6.594  16.419  0.00  0.00    +0.000 A 
ATOM     17  C   UNL     1       6.064   5.578  15.945  0.00  0.00    +0.000 A 
ATOM     18  C   UNL     1       5.728   4.252  16.182  0.00  0.00    +0.000 A 
ATOM     19  C   UNL     1       4.572   3.927  16.881  0.00  0.00    +0.000 A 
ATOM     20  C   UNL     1       3.735   4.948  17.339  0.00  0.00    +0.000 A 
BRANCH  18  21
ATOM     21  O   UNL     1       6.522   3.232  15.751  0.00  0.00    +0.000 OA
ATOM     22  H   UNL     1       7.063   2.926  16.497  0.00  0.00    +0.000 HD
ENDBRANCH  18  21
ENDBRANCH  14  15
ENDBRANCH  10  13
ENDBRANCH   4   7
BRANCH   1  24
ATOM     23  N   UNL     1      -4.153  14.801  22.050  0.00  0.00    +0.000 NA
ATOM     24  C   UNL     1      -3.517  13.971  22.813  0.00  0.00    +0.000 C 
BRANCH  23  28
ATOM     25  C   UNL     1      -6.734  17.687  23.674  0.00  0.00    +0.000 A 
ATOM     26  C   UNL     1      -7.145  16.886  22.616  0.00  0.00    +0.000 A 
ATOM     27  C   UNL     1      -6.260  15.939  22.094  0.00  0.00    +0.000 A 
ATOM     28  C   UNL     1      -4.970  15.790  22.619  0.00  0.00    +0.000 A 
ATOM     29  C   UNL     1      -4.591  16.589  23.703  0.00  0.00    +0.000 A 
ATOM     30  C   UNL     1      -5.466  17.546  24.222  0.00  0.00    +0.000 A 
BRANCH  25  31
ATOM     31  O   UNL     1      -7.554  18.631  24.217  0.00  0.00    +0.000 OA
ATOM     32  H   UNL     1      -8.326  18.185  24.600  0.00  0.00    +0.000 HD
ENDBRANCH  25  31
ENDBRANCH  23  28
ENDBRANCH   1  24
TORSDOF 7
ENDMDL
MODEL 6
REMARK VINA RESULT:      -6.9      0.727      1.318
REMARK  Name = 
REMARK  7 active torsions:
REMARK  status: ('A' for Active; 'I' for Inactive)
REMARK    1  A    between atoms: O_1  and  C_2
REMARK    2  A    between atoms: C_5  and  N_6
REMARK    3  A    between atoms: C_7  and  C_8
REMARK    4  A    between atoms: C_11  and  C_12
REMARK    5  A    between atoms: C_15  and  C_16
REMARK    6  A    between atoms: N_17  and  C_18
REMARK    7  A    between atoms: C_21  and  O_22
REMARK                            x       y       z     vdW  Elec       q    Type
REMARK                         _______ _______ _______ _____ _____    ______ ____
ROOT
ATOM      1  C   UNL     1      -1.979  12.623  22.340  0.00  0.00    +0.000 A 
ATOM      2  C   UNL     1      -1.983  12.615  20.948  0.00  0.00    +0.000 A 
ATOM      3  C   UNL     1      -1.236  11.661  20.258  0.00  0.00    +0.000 A 
ATOM      4  C   UNL     1      -0.456  10.704  20.934  0.00  0.00    +0.000 A 
ATOM      5  C   UNL     1      -0.475  10.731  22.341  0.00  0.00    +0.000 A 
ATOM      6  C   UNL     1      -1.232  11.678  23.042  0.00  0.00    +0.000 A 
ENDROOT
BRANCH   4   7
ATOM      7  C   UNL     1       0.362   9.725  20.182  0.00  0.00    +0.000 A 
ATOM      8  C   UNL     1       0.962   8.634  20.841  0.00  0.00    +0.000 A 
ATOM      9  C   UNL     1       1.761   7.714  20.160  0.00  0.00    +0.000 A 
ATOM     10  C   UNL     1       1.954   7.851  18.788  0.00  0.00    +0.000 A 
ATOM     11  C   UNL     1       1.364   8.911  18.101  0.00  0.00    +0.000 A 
ATOM     12  C   UNL     1       0.582   9.842  18.796  0.00  0.00    +0.000 A 
BRANCH  10  13
ATOM     13  C   UNL     1       2.786   6.881  18.051  0.00  0.00    +0.000 C 
ATOM     14  N   UNL     1       4.000   7.161  17.701  0.00  0.00    +0.000 NA
BRANCH  14  15
ATOM     15  C   UNL     1       4.754   6.222  16.979  0.00  0.00    +0.000 A 
ATOM     16  C   UNL     1       5.189   5.003  17.515  0.00  0.00    +0.000 A 
ATOM     17  C   UNL     1       5.899   4.088  16.732  0.00  0.00    +0.000 A 
ATOM     18  C   UNL     1       6.151   4.381  15.399  0.00  0.00    +0.000 A 
ATOM     19  C   UNL     1       5.708   5.573  14.839  0.00  0.00    +0.000 A 
ATOM     20  C   UNL     1       5.013   6.490  15.631  0.00  0.00    +0.000 A 
BRANCH  18  21
ATOM     21  O   UNL     1       6.825   3.510  14.598  0.00  0.00    +0.000 OA
ATOM     22  H   UNL     1       6.180   3.034  14.048  0.00  0.00    +0.000 HD
ENDBRANCH  18  21
ENDBRANCH  14  15
ENDBRANCH  10  13
ENDBRANCH   4   7
BRANCH   1  24
ATOM     23  N   UNL     1      -3.052  14.775  22.536  0.00  0.00    +0.000 NA
ATOM     24  C   UNL     1      -2.746  13.642  23.081  0.00  0.00    +0.000 C 
BRANCH  23  28
ATOM     25  C   UNL     1      -5.294  17.646  24.623  0.00  0.00    +0.000 A 
ATOM     26  C   UNL     1      -5.633  17.292  23.323  0.00  0.00    +0.000 A 
ATOM     27  C   UNL     1      -4.862  16.338  22.654  0.00  0.00    +0.000 A 
ATOM     28  C   UNL     1      -3.758  15.739  23.271  0.00  0.00    +0.000 A 
ATOM     29  C   UNL     1      -3.455  16.091  24.592  0.00  0.00    +0.000 A 
ATOM     30  C   UNL     1      -4.214  17.052  25.263  0.00  0.00    +0.000 A 
BRANCH  25  31
ATOM     31  O   UNL     1      -6.008  18.575  25.320  0.00  0.00    +0.000 OA
ATOM     32  H   UNL     1      -6.939  18.512  25.054  0.00  0.00    +0.000 HD
ENDBRANCH  25  31
ENDBRANCH  23  28
ENDBRANCH   1  24
TORSDOF 7
ENDMDL
MODEL 7
REMARK VINA RESULT:      -6.8      1.421     13.348
REMARK  Name = 
REMARK  7 active torsions:
REMARK  status: ('A' for Active; 'I' for Inactive)
REMARK    1  A    between atoms: O_1  and  C_2
REMARK    2  A    between atoms: C_5  and  N_6
REMARK    3  A    between atoms: C_7  and  C_8
REMARK    4  A    between atoms: C_11  and  C_12
REMARK    5  A    between atoms: C_15  and  C_16
REMARK    6  A    between atoms: N_17  and  C_18
REMARK    7  A    between atoms: C_21  and  O_22
REMARK                            x       y       z     vdW  Elec       q    Type
REMARK                         _______ _______ _______ _____ _____    ______ ____
ROOT
ATOM      1  C   UNL     1       1.790   8.277  19.192  0.00  0.00    +0.000 A 
ATOM      2  C   UNL     1       1.390   9.348  18.398  0.00  0.00    +0.000 A 
ATOM      3  C   UNL     1       0.561  10.335  18.932  0.00  0.00    +0.000 A 
ATOM      4  C   UNL     1       0.099  10.271  20.261  0.00  0.00    +0.000 A 
ATOM      5  C   UNL     1       0.525   9.181  21.042  0.00  0.00    +0.000 A 
ATOM      6  C   UNL     1       1.367   8.192  20.517  0.00  0.00    +0.000 A 
ENDROOT
BRANCH   4   7
ATOM      7  C   UNL     1      -0.813  11.308  20.796  0.00  0.00    +0.000 A 
ATOM      8  C   UNL     1      -0.630  11.824  22.094  0.00  0.00    +0.000 A 
ATOM      9  C   UNL     1      -1.492  12.780  22.633  0.00  0.00    +0.000 A 
ATOM     10  C   UNL     1      -2.548  13.266  21.866  0.00  0.00    +0.000 A 
ATOM     11  C   UNL     1      -2.751  12.788  20.572  0.00  0.00    +0.000 A 
ATOM     12  C   UNL     1      -1.894  11.812  20.047  0.00  0.00    +0.000 A 
BRANCH  10  13
ATOM     13  C   UNL     1      -3.463  14.285  22.415  0.00  0.00    +0.000 C 
ATOM     14  N   UNL     1      -4.520  14.661  21.771  0.00  0.00    +0.000 NA
BRANCH  14  15
ATOM     15  C   UNL     1      -5.353  15.652  22.313  0.00  0.00    +0.000 A 
ATOM     16  C   UNL     1      -6.710  15.784  21.990  0.00  0.00    +0.000 A 
ATOM     17  C   UNL     1      -7.501  16.763  22.596  0.00  0.00    +0.000 A 
ATOM     18  C   UNL     1      -6.939  17.597  23.554  0.00  0.00    +0.000 A 
ATOM     19  C   UNL     1      -5.603  17.470  23.909  0.00  0.00    +0.000 A 
ATOM     20  C   UNL     1      -4.814  16.499  23.288  0.00  0.00    +0.000 A 
BRANCH  18  21
ATOM     21  O   UNL     1      -7.680  18.554  24.181  0.00  0.00    +0.000 OA
ATOM     22  H   UNL     1      -8.615  18.412  23.962  0.00  0.00    +0.000 HD
ENDBRANCH  18  21
ENDBRANCH  14  15
ENDBRANCH  10  13
ENDBRANCH   4   7
BRANCH   1  24
ATOM     23  N   UNL     1       3.485   7.467  17.678  0.00  0.00    +0.000 NA
ATOM     24  C   UNL     1       2.647   7.215  18.632  0.00  0.00    +0.000 C 
BRANCH  23  28
ATOM     25  C   UNL     1       5.738   4.261  16.170  0.00  0.00    +0.000 A 
ATOM     26  C   UNL     1       4.951   4.100  17.304  0.00  0.00    +0.000 A 
ATOM     27  C   UNL     1       4.217   5.189  17.783  0.00  0.00    +0.000 A 
ATOM     28  C   UNL     1       4.269   6.433  17.143  0.00  0.00    +0.000 A 
ATOM     29  C   UNL     1       5.047   6.560  15.986  0.00  0.00    +0.000 A 
ATOM     30  C   UNL     1       5.791   5.480  15.507  0.00  0.00    +0.000 A 
BRANCH  25  31
ATOM     31  O   UNL     1       6.478   3.234  15.663  0.00  0.00    +0.000 OA
ATOM     32  H   UNL     1       5.883   2.629  15.192  0.00  0.00    +0.000 HD
ENDBRANCH  25  31
ENDBRANCH  23  28
ENDBRANCH   1  24
TORSDOF 7
ENDMDL
MODEL 8
REMARK VINA RESULT:      -6.8      2.202     13.842
REMARK  Name = 
REMARK  7 active torsions:
REMARK  status: ('A' for Active; 'I' for Inactive)
REMARK    1  A    between atoms: O_1  and  C_2
REMARK    2  A    between atoms: C_5  and  N_6
REMARK    3  A    between atoms: C_7  and  C_8
REMARK    4  A    between atoms: C_11  and  C_12
REMARK    5  A    between atoms: C_15  and  C_16
REMARK    6  A    between atoms: N_17  and  C_18
REMARK    7  A    between atoms: C_21  and  O_22
REMARK                            x       y       z     vdW  Elec       q    Type
REMARK                         _______ _______ _______ _____ _____    ______ ____
ROOT
ATOM      1  C   UNL     1       4.206   5.604  16.699  0.00  0.00    +0.000 A 
ATOM      2  C   UNL     1       4.368   6.986  16.733  0.00  0.00    +0.000 A 
ATOM      3  C   UNL     1       3.628   7.749  17.637  0.00  0.00    +0.000 A 
ATOM      4  C   UNL     1       2.700   7.157  18.515  0.00  0.00    +0.000 A 
ATOM      5  C   UNL     1       2.562   5.757  18.463  0.00  0.00    +0.000 A 
ATOM      6  C   UNL     1       3.310   4.983  17.567  0.00  0.00    +0.000 A 
ENDROOT
BRANCH   4   7
ATOM      7  C   UNL     1       1.895   7.988  19.439  0.00  0.00    +0.000 A 
ATOM      8  C   UNL     1       1.311   9.192  18.998  0.00  0.00    +0.000 A 
ATOM      9  C   UNL     1       0.573  10.008  19.856  0.00  0.00    +0.000 A 
ATOM     10  C   UNL     1       0.377   9.619  21.179  0.00  0.00    +0.000 A 
ATOM     11  C   UNL     1       0.929   8.427  21.646  0.00  0.00    +0.000 A 
ATOM     12  C   UNL     1       1.687   7.625  20.784  0.00  0.00    +0.000 A 
BRANCH  10  13
ATOM     13  C   UNL     1      -0.410  10.464  22.096  0.00  0.00    +0.000 C 
ATOM     14  N   UNL     1      -0.639  11.711  21.837  0.00  0.00    +0.000 NA
BRANCH  14  15
ATOM     15  C   UNL     1      -1.372  12.491  22.745  0.00  0.00    +0.000 A 
ATOM     16  C   UNL     1      -0.973  13.766  23.168  0.00  0.00    +0.000 A 
ATOM     17  C   UNL     1      -1.767  14.514  24.041  0.00  0.00    +0.000 A 
ATOM     18  C   UNL     1      -2.981  13.996  24.473  0.00  0.00    +0.000 A 
ATOM     19  C   UNL     1      -3.409  12.744  24.049  0.00  0.00    +0.000 A 
ATOM     20  C   UNL     1      -2.603  11.996  23.188  0.00  0.00    +0.000 A 
BRANCH  18  21
ATOM     21  O   UNL     1      -3.793  14.699  25.311  0.00  0.00    +0.000 OA
ATOM     22  H   UNL     1      -4.341  14.071  25.808  0.00  0.00    +0.000 HD
ENDBRANCH  18  21
ENDBRANCH  14  15
ENDBRANCH  10  13
ENDBRANCH   4   7
BRANCH   1  24
ATOM     23  N   UNL     1       5.069   5.148  14.492  0.00  0.00    +0.000 NA
ATOM     24  C   UNL     1       4.966   4.789  15.732  0.00  0.00    +0.000 C 
BRANCH  23  28
ATOM     25  C   UNL     1       7.024   2.686  11.710  0.00  0.00    +0.000 A 
ATOM     26  C   UNL     1       5.665   2.536  11.955  0.00  0.00    +0.000 A 
ATOM     27  C   UNL     1       5.045   3.368  12.891  0.00  0.00    +0.000 A 
ATOM     28  C   UNL     1       5.773   4.342  13.586  0.00  0.00    +0.000 A 
ATOM     29  C   UNL     1       7.135   4.491  13.299  0.00  0.00    +0.000 A 
ATOM     30  C   UNL     1       7.763   3.657  12.373  0.00  0.00    +0.000 A 
BRANCH  25  31
ATOM     31  O   UNL     1       7.680   1.897  10.812  0.00  0.00    +0.000 OA
ATOM     32  H   UNL     1       8.635   1.995  10.955  0.00  0.00    +0.000 HD
ENDBRANCH  25  31
ENDBRANCH  23  28
ENDBRANCH   1  24
TORSDOF 7
ENDMDL
MODEL 9
REMARK VINA RESULT:      -6.7      0.667     13.309
REMARK  Name = 
REMARK  7 active torsions:
REMARK  status: ('A' for Active; 'I' for Inactive)
REMARK    1  A    between atoms: O_1  and  C_2
REMARK    2  A    between atoms: C_5  and  N_6
REMARK    3  A    between atoms: C_7  and  C_8
REMARK    4  A    between atoms: C_11  and  C_12
REMARK    5  A    between atoms: C_15  and  C_16
REMARK    6  A    between atoms: N_17  and  C_18
REMARK    7  A    between atoms: C_21  and  O_22
REMARK                            x       y       z     vdW  Elec       q    Type
REMARK                         _______ _______ _______ _____ _____    ______ ____
ROOT
ATOM      1  C   UNL     1       1.881   7.923  19.203  0.00  0.00    +0.000 A 
ATOM      2  C   UNL     1       1.661   7.854  20.576  0.00  0.00    +0.000 A 
ATOM      3  C   UNL     1       0.859   8.812  21.198  0.00  0.00    +0.000 A 
ATOM      4  C   UNL     1       0.274   9.868  20.473  0.00  0.00    +0.000 A 
ATOM      5  C   UNL     1       0.509   9.909  19.086  0.00  0.00    +0.000 A 
ATOM      6  C   UNL     1       1.302   8.944  18.451  0.00  0.00    +0.000 A 
ENDROOT
BRANCH   4   7
ATOM      7  C   UNL     1      -0.540  10.897  21.159  0.00  0.00    +0.000 A 
ATOM      8  C   UNL     1      -0.650  10.907  22.563  0.00  0.00    +0.000 A 
ATOM      9  C   UNL     1      -1.434  11.848  23.232  0.00  0.00    +0.000 A 
ATOM     10  C   UNL     1      -2.108  12.826  22.505  0.00  0.00    +0.000 A 
ATOM     11  C   UNL     1      -2.011  12.854  21.114  0.00  0.00    +0.000 A 
ATOM     12  C   UNL     1      -1.240  11.892  20.450  0.00  0.00    +0.000 A 
BRANCH  10  13
ATOM     13  C   UNL     1      -2.932  13.835  23.197  0.00  0.00    +0.000 C 
ATOM     14  N   UNL     1      -3.265  14.945  22.620  0.00  0.00    +0.000 NA
BRANCH  14  15
ATOM     15  C   UNL     1      -4.029  15.893  23.318  0.00  0.00    +0.000 A 
ATOM     16  C   UNL     1      -5.322  16.277  22.938  0.00  0.00    +0.000 A 
ATOM     17  C   UNL     1      -6.052  17.194  23.699  0.00  0.00    +0.000 A 
ATOM     18  C   UNL     1      -5.497  17.710  24.862  0.00  0.00    +0.000 A 
ATOM     19  C   UNL     1      -4.227  17.327  25.273  0.00  0.00    +0.000 A 
ATOM     20  C   UNL     1      -3.497  16.421  24.500  0.00  0.00    +0.000 A 
BRANCH  18  21
ATOM     21  O   UNL     1      -6.181  18.594  25.641  0.00  0.00    +0.000 OA
ATOM     22  H   UNL     1      -5.565  19.281  25.942  0.00  0.00    +0.000 HD
ENDBRANCH  18  21
ENDBRANCH  14  15
ENDBRANCH  10  13
ENDBRANCH   4   7
BRANCH   1  24
ATOM     23  N   UNL     1       3.345   7.206  17.424  0.00  0.00    +0.000 NA
ATOM     24  C   UNL     1       2.745   6.930  18.537  0.00  0.00    +0.000 C 
BRANCH  23  28
ATOM     25  C   UNL     1       5.824   4.426  15.487  0.00  0.00    +0.000 A 
ATOM     26  C   UNL     1       5.884   5.775  15.160  0.00  0.00    +0.000 A 
ATOM     27  C   UNL     1       5.041   6.674  15.820  0.00  0.00    +0.000 A 
ATOM     28  C   UNL     1       4.139   6.234  16.796  0.00  0.00    +0.000 A 
ATOM     29  C   UNL     1       4.119   4.874  17.127  0.00  0.00    +0.000 A 
ATOM     30  C   UNL     1       4.950   3.969  16.464  0.00  0.00    +0.000 A 
BRANCH  25  31
ATOM     31  O   UNL     1       6.619   3.505  14.871  0.00  0.00    +0.000 OA
ATOM     32  H   UNL     1       6.339   3.426  13.945  0.00  0.00    +0.000 HD
ENDBRANCH  25  31
ENDBRANCH  23  28
ENDBRANCH   1  24
TORSDOF 7
ENDMDL
