MODEL 1
REMARK VINA RESULT:      -7.6      0.000      0.000
REMARK  Name = 
REMARK  10 active torsions:
REMARK  status: ('A' for Active; 'I' for Inactive)
REMARK    1  A    between atoms: C_1  and  O_2
REMARK    2  A    between atoms: O_2  and  C_3
REMARK    3  A    between atoms: C_5  and  C_6
REMARK    4  A    between atoms: N_8  and  C_9
REMARK    5  A    between atoms: N_12  and  C_13
REMARK    6  A    between atoms: C_13  and  C_14
REMARK    7  A    between atoms: C_27  and  O_28
REMARK    8  A    between atoms: O_28  and  C_29
REMARK    9  A    between atoms: C_30  and  O_31
REMARK   10  A    between atoms: O_31  and  C_32
REMARK                            x       y       z     vdW  Elec       q    Type
REMARK                         _______ _______ _______ _____ _____    ______ ____
ROOT
ATOM      1  C   UNL     1       0.814  10.237  18.446  0.00  0.00    +0.000 C 
ATOM      2  C   UNL     1       1.445  11.380  19.241  0.00  0.00    +0.000 C 
ATOM      3  C   UNL     1       1.058  11.332  20.721  0.00  0.00    +0.000 C 
ATOM      4  N   UNL     1      -0.398  11.297  20.934  0.00  0.00    +0.000 NA
ATOM      5  C   UNL     1      -1.030  10.196  20.182  0.00  0.00    +0.000 C 
ATOM      6  C   UNL     1      -0.693  10.225  18.688  0.00  0.00    +0.000 C 
ENDROOT
BRANCH   1   9
ATOM      7  C   UNL     1       2.363   8.338  17.973  0.00  0.00    +0.000 C 
ATOM      8  O   UNL     1       2.778   8.810  16.922  0.00  0.00    +0.000 OA
ATOM      9  N   UNL     1       1.429   8.952  18.778  0.00  0.00    +0.000 N 
ATOM     10  H   UNL     1       1.165   8.509  19.646  0.00  0.00    +0.000 HD
BRANCH   7  13
ATOM     11  C   UNL     1       2.727   5.218  20.067  0.00  0.00    +0.000 A 
ATOM     12  C   UNL     1       2.334   6.492  19.621  0.00  0.00    +0.000 A 
ATOM     13  C   UNL     1       2.937   7.072  18.507  0.00  0.00    +0.000 A 
ATOM     14  C   UNL     1       4.014   6.425  17.906  0.00  0.00    +0.000 A 
ATOM     15  C   UNL     1       4.480   5.187  18.387  0.00  0.00    +0.000 A 
ATOM     16  C   UNL     1       3.836   4.568  19.482  0.00  0.00    +0.000 A 
BRANCH  11  18
ATOM     17  C   UNL     1       0.984   3.741  20.695  0.00  0.00    +0.000 C 
ATOM     18  O   UNL     1       2.040   4.619  21.093  0.00  0.00    +0.000 OA
ENDBRANCH  11  18
BRANCH  15  19
ATOM     19  O   UNL     1       5.545   4.742  17.647  0.00  0.00    +0.000 OA
ATOM     20  C   UNL     1       5.331   4.253  16.330  0.00  0.00    +0.000 C 
ENDBRANCH  15  19
BRANCH  16  21
ATOM     21  O   UNL     1       4.367   3.372  19.884  0.00  0.00    +0.000 OA
ATOM     22  C   UNL     1       3.932   2.143  19.325  0.00  0.00    +0.000 C 
ENDBRANCH  16  21
ENDBRANCH   7  13
ENDBRANCH   1   9
BRANCH   4  23
ATOM     23  C   UNL     1      -0.664  11.195  22.391  0.00  0.00    +0.000 C 
BRANCH  23  24
ATOM     24  C   UNL     1      -1.541  12.296  22.948  0.00  0.00    +0.000 A 
ATOM     25  C   UNL     1      -0.999  13.541  23.284  0.00  0.00    +0.000 A 
ATOM     26  C   UNL     1      -1.833  14.598  23.652  0.00  0.00    +0.000 A 
ATOM     27  C   UNL     1      -3.226  14.433  23.687  0.00  0.00    +0.000 A 
ATOM     28  C   UNL     1      -4.087  15.518  23.923  0.00  0.00    +0.000 A 
ATOM     29  C   UNL     1      -5.471  15.341  23.932  0.00  0.00    +0.000 A 
ATOM     30  C   UNL     1      -6.012  14.071  23.756  0.00  0.00    +0.000 A 
ATOM     31  C   UNL     1      -5.170  12.982  23.525  0.00  0.00    +0.000 A 
ATOM     32  C   UNL     1      -3.778  13.156  23.447  0.00  0.00    +0.000 A 
ATOM     33  C   UNL     1      -2.925  12.098  23.090  0.00  0.00    +0.000 A 
ENDBRANCH  23  24
ENDBRANCH   4  23
TORSDOF 7
ENDMDL
MODEL 2
REMARK VINA RESULT:      -7.5      0.816      1.703
REMARK  Name = 
REMARK  10 active torsions:
REMARK  status: ('A' for Active; 'I' for Inactive)
REMARK    1  A    between atoms: C_1  and  O_2
REMARK    2  A    between atoms: O_2  and  C_3
REMARK    3  A    between atoms: C_5  and  C_6
REMARK    4  A    between atoms: N_8  and  C_9
REMARK    5  A    between atoms: N_12  and  C_13
REMARK    6  A    between atoms: C_13  and  C_14
REMARK    7  A    between atoms: C_27  and  O_28
REMARK    8  A    between atoms: O_28  and  C_29
REMARK    9  A    between atoms: C_30  and  O_31
REMARK   10  A    between atoms: O_31  and  C_32
REMARK                            x       y       z     vdW  Elec       q    Type
REMARK                         _______ _______ _______ _____ _____    ______ ____
ROOT
ATOM      1  C   UNL     1       0.921  10.128  18.424  0.00  0.00    +0.000 C 
ATOM      2  C   UNL     1       1.492  11.293  19.233  0.00  0.00    +0.000 C 
ATOM      3  C   UNL     1       1.076  11.231  20.704  0.00  0.00    +0.000 C 
ATOM      4  N   UNL     1      -0.381  11.142  20.886  0.00  0.00    +0.000 NA
ATOM      5  C   UNL     1      -0.957  10.018  20.122  0.00  0.00    +0.000 C 
ATOM      6  C   UNL     1      -0.589  10.060  18.635  0.00  0.00    +0.000 C 
ENDROOT
BRANCH   1   9
ATOM      7  C   UNL     1       2.490   8.246  17.946  0.00  0.00    +0.000 C 
ATOM      8  O   UNL     1       2.852   8.693  16.865  0.00  0.00    +0.000 OA
ATOM      9  N   UNL     1       1.576   8.867  18.770  0.00  0.00    +0.000 N 
ATOM     10  H   UNL     1       1.358   8.446  19.662  0.00  0.00    +0.000 HD
BRANCH   7  13
ATOM     11  C   UNL     1       2.926   5.111  20.002  0.00  0.00    +0.000 A 
ATOM     12  C   UNL     1       2.478   6.366  19.554  0.00  0.00    +0.000 A 
ATOM     13  C   UNL     1       3.112   7.010  18.495  0.00  0.00    +0.000 A 
ATOM     14  C   UNL     1       4.268   6.450  17.957  0.00  0.00    +0.000 A 
ATOM     15  C   UNL     1       4.785   5.236  18.445  0.00  0.00    +0.000 A 
ATOM     16  C   UNL     1       4.113   4.549  19.483  0.00  0.00    +0.000 A 
BRANCH  11  18
ATOM     17  C   UNL     1       0.985   3.858  20.532  0.00  0.00    +0.000 C 
ATOM     18  O   UNL     1       2.214   4.443  20.968  0.00  0.00    +0.000 OA
ENDBRANCH  11  18
BRANCH  15  19
ATOM     19  O   UNL     1       5.925   4.880  17.771  0.00  0.00    +0.000 OA
ATOM     20  C   UNL     1       5.824   4.290  16.483  0.00  0.00    +0.000 C 
ENDBRANCH  15  19
BRANCH  16  21
ATOM     21  O   UNL     1       4.696   3.383  19.897  0.00  0.00    +0.000 OA
ATOM     22  C   UNL     1       4.169   2.119  19.530  0.00  0.00    +0.000 C 
ENDBRANCH  16  21
ENDBRANCH   7  13
ENDBRANCH   1   9
BRANCH   4  23
ATOM     23  C   UNL     1      -0.674  11.029  22.337  0.00  0.00    +0.000 C 
BRANCH  23  24
ATOM     24  C   UNL     1      -1.456  12.191  22.912  0.00  0.00    +0.000 A 
ATOM     25  C   UNL     1      -2.766  12.014  23.370  0.00  0.00    +0.000 A 
ATOM     26  C   UNL     1      -3.426  13.049  24.037  0.00  0.00    +0.000 A 
ATOM     27  C   UNL     1      -2.788  14.278  24.264  0.00  0.00    +0.000 A 
ATOM     28  C   UNL     1      -3.384  15.279  25.047  0.00  0.00    +0.000 A 
ATOM     29  C   UNL     1      -2.726  16.487  25.283  0.00  0.00    +0.000 A 
ATOM     30  C   UNL     1      -1.488  16.731  24.697  0.00  0.00    +0.000 A 
ATOM     31  C   UNL     1      -0.883  15.748  23.911  0.00  0.00    +0.000 A 
ATOM     32  C   UNL     1      -1.504  14.501  23.720  0.00  0.00    +0.000 A 
ATOM     33  C   UNL     1      -0.857  13.456  23.040  0.00  0.00    +0.000 A 
ENDBRANCH  23  24
ENDBRANCH   4  23
TORSDOF 7
ENDMDL
MODEL 3
REMARK VINA RESULT:      -7.4      0.461      2.187
REMARK  Name = 
REMARK  10 active torsions:
REMARK  status: ('A' for Active; 'I' for Inactive)
REMARK    1  A    between atoms: C_1  and  O_2
REMARK    2  A    between atoms: O_2  and  C_3
REMARK    3  A    between atoms: C_5  and  C_6
REMARK    4  A    between atoms: N_8  and  C_9
REMARK    5  A    between atoms: N_12  and  C_13
REMARK    6  A    between atoms: C_13  and  C_14
REMARK    7  A    between atoms: C_27  and  O_28
REMARK    8  A    between atoms: O_28  and  C_29
REMARK    9  A    between atoms: C_30  and  O_31
REMARK   10  A    between atoms: O_31  and  C_32
REMARK                            x       y       z     vdW  Elec       q    Type
REMARK                         _______ _______ _______ _____ _____    ______ ____
ROOT
ATOM      1  C   UNL     1       0.810  10.353  18.493  0.00  0.00    +0.000 C 
ATOM      2  C   UNL     1       1.452  11.424  19.376  0.00  0.00    +0.000 C 
ATOM      3  C   UNL     1       1.002  11.312  20.833  0.00  0.00    +0.000 C 
ATOM      4  N   UNL     1      -0.461  11.326  20.987  0.00  0.00    +0.000 NA
ATOM      5  C   UNL     1      -1.105  10.294  20.151  0.00  0.00    +0.000 C 
ATOM      6  C   UNL     1      -0.705  10.390  18.675  0.00  0.00    +0.000 C 
ENDROOT
BRANCH   1   9
ATOM      7  C   UNL     1       2.283   8.409  17.962  0.00  0.00    +0.000 C 
ATOM      8  O   UNL     1       2.740   8.909  16.941  0.00  0.00    +0.000 OA
ATOM      9  N   UNL     1       1.360   9.028  18.776  0.00  0.00    +0.000 N 
ATOM     10  H   UNL     1       1.059   8.558  19.618  0.00  0.00    +0.000 HD
BRANCH   7  13
ATOM     11  C   UNL     1       4.537   5.408  18.359  0.00  0.00    +0.000 A 
ATOM     12  C   UNL     1       3.919   6.557  17.837  0.00  0.00    +0.000 A 
ATOM     13  C   UNL     1       2.788   7.096  18.447  0.00  0.00    +0.000 A 
ATOM     14  C   UNL     1       2.208   6.417  19.515  0.00  0.00    +0.000 A 
ATOM     15  C   UNL     1       2.760   5.217  20.003  0.00  0.00    +0.000 A 
ATOM     16  C   UNL     1       3.939   4.696  19.423  0.00  0.00    +0.000 A 
BRANCH  11  18
ATOM     17  C   UNL     1       6.901   5.345  18.514  0.00  0.00    +0.000 C 
ATOM     18  O   UNL     1       5.715   4.965  17.812  0.00  0.00    +0.000 OA
ENDBRANCH  11  18
BRANCH  15  19
ATOM     19  O   UNL     1       2.023   4.727  21.051  0.00  0.00    +0.000 OA
ATOM     20  C   UNL     1       1.084   3.687  20.824  0.00  0.00    +0.000 C 
ENDBRANCH  15  19
BRANCH  16  21
ATOM     21  O   UNL     1       4.395   3.523  19.958  0.00  0.00    +0.000 OA
ATOM     22  C   UNL     1       4.096   2.271  19.362  0.00  0.00    +0.000 C 
ENDBRANCH  16  21
ENDBRANCH   7  13
ENDBRANCH   1   9
BRANCH   4  23
ATOM     23  C   UNL     1      -0.791  11.156  22.425  0.00  0.00    +0.000 C 
BRANCH  23  24
ATOM     24  C   UNL     1      -1.652  12.257  23.006  0.00  0.00    +0.000 A 
ATOM     25  C   UNL     1      -1.085  13.477  23.394  0.00  0.00    +0.000 A 
ATOM     26  C   UNL     1      -1.901  14.540  23.786  0.00  0.00    +0.000 A 
ATOM     27  C   UNL     1      -3.298  14.408  23.793  0.00  0.00    +0.000 A 
ATOM     28  C   UNL     1      -4.137  15.504  24.054  0.00  0.00    +0.000 A 
ATOM     29  C   UNL     1      -5.524  15.361  24.035  0.00  0.00    +0.000 A 
ATOM     30  C   UNL     1      -6.092  14.111  23.806  0.00  0.00    +0.000 A 
ATOM     31  C   UNL     1      -5.272  13.010  23.550  0.00  0.00    +0.000 A 
ATOM     32  C   UNL     1      -3.875  13.153  23.500  0.00  0.00    +0.000 A 
ATOM     33  C   UNL     1      -3.042  12.088  23.119  0.00  0.00    +0.000 A 
ENDBRANCH  23  24
ENDBRANCH   4  23
TORSDOF 7
ENDMDL
MODEL 4
REMARK VINA RESULT:      -7.3      0.860      2.796
REMARK  Name = 
REMARK  10 active torsions:
REMARK  status: ('A' for Active; 'I' for Inactive)
REMARK    1  A    between atoms: C_1  and  O_2
REMARK    2  A    between atoms: O_2  and  C_3
REMARK    3  A    between atoms: C_5  and  C_6
REMARK    4  A    between atoms: N_8  and  C_9
REMARK    5  A    between atoms: N_12  and  C_13
REMARK    6  A    between atoms: C_13  and  C_14
REMARK    7  A    between atoms: C_27  and  O_28
REMARK    8  A    between atoms: O_28  and  C_29
REMARK    9  A    between atoms: C_30  and  O_31
REMARK   10  A    between atoms: O_31  and  C_32
REMARK                            x       y       z     vdW  Elec       q    Type
REMARK                         _______ _______ _______ _____ _____    ______ ____
ROOT
ATOM      1  C   UNL     1       0.836  10.146  18.259  0.00  0.00    +0.000 C 
ATOM      2  C   UNL     1       1.483  11.216  19.138  0.00  0.00    +0.000 C 
ATOM      3  C   UNL     1       1.040  11.106  20.598  0.00  0.00    +0.000 C 
ATOM      4  N   UNL     1      -0.423  11.123  20.758  0.00  0.00    +0.000 NA
ATOM      5  C   UNL     1      -1.072  10.092  19.925  0.00  0.00    +0.000 C 
ATOM      6  C   UNL     1      -0.678  10.187  18.447  0.00  0.00    +0.000 C 
ENDROOT
BRANCH   1   9
ATOM      7  C   UNL     1       2.442   8.281  17.841  0.00  0.00    +0.000 C 
ATOM      8  O   UNL     1       3.031   8.860  16.937  0.00  0.00    +0.000 OA
ATOM      9  N   UNL     1       1.384   8.820  18.541  0.00  0.00    +0.000 N 
ATOM     10  H   UNL     1       0.976   8.286  19.295  0.00  0.00    +0.000 HD
BRANCH   7  13
ATOM     11  C   UNL     1       4.518   5.138  18.081  0.00  0.00    +0.000 A 
ATOM     12  C   UNL     1       3.917   6.311  17.591  0.00  0.00    +0.000 A 
ATOM     13  C   UNL     1       2.915   6.952  18.316  0.00  0.00    +0.000 A 
ATOM     14  C   UNL     1       2.434   6.356  19.479  0.00  0.00    +0.000 A 
ATOM     15  C   UNL     1       2.961   5.137  19.945  0.00  0.00    +0.000 A 
ATOM     16  C   UNL     1       4.017   4.511  19.244  0.00  0.00    +0.000 A 
BRANCH  11  18
ATOM     17  C   UNL     1       5.867   5.171  16.133  0.00  0.00    +0.000 C 
ATOM     18  O   UNL     1       5.581   4.590  17.408  0.00  0.00    +0.000 OA
ENDBRANCH  11  18
BRANCH  15  19
ATOM     19  O   UNL     1       2.336   4.740  21.099  0.00  0.00    +0.000 OA
ATOM     20  C   UNL     1       1.300   3.770  21.040  0.00  0.00    +0.000 C 
ENDBRANCH  15  19
BRANCH  16  21
ATOM     21  O   UNL     1       4.456   3.326  19.768  0.00  0.00    +0.000 OA
ATOM     22  C   UNL     1       4.008   2.080  19.262  0.00  0.00    +0.000 C 
ENDBRANCH  16  21
ENDBRANCH   7  13
ENDBRANCH   1   9
BRANCH   4  23
ATOM     23  C   UNL     1      -0.747  10.955  22.197  0.00  0.00    +0.000 C 
BRANCH  23  24
ATOM     24  C   UNL     1      -1.491  12.120  22.814  0.00  0.00    +0.000 A 
ATOM     25  C   UNL     1      -2.785  11.954  23.319  0.00  0.00    +0.000 A 
ATOM     26  C   UNL     1      -3.406  12.989  24.021  0.00  0.00    +0.000 A 
ATOM     27  C   UNL     1      -2.744  14.207  24.238  0.00  0.00    +0.000 A 
ATOM     28  C   UNL     1      -3.297  15.207  25.054  0.00  0.00    +0.000 A 
ATOM     29  C   UNL     1      -2.615  16.403  25.278  0.00  0.00    +0.000 A 
ATOM     30  C   UNL     1      -1.396  16.638  24.649  0.00  0.00    +0.000 A 
ATOM     31  C   UNL     1      -0.835  15.656  23.831  0.00  0.00    +0.000 A 
ATOM     32  C   UNL     1      -1.478  14.420  23.649  0.00  0.00    +0.000 A 
ATOM     33  C   UNL     1      -0.871  13.375  22.934  0.00  0.00    +0.000 A 
ENDBRANCH  23  24
ENDBRANCH   4  23
TORSDOF 7
ENDMDL
MODEL 5
REMARK VINA RESULT:      -7.3      4.154     10.897
REMARK  Name = 
REMARK  10 active torsions:
REMARK  status: ('A' for Active; 'I' for Inactive)
REMARK    1  A    between atoms: C_1  and  O_2
REMARK    2  A    between atoms: O_2  and  C_3
REMARK    3  A    between atoms: C_5  and  C_6
REMARK    4  A    between atoms: N_8  and  C_9
REMARK    5  A    between atoms: N_12  and  C_13
REMARK    6  A    between atoms: C_13  and  C_14
REMARK    7  A    between atoms: C_27  and  O_28
REMARK    8  A    between atoms: O_28  and  C_29
REMARK    9  A    between atoms: C_30  and  O_31
REMARK   10  A    between atoms: O_31  and  C_32
REMARK                            x       y       z     vdW  Elec       q    Type
REMARK                         _______ _______ _______ _____ _____    ______ ____
ROOT
ATOM      1  C   UNL     1       1.257  10.883  19.333  0.00  0.00    +0.000 C 
ATOM      2  C   UNL     1       2.008  10.290  18.141  0.00  0.00    +0.000 C 
ATOM      3  C   UNL     1       1.740   8.793  17.980  0.00  0.00    +0.000 C 
ATOM      4  N   UNL     1       2.021   8.023  19.202  0.00  0.00    +0.000 NA
ATOM      5  C   UNL     1       1.300   8.570  20.367  0.00  0.00    +0.000 C 
ATOM      6  C   UNL     1       1.566  10.064  20.583  0.00  0.00    +0.000 C 
ENDROOT
BRANCH   1   9
ATOM      7  C   UNL     1      -0.896  12.133  19.156  0.00  0.00    +0.000 C 
ATOM      8  O   UNL     1      -0.402  13.219  19.434  0.00  0.00    +0.000 OA
ATOM      9  N   UNL     1      -0.181  10.959  19.074  0.00  0.00    +0.000 N 
ATOM     10  H   UNL     1      -0.661  10.112  18.806  0.00  0.00    +0.000 HD
BRANCH   7  13
ATOM     11  C   UNL     1      -3.989  11.340  17.143  0.00  0.00    +0.000 A 
ATOM     12  C   UNL     1      -2.656  11.609  17.497  0.00  0.00    +0.000 A 
ATOM     13  C   UNL     1      -2.334  12.036  18.784  0.00  0.00    +0.000 A 
ATOM     14  C   UNL     1      -3.362  12.303  19.685  0.00  0.00    +0.000 A 
ATOM     15  C   UNL     1      -4.711  12.122  19.327  0.00  0.00    +0.000 A 
ATOM     16  C   UNL     1      -5.040  11.635  18.040  0.00  0.00    +0.000 A 
BRANCH  11  18
ATOM     17  C   UNL     1      -3.130  10.505  15.099  0.00  0.00    +0.000 C 
ATOM     18  O   UNL     1      -4.268  10.809  15.909  0.00  0.00    +0.000 OA
ENDBRANCH  11  18
BRANCH  15  19
ATOM     19  O   UNL     1      -5.544  12.448  20.365  0.00  0.00    +0.000 OA
ATOM     20  C   UNL     1      -5.770  13.814  20.683  0.00  0.00    +0.000 C 
ENDBRANCH  15  19
BRANCH  16  21
ATOM     21  O   UNL     1      -6.377  11.501  17.781  0.00  0.00    +0.000 OA
ATOM     22  C   UNL     1      -7.171  12.608  17.389  0.00  0.00    +0.000 C 
ENDBRANCH  16  21
ENDBRANCH   7  13
ENDBRANCH   1   9
BRANCH   4  23
ATOM     23  C   UNL     1       1.676   6.599  18.958  0.00  0.00    +0.000 C 
BRANCH  23  24
ATOM     24  C   UNL     1       2.765   5.796  18.281  0.00  0.00    +0.000 A 
ATOM     25  C   UNL     1       2.508   4.507  17.801  0.00  0.00    +0.000 A 
ATOM     26  C   UNL     1       3.468   3.832  17.045  0.00  0.00    +0.000 A 
ATOM     27  C   UNL     1       4.702   4.432  16.749  0.00  0.00    +0.000 A 
ATOM     28  C   UNL     1       5.623   3.825  15.881  0.00  0.00    +0.000 A 
ATOM     29  C   UNL     1       6.835   4.447  15.579  0.00  0.00    +0.000 A 
ATOM     30  C   UNL     1       7.165   5.658  16.180  0.00  0.00    +0.000 A 
ATOM     31  C   UNL     1       6.262   6.272  17.049  0.00  0.00    +0.000 A 
ATOM     32  C   UNL     1       5.010   5.691  17.311  0.00  0.00    +0.000 A 
ATOM     33  C   UNL     1       4.039   6.353  18.080  0.00  0.00    +0.000 A 
ENDBRANCH  23  24
ENDBRANCH   4  23
TORSDOF 7
ENDMDL
MODEL 6
REMARK VINA RESULT:      -7.3      4.507     10.044
REMARK  Name = 
REMARK  10 active torsions:
REMARK  status: ('A' for Active; 'I' for Inactive)
REMARK    1  A    between atoms: C_1  and  O_2
REMARK    2  A    between atoms: O_2  and  C_3
REMARK    3  A    between atoms: C_5  and  C_6
REMARK    4  A    between atoms: N_8  and  C_9
REMARK    5  A    between atoms: N_12  and  C_13
REMARK    6  A    between atoms: C_13  and  C_14
REMARK    7  A    between atoms: C_27  and  O_28
REMARK    8  A    between atoms: O_28  and  C_29
REMARK    9  A    between atoms: C_30  and  O_31
REMARK   10  A    between atoms: O_31  and  C_32
REMARK                            x       y       z     vdW  Elec       q    Type
REMARK                         _______ _______ _______ _____ _____    ______ ____
ROOT
ATOM      1  C   UNL     1      -0.648  11.739  20.018  0.00  0.00    +0.000 C 
ATOM      2  C   UNL     1      -0.599  11.129  21.419  0.00  0.00    +0.000 C 
ATOM      3  C   UNL     1       0.599  10.195  21.597  0.00  0.00    +0.000 C 
ATOM      4  N   UNL     1       0.665   9.141  20.573  0.00  0.00    +0.000 NA
ATOM      5  C   UNL     1       0.628   9.705  19.210  0.00  0.00    +0.000 C 
ATOM      6  C   UNL     1      -0.576  10.624  18.979  0.00  0.00    +0.000 C 
ENDROOT
BRANCH   1   9
ATOM      7  C   UNL     1       0.372  13.695  18.849  0.00  0.00    +0.000 C 
ATOM      8  O   UNL     1      -0.554  13.830  18.059  0.00  0.00    +0.000 OA
ATOM      9  N   UNL     1       0.413  12.728  19.830  0.00  0.00    +0.000 N 
ATOM     10  H   UNL     1       1.201  12.707  20.462  0.00  0.00    +0.000 HD
BRANCH   7  13
ATOM     11  C   UNL     1       2.225  16.976  19.068  0.00  0.00    +0.000 A 
ATOM     12  C   UNL     1       1.205  16.024  18.894  0.00  0.00    +0.000 A 
ATOM     13  C   UNL     1       1.502  14.663  18.855  0.00  0.00    +0.000 A 
ATOM     14  C   UNL     1       2.835  14.261  18.875  0.00  0.00    +0.000 A 
ATOM     15  C   UNL     1       3.879  15.200  18.963  0.00  0.00    +0.000 A 
ATOM     16  C   UNL     1       3.581  16.579  19.060  0.00  0.00    +0.000 A 
BRANCH  11  18
ATOM     17  C   UNL     1       0.918  18.578  20.226  0.00  0.00    +0.000 C 
ATOM     18  O   UNL     1       1.897  18.299  19.222  0.00  0.00    +0.000 OA
ENDBRANCH  11  18
BRANCH  15  19
ATOM     19  O   UNL     1       5.101  14.579  18.964  0.00  0.00    +0.000 OA
ATOM     20  C   UNL     1       5.931  14.657  17.814  0.00  0.00    +0.000 C 
ENDBRANCH  15  19
BRANCH  16  21
ATOM     21  O   UNL     1       4.661  17.415  19.133  0.00  0.00    +0.000 OA
ATOM     22  C   UNL     1       5.257  17.751  20.375  0.00  0.00    +0.000 C 
ENDBRANCH  16  21
ENDBRANCH   7  13
ENDBRANCH   1   9
BRANCH   4  23
ATOM     23  C   UNL     1       1.887   8.329  20.801  0.00  0.00    +0.000 C 
BRANCH  23  24
ATOM     24  C   UNL     1       1.948   7.046  20.001  0.00  0.00    +0.000 A 
ATOM     25  C   UNL     1       2.544   7.021  18.736  0.00  0.00    +0.000 A 
ATOM     26  C   UNL     1       2.733   5.809  18.069  0.00  0.00    +0.000 A 
ATOM     27  C   UNL     1       2.335   4.598  18.655  0.00  0.00    +0.000 A 
ATOM     28  C   UNL     1       2.637   3.361  18.062  0.00  0.00    +0.000 A 
ATOM     29  C   UNL     1       2.255   2.165  18.670  0.00  0.00    +0.000 A 
ATOM     30  C   UNL     1       1.521   2.189  19.852  0.00  0.00    +0.000 A 
ATOM     31  C   UNL     1       1.208   3.410  20.452  0.00  0.00    +0.000 A 
ATOM     32  C   UNL     1       1.644   4.620  19.887  0.00  0.00    +0.000 A 
ATOM     33  C   UNL     1       1.449   5.848  20.540  0.00  0.00    +0.000 A 
ENDBRANCH  23  24
ENDBRANCH   4  23
TORSDOF 7
ENDMDL
MODEL 7
REMARK VINA RESULT:      -7.1      4.079     10.768
REMARK  Name = 
REMARK  10 active torsions:
REMARK  status: ('A' for Active; 'I' for Inactive)
REMARK    1  A    between atoms: C_1  and  O_2
REMARK    2  A    between atoms: O_2  and  C_3
REMARK    3  A    between atoms: C_5  and  C_6
REMARK    4  A    between atoms: N_8  and  C_9
REMARK    5  A    between atoms: N_12  and  C_13
REMARK    6  A    between atoms: C_13  and  C_14
REMARK    7  A    between atoms: C_27  and  O_28
REMARK    8  A    between atoms: O_28  and  C_29
REMARK    9  A    between atoms: C_30  and  O_31
REMARK   10  A    between atoms: O_31  and  C_32
REMARK                            x       y       z     vdW  Elec       q    Type
REMARK                         _______ _______ _______ _____ _____    ______ ____
ROOT
ATOM      1  C   UNL     1       1.038  11.070  19.431  0.00  0.00    +0.000 C 
ATOM      2  C   UNL     1       1.862  10.557  18.249  0.00  0.00    +0.000 C 
ATOM      3  C   UNL     1       1.630   9.067  17.991  0.00  0.00    +0.000 C 
ATOM      4  N   UNL     1       1.861   8.234  19.181  0.00  0.00    +0.000 NA
ATOM      5  C   UNL     1       1.070   8.703  20.335  0.00  0.00    +0.000 C 
ATOM      6  C   UNL     1       1.297  10.186  20.648  0.00  0.00    +0.000 C 
ENDROOT
BRANCH   1   9
ATOM      7  C   UNL     1      -1.273  11.946  19.775  0.00  0.00    +0.000 C 
ATOM      8  O   UNL     1      -0.960  12.691  20.695  0.00  0.00    +0.000 OA
ATOM      9  N   UNL     1      -0.385  11.138  19.100  0.00  0.00    +0.000 N 
ATOM     10  H   UNL     1      -0.722  10.578  18.330  0.00  0.00    +0.000 HD
BRANCH   7  13
ATOM     11  C   UNL     1      -4.961  12.708  19.514  0.00  0.00    +0.000 A 
ATOM     12  C   UNL     1      -3.664  12.533  20.026  0.00  0.00    +0.000 A 
ATOM     13  C   UNL     1      -2.667  11.945  19.252  0.00  0.00    +0.000 A 
ATOM     14  C   UNL     1      -2.998  11.427  18.002  0.00  0.00    +0.000 A 
ATOM     15  C   UNL     1      -4.311  11.515  17.501  0.00  0.00    +0.000 A 
ATOM     16  C   UNL     1      -5.314  12.161  18.260  0.00  0.00    +0.000 A 
BRANCH  11  18
ATOM     17  C   UNL     1      -6.312  12.757  21.461  0.00  0.00    +0.000 C 
ATOM     18  O   UNL     1      -5.893  13.394  20.251  0.00  0.00    +0.000 OA
ENDBRANCH  11  18
BRANCH  15  19
ATOM     19  O   UNL     1      -4.403  10.939  16.261  0.00  0.00    +0.000 OA
ATOM     20  C   UNL     1      -3.266  10.915  15.409  0.00  0.00    +0.000 C 
ENDBRANCH  15  19
BRANCH  16  21
ATOM     21  O   UNL     1      -6.559  12.188  17.695  0.00  0.00    +0.000 OA
ATOM     22  C   UNL     1      -7.021  13.317  16.971  0.00  0.00    +0.000 C 
ENDBRANCH  16  21
ENDBRANCH   7  13
ENDBRANCH   1   9
BRANCH   4  23
ATOM     23  C   UNL     1       1.555   6.821  18.840  0.00  0.00    +0.000 C 
BRANCH  23  24
ATOM     24  C   UNL     1       2.725   6.043  18.275  0.00  0.00    +0.000 A 
ATOM     25  C   UNL     1       2.580   4.701  17.909  0.00  0.00    +0.000 A 
ATOM     26  C   UNL     1       3.614   4.034  17.250  0.00  0.00    +0.000 A 
ATOM     27  C   UNL     1       4.812   4.697  16.939  0.00  0.00    +0.000 A 
ATOM     28  C   UNL     1       5.807   4.085  16.160  0.00  0.00    +0.000 A 
ATOM     29  C   UNL     1       6.982   4.767  15.840  0.00  0.00    +0.000 A 
ATOM     30  C   UNL     1       7.200   6.048  16.337  0.00  0.00    +0.000 A 
ATOM     31  C   UNL     1       6.223   6.669  17.117  0.00  0.00    +0.000 A 
ATOM     32  C   UNL     1       5.007   6.021  17.391  0.00  0.00    +0.000 A 
ATOM     33  C   UNL     1       3.962   6.675  18.065  0.00  0.00    +0.000 A 
ENDBRANCH  23  24
ENDBRANCH   4  23
TORSDOF 7
ENDMDL
MODEL 8
REMARK VINA RESULT:      -7.1      4.484     10.162
REMARK  Name = 
REMARK  10 active torsions:
REMARK  status: ('A' for Active; 'I' for Inactive)
REMARK    1  A    between atoms: C_1  and  O_2
REMARK    2  A    between atoms: O_2  and  C_3
REMARK    3  A    between atoms: C_5  and  C_6
REMARK    4  A    between atoms: N_8  and  C_9
REMARK    5  A    between atoms: N_12  and  C_13
REMARK    6  A    between atoms: C_13  and  C_14
REMARK    7  A    between atoms: C_27  and  O_28
REMARK    8  A    between atoms: O_28  and  C_29
REMARK    9  A    between atoms: C_30  and  O_31
REMARK   10  A    between atoms: O_31  and  C_32
REMARK                            x       y       z     vdW  Elec       q    Type
REMARK                         _______ _______ _______ _____ _____    ______ ____
ROOT
ATOM      1  C   UNL     1      -0.779  11.602  20.171  0.00  0.00    +0.000 C 
ATOM      2  C   UNL     1      -0.759  10.882  21.520  0.00  0.00    +0.000 C 
ATOM      3  C   UNL     1       0.466   9.978  21.670  0.00  0.00    +0.000 C 
ATOM      4  N   UNL     1       0.608   9.013  20.569  0.00  0.00    +0.000 NA
ATOM      5  C   UNL     1       0.601   9.684  19.255  0.00  0.00    +0.000 C 
ATOM      6  C   UNL     1      -0.627  10.577  19.050  0.00  0.00    +0.000 C 
ENDROOT
BRANCH   1   9
ATOM      7  C   UNL     1       0.371  13.509  19.043  0.00  0.00    +0.000 C 
ATOM      8  O   UNL     1      -0.376  13.512  18.072  0.00  0.00    +0.000 OA
ATOM      9  N   UNL     1       0.251  12.638  20.104  0.00  0.00    +0.000 N 
ATOM     10  H   UNL     1       0.890  12.725  20.882  0.00  0.00    +0.000 HD
BRANCH   7  13
ATOM     11  C   UNL     1       3.748  15.060  19.703  0.00  0.00    +0.000 A 
ATOM     12  C   UNL     1       2.663  14.166  19.703  0.00  0.00    +0.000 A 
ATOM     13  C   UNL     1       1.429  14.547  19.181  0.00  0.00    +0.000 A 
ATOM     14  C   UNL     1       1.248  15.863  18.762  0.00  0.00    +0.000 A 
ATOM     15  C   UNL     1       2.295  16.800  18.830  0.00  0.00    +0.000 A 
ATOM     16  C   UNL     1       3.566  16.404  19.307  0.00  0.00    +0.000 A 
BRANCH  11  18
ATOM     17  C   UNL     1       5.179  14.578  21.529  0.00  0.00    +0.000 C 
ATOM     18  O   UNL     1       4.983  14.625  20.113  0.00  0.00    +0.000 OA
ENDBRANCH  11  18
BRANCH  15  19
ATOM     19  O   UNL     1       1.890  18.025  18.369  0.00  0.00    +0.000 OA
ATOM     20  C   UNL     1       0.716  18.623  18.899  0.00  0.00    +0.000 C 
ENDBRANCH  15  19
BRANCH  16  21
ATOM     21  O   UNL     1       4.518  17.386  19.345  0.00  0.00    +0.000 OA
ATOM     22  C   UNL     1       4.751  18.148  20.518  0.00  0.00    +0.000 C 
ENDBRANCH  16  21
ENDBRANCH   7  13
ENDBRANCH   1   9
BRANCH   4  23
ATOM     23  C   UNL     1       1.851   8.227  20.780  0.00  0.00    +0.000 C 
BRANCH  23  24
ATOM     24  C   UNL     1       1.953   6.975  19.937  0.00  0.00    +0.000 A 
ATOM     25  C   UNL     1       2.599   6.999  18.697  0.00  0.00    +0.000 A 
ATOM     26  C   UNL     1       2.824   5.813  17.994  0.00  0.00    +0.000 A 
ATOM     27  C   UNL     1       2.412   4.579  18.520  0.00  0.00    +0.000 A 
ATOM     28  C   UNL     1       2.747   3.367  17.895  0.00  0.00    +0.000 A 
ATOM     29  C   UNL     1       2.350   2.148  18.444  0.00  0.00    +0.000 A 
ATOM     30  C   UNL     1       1.569   2.124  19.595  0.00  0.00    +0.000 A 
ATOM     31  C   UNL     1       1.223   3.320  20.227  0.00  0.00    +0.000 A 
ATOM     32  C   UNL     1       1.672   4.553  19.723  0.00  0.00    +0.000 A 
ATOM     33  C   UNL     1       1.442   5.755  20.412  0.00  0.00    +0.000 A 
ENDBRANCH  23  24
ENDBRANCH   4  23
TORSDOF 7
ENDMDL
MODEL 9
REMARK VINA RESULT:      -7.1      4.774     10.206
REMARK  Name = 
REMARK  10 active torsions:
REMARK  status: ('A' for Active; 'I' for Inactive)
REMARK    1  A    between atoms: C_1  and  O_2
REMARK    2  A    between atoms: O_2  and  C_3
REMARK    3  A    between atoms: C_5  and  C_6
REMARK    4  A    between atoms: N_8  and  C_9
REMARK    5  A    between atoms: N_12  and  C_13
REMARK    6  A    between atoms: C_13  and  C_14
REMARK    7  A    between atoms: C_27  and  O_28
REMARK    8  A    between atoms: O_28  and  C_29
REMARK    9  A    between atoms: C_30  and  O_31
REMARK   10  A    between atoms: O_31  and  C_32
REMARK                            x       y       z     vdW  Elec       q    Type
REMARK                         _______ _______ _______ _____ _____    ______ ____
ROOT
ATOM      1  C   UNL     1      -0.749  11.689  20.414  0.00  0.00    +0.000 C 
ATOM      2  C   UNL     1      -0.656  11.013  21.783  0.00  0.00    +0.000 C 
ATOM      3  C   UNL     1       0.551  10.077  21.880  0.00  0.00    +0.000 C 
ATOM      4  N   UNL     1       0.589   9.073  20.806  0.00  0.00    +0.000 NA
ATOM      5  C   UNL     1       0.509   9.701  19.473  0.00  0.00    +0.000 C 
ATOM      6  C   UNL     1      -0.705  10.624  19.322  0.00  0.00    +0.000 C 
ENDROOT
BRANCH   1   9
ATOM      7  C   UNL     1       0.040  14.008  19.938  0.00  0.00    +0.000 C 
ATOM      8  O   UNL     1      -1.087  14.469  19.803  0.00  0.00    +0.000 OA
ATOM      9  N   UNL     1       0.302  12.691  20.241  0.00  0.00    +0.000 N 
ATOM     10  H   UNL     1       1.262  12.400  20.368  0.00  0.00    +0.000 HD
BRANCH   7  13
ATOM     11  C   UNL     1       2.317  16.802  18.816  0.00  0.00    +0.000 A 
ATOM     12  C   UNL     1       1.306  15.825  18.834  0.00  0.00    +0.000 A 
ATOM     13  C   UNL     1       1.229  14.902  19.874  0.00  0.00    +0.000 A 
ATOM     14  C   UNL     1       2.233  14.883  20.839  0.00  0.00    +0.000 A 
ATOM     15  C   UNL     1       3.303  15.797  20.795  0.00  0.00    +0.000 A 
ATOM     16  C   UNL     1       3.356  16.773  19.773  0.00  0.00    +0.000 A 
BRANCH  11  18
ATOM     17  C   UNL     1       1.029  18.029  17.250  0.00  0.00    +0.000 C 
ATOM     18  O   UNL     1       2.303  17.772  17.845  0.00  0.00    +0.000 OA
ENDBRANCH  11  18
BRANCH  15  19
ATOM     19  O   UNL     1       4.168  15.591  21.838  0.00  0.00    +0.000 OA
ATOM     20  C   UNL     1       4.894  14.374  21.920  0.00  0.00    +0.000 C 
ENDBRANCH  15  19
BRANCH  16  21
ATOM     21  O   UNL     1       4.437  17.610  19.808  0.00  0.00    +0.000 OA
ATOM     22  C   UNL     1       5.686  17.231  19.254  0.00  0.00    +0.000 C 
ENDBRANCH  16  21
ENDBRANCH   7  13
ENDBRANCH   1   9
BRANCH   4  23
ATOM     23  C   UNL     1       1.820   8.258  20.958  0.00  0.00    +0.000 C 
BRANCH  23  24
ATOM     24  C   UNL     1       1.881   7.038  20.064  0.00  0.00    +0.000 A 
ATOM     25  C   UNL     1       2.468   7.111  18.796  0.00  0.00    +0.000 A 
ATOM     26  C   UNL     1       2.658   5.953  18.039  0.00  0.00    +0.000 A 
ATOM     27  C   UNL     1       2.270   4.700  18.536  0.00  0.00    +0.000 A 
ATOM     28  C   UNL     1       2.574   3.513  17.849  0.00  0.00    +0.000 A 
ATOM     29  C   UNL     1       2.201   2.273  18.369  0.00  0.00    +0.000 A 
ATOM     30  C   UNL     1       1.475   2.205  19.554  0.00  0.00    +0.000 A 
ATOM     31  C   UNL     1       1.161   3.375  20.246  0.00  0.00    +0.000 A 
ATOM     32  C   UNL     1       1.587   4.626  19.770  0.00  0.00    +0.000 A 
ATOM     33  C   UNL     1       1.392   5.801  20.515  0.00  0.00    +0.000 A 
ENDBRANCH  23  24
ENDBRANCH   4  23
TORSDOF 7
ENDMDL
