MODEL 1
REMARK VINA RESULT:      -7.6      0.000      0.000
REMARK  Name = 
REMARK  5 active torsions:
REMARK  status: ('A' for Active; 'I' for Inactive)
REMARK    1  A    between atoms: C_1  and  C_2
REMARK    2  A    between atoms: C_2  and  O_3
REMARK    3  A    between atoms: O_3  and  C_4
REMARK    4  A    between atoms: C_8  and  C_9
REMARK    5  A    between atoms: N_11  and  C_12
REMARK                            x       y       z     vdW  Elec       q    Type
REMARK                         _______ _______ _______ _____ _____    ______ ____
ROOT
ATOM      1  C   UNL     1       6.126   4.474  15.889  0.00  0.00    +0.000 C 
ATOM      2  O   UNL     1       7.095   4.526  16.639  0.00  0.00    +0.000 OA
ATOM      3  N   UNL     1       4.795   4.507  16.273  0.00  0.00    +0.000 N 
ATOM      4  H   UNL     1       4.087   4.545  15.549  0.00  0.00    +0.000 HD
ENDROOT
BRANCH   3   5
ATOM      5  C   UNL     1       4.335   4.634  17.604  0.00  0.00    +0.000 A 
ATOM      6  C   UNL     1       3.913   5.850  18.152  0.00  0.00    +0.000 A 
ATOM      7  C   UNL     1       3.291   5.897  19.401  0.00  0.00    +0.000 A 
ATOM      8  C   UNL     1       3.074   4.721  20.105  0.00  0.00    +0.000 A 
ATOM      9  C   UNL     1       3.596   3.524  19.617  0.00  0.00    +0.000 A 
ATOM     10  C   UNL     1       4.247   3.476  18.383  0.00  0.00    +0.000 A 
ATOM     11  O   UNL     1       3.449   2.345  20.303  0.00  0.00    +0.000 OA
ATOM     12  C   UNL     1       2.159   2.341  20.913  0.00  0.00    +0.000 C 
ATOM     13  C   UNL     1       1.933   3.560  21.801  0.00  0.00    +0.000 C 
ATOM     14  O   UNL     1       2.310   4.815  21.230  0.00  0.00    +0.000 OA
ENDBRANCH   3   5
BRANCH   1  19
ATOM     15  C   UNL     1       5.939   3.607  12.184  0.00  0.00    +0.000 A 
ATOM     16  C   UNL     1       7.058   4.311  11.724  0.00  0.00    +0.000 A 
ATOM     17  C   UNL     1       7.837   5.057  12.609  0.00  0.00    +0.000 A 
ATOM     18  C   UNL     1       7.511   5.087  13.954  0.00  0.00    +0.000 A 
ATOM     19  C   UNL     1       6.405   4.368  14.434  0.00  0.00    +0.000 A 
ATOM     20  C   UNL     1       5.604   3.643  13.541  0.00  0.00    +0.000 A 
BRANCH  15  21
ATOM     21  O   UNL     1       5.265   2.936  11.205  0.00  0.00    +0.000 OA
BRANCH  21  23
ATOM     22  C   UNL     1       3.370   3.794  10.047  0.00  0.00    +0.000 C 
ATOM     23  C   UNL     1       3.841   2.975  11.234  0.00  0.00    +0.000 C 
ENDBRANCH  21  23
ENDBRANCH  15  21
ENDBRANCH   1  19
TORSDOF 4
ENDMDL
MODEL 2
REMARK VINA RESULT:      -7.5      1.116      1.358
REMARK  Name = 
REMARK  5 active torsions:
REMARK  status: ('A' for Active; 'I' for Inactive)
REMARK    1  A    between atoms: C_1  and  C_2
REMARK    2  A    between atoms: C_2  and  O_3
REMARK    3  A    between atoms: O_3  and  C_4
REMARK    4  A    between atoms: C_8  and  C_9
REMARK    5  A    between atoms: N_11  and  C_12
REMARK                            x       y       z     vdW  Elec       q    Type
REMARK                         _______ _______ _______ _____ _____    ______ ____
ROOT
ATOM      1  C   UNL     1       5.928   4.996  15.656  0.00  0.00    +0.000 C 
ATOM      2  O   UNL     1       6.547   5.914  16.185  0.00  0.00    +0.000 OA
ATOM      3  N   UNL     1       4.870   4.298  16.216  0.00  0.00    +0.000 N 
ATOM      4  H   UNL     1       4.384   3.619  15.643  0.00  0.00    +0.000 HD
ENDROOT
BRANCH   3   5
ATOM      5  C   UNL     1       4.312   4.552  17.491  0.00  0.00    +0.000 A 
ATOM      6  C   UNL     1       3.572   5.703  17.784  0.00  0.00    +0.000 A 
ATOM      7  C   UNL     1       2.882   5.824  18.991  0.00  0.00    +0.000 A 
ATOM      8  C   UNL     1       2.916   4.785  19.910  0.00  0.00    +0.000 A 
ATOM      9  C   UNL     1       3.744   3.689  19.674  0.00  0.00    +0.000 A 
ATOM     10  C   UNL     1       4.461   3.576  18.481  0.00  0.00    +0.000 A 
ATOM     11  O   UNL     1       3.848   2.660  20.576  0.00  0.00    +0.000 OA
ATOM     12  C   UNL     1       2.563   2.446  21.158  0.00  0.00    +0.000 C 
ATOM     13  C   UNL     1       1.992   3.713  21.787  0.00  0.00    +0.000 C 
ATOM     14  O   UNL     1       2.084   4.892  20.984  0.00  0.00    +0.000 OA
ENDBRANCH   3   5
BRANCH   1  19
ATOM     15  C   UNL     1       6.207   3.259  12.278  0.00  0.00    +0.000 A 
ATOM     16  C   UNL     1       7.242   4.014  11.713  0.00  0.00    +0.000 A 
ATOM     17  C   UNL     1       7.815   5.069  12.423  0.00  0.00    +0.000 A 
ATOM     18  C   UNL     1       7.370   5.360  13.701  0.00  0.00    +0.000 A 
ATOM     19  C   UNL     1       6.349   4.598  14.289  0.00  0.00    +0.000 A 
ATOM     20  C   UNL     1       5.751   3.557  13.565  0.00  0.00    +0.000 A 
BRANCH  15  21
ATOM     21  O   UNL     1       5.734   2.271  11.464  0.00  0.00    +0.000 OA
BRANCH  21  23
ATOM     22  C   UNL     1       6.117  -0.073  11.280  0.00  0.00    +0.000 C 
ATOM     23  C   UNL     1       6.667   1.309  10.978  0.00  0.00    +0.000 C 
ENDBRANCH  21  23
ENDBRANCH  15  21
ENDBRANCH   1  19
TORSDOF 4
ENDMDL
MODEL 3
REMARK VINA RESULT:      -7.2      4.533      7.270
REMARK  Name = 
REMARK  5 active torsions:
REMARK  status: ('A' for Active; 'I' for Inactive)
REMARK    1  A    between atoms: C_1  and  C_2
REMARK    2  A    between atoms: C_2  and  O_3
REMARK    3  A    between atoms: O_3  and  C_4
REMARK    4  A    between atoms: C_8  and  C_9
REMARK    5  A    between atoms: N_11  and  C_12
REMARK                            x       y       z     vdW  Elec       q    Type
REMARK                         _______ _______ _______ _____ _____    ______ ____
ROOT
ATOM      1  C   UNL     1       2.140   6.208  19.955  0.00  0.00    +0.000 C 
ATOM      2  O   UNL     1       1.432   5.561  20.720  0.00  0.00    +0.000 OA
ATOM      3  N   UNL     1       2.146   7.587  19.819  0.00  0.00    +0.000 N 
ATOM      4  H   UNL     1       2.842   8.007  19.214  0.00  0.00    +0.000 HD
ENDROOT
BRANCH   3   5
ATOM      5  C   UNL     1       1.345   8.481  20.565  0.00  0.00    +0.000 A 
ATOM      6  C   UNL     1       1.138   8.351  21.943  0.00  0.00    +0.000 A 
ATOM      7  C   UNL     1       0.500   9.357  22.671  0.00  0.00    +0.000 A 
ATOM      8  C   UNL     1       0.078  10.510  22.026  0.00  0.00    +0.000 A 
ATOM      9  C   UNL     1       0.177  10.594  20.638  0.00  0.00    +0.000 A 
ATOM     10  C   UNL     1       0.786   9.577  19.901  0.00  0.00    +0.000 A 
ATOM     11  O   UNL     1      -0.272  11.694  19.951  0.00  0.00    +0.000 OA
ATOM     12  C   UNL     1       0.001  12.853  20.737  0.00  0.00    +0.000 C 
ATOM     13  C   UNL     1      -0.597  12.759  22.137  0.00  0.00    +0.000 C 
ATOM     14  O   UNL     1      -0.377  11.522  22.818  0.00  0.00    +0.000 OA
ENDBRANCH   3   5
BRANCH   1  19
ATOM     15  C   UNL     1       5.263   4.576  18.507  0.00  0.00    +0.000 A 
ATOM     16  C   UNL     1       4.695   3.928  17.403  0.00  0.00    +0.000 A 
ATOM     17  C   UNL     1       3.325   4.019  17.158  0.00  0.00    +0.000 A 
ATOM     18  C   UNL     1       2.524   4.768  18.002  0.00  0.00    +0.000 A 
ATOM     19  C   UNL     1       3.081   5.442  19.099  0.00  0.00    +0.000 A 
ATOM     20  C   UNL     1       4.453   5.327  19.364  0.00  0.00    +0.000 A 
BRANCH  15  21
ATOM     21  O   UNL     1       6.609   4.388  18.629  0.00  0.00    +0.000 OA
BRANCH  21  23
ATOM     22  C   UNL     1       7.480   6.424  17.752  0.00  0.00    +0.000 C 
ATOM     23  C   UNL     1       7.448   4.914  17.603  0.00  0.00    +0.000 C 
ENDBRANCH  21  23
ENDBRANCH  15  21
ENDBRANCH   1  19
TORSDOF 4
ENDMDL
MODEL 4
REMARK VINA RESULT:      -7.0      4.433      6.432
REMARK  Name = 
REMARK  5 active torsions:
REMARK  status: ('A' for Active; 'I' for Inactive)
REMARK    1  A    between atoms: C_1  and  C_2
REMARK    2  A    between atoms: C_2  and  O_3
REMARK    3  A    between atoms: O_3  and  C_4
REMARK    4  A    between atoms: C_8  and  C_9
REMARK    5  A    between atoms: N_11  and  C_12
REMARK                            x       y       z     vdW  Elec       q    Type
REMARK                         _______ _______ _______ _____ _____    ______ ____
ROOT
ATOM      1  C   UNL     1       2.763   7.262  18.301  0.00  0.00    +0.000 C 
ATOM      2  O   UNL     1       3.354   8.157  17.708  0.00  0.00    +0.000 OA
ATOM      3  N   UNL     1       1.848   7.431  19.329  0.00  0.00    +0.000 N 
ATOM      4  H   UNL     1       1.361   6.614  19.678  0.00  0.00    +0.000 HD
ENDROOT
BRANCH   3   5
ATOM      5  C   UNL     1       1.427   8.678  19.845  0.00  0.00    +0.000 A 
ATOM      6  C   UNL     1       1.155   9.786  19.035  0.00  0.00    +0.000 A 
ATOM      7  C   UNL     1       0.562  10.933  19.565  0.00  0.00    +0.000 A 
ATOM      8  C   UNL     1       0.222  10.974  20.909  0.00  0.00    +0.000 A 
ATOM      9  C   UNL     1       0.596   9.920  21.742  0.00  0.00    +0.000 A 
ATOM     10  C   UNL     1       1.218   8.783  21.224  0.00  0.00    +0.000 A 
ATOM     11  O   UNL     1       0.325   9.938  23.087  0.00  0.00    +0.000 OA
ATOM     12  C   UNL     1      -0.947  10.555  23.278  0.00  0.00    +0.000 C 
ATOM     13  C   UNL     1      -1.017  11.945  22.655  0.00  0.00    +0.000 C 
ATOM     14  O   UNL     1      -0.508  12.048  21.322  0.00  0.00    +0.000 OA
ENDBRANCH   3   5
BRANCH   1  19
ATOM     15  C   UNL     1       4.457   4.125  16.961  0.00  0.00    +0.000 A 
ATOM     16  C   UNL     1       3.432   3.196  17.178  0.00  0.00    +0.000 A 
ATOM     17  C   UNL     1       2.229   3.595  17.760  0.00  0.00    +0.000 A 
ATOM     18  C   UNL     1       2.041   4.921  18.110  0.00  0.00    +0.000 A 
ATOM     19  C   UNL     1       3.051   5.868  17.878  0.00  0.00    +0.000 A 
ATOM     20  C   UNL     1       4.272   5.462  17.321  0.00  0.00    +0.000 A 
BRANCH  15  21
ATOM     21  O   UNL     1       5.580   3.589  16.399  0.00  0.00    +0.000 OA
BRANCH  21  23
ATOM     22  C   UNL     1       5.876   4.115  14.095  0.00  0.00    +0.000 C 
ATOM     23  C   UNL     1       6.333   4.412  15.511  0.00  0.00    +0.000 C 
ENDBRANCH  21  23
ENDBRANCH  15  21
ENDBRANCH   1  19
TORSDOF 4
ENDMDL
MODEL 5
REMARK VINA RESULT:      -7.0      5.161      7.402
REMARK  Name = 
REMARK  5 active torsions:
REMARK  status: ('A' for Active; 'I' for Inactive)
REMARK    1  A    between atoms: C_1  and  C_2
REMARK    2  A    between atoms: C_2  and  O_3
REMARK    3  A    between atoms: O_3  and  C_4
REMARK    4  A    between atoms: C_8  and  C_9
REMARK    5  A    between atoms: N_11  and  C_12
REMARK                            x       y       z     vdW  Elec       q    Type
REMARK                         _______ _______ _______ _____ _____    ______ ____
ROOT
ATOM      1  C   UNL     1       2.325   8.329  18.100  0.00  0.00    +0.000 C 
ATOM      2  O   UNL     1       2.416   9.202  17.244  0.00  0.00    +0.000 OA
ATOM      3  N   UNL     1       1.587   8.409  19.271  0.00  0.00    +0.000 N 
ATOM      4  H   UNL     1       1.523   7.584  19.856  0.00  0.00    +0.000 HD
ENDROOT
BRANCH   3   5
ATOM      5  C   UNL     1       0.793   9.512  19.658  0.00  0.00    +0.000 A 
ATOM      6  C   UNL     1      -0.040  10.200  18.770  0.00  0.00    +0.000 A 
ATOM      7  C   UNL     1      -0.947  11.157  19.231  0.00  0.00    +0.000 A 
ATOM      8  C   UNL     1      -1.035  11.422  20.590  0.00  0.00    +0.000 A 
ATOM      9  C   UNL     1      -0.128  10.825  21.464  0.00  0.00    +0.000 A 
ATOM     10  C   UNL     1       0.802   9.890  21.004  0.00  0.00    +0.000 A 
ATOM     11  O   UNL     1      -0.145  11.093  22.809  0.00  0.00    +0.000 OA
ATOM     12  C   UNL     1      -1.504  11.244  23.217  0.00  0.00    +0.000 C 
ATOM     13  C   UNL     1      -2.239  12.306  22.405  0.00  0.00    +0.000 C 
ATOM     14  O   UNL     1      -2.054  12.233  20.989  0.00  0.00    +0.000 OA
ENDBRANCH   3   5
BRANCH   1  19
ATOM     15  C   UNL     1       5.018   5.791  17.199  0.00  0.00    +0.000 A 
ATOM     16  C   UNL     1       4.333   4.608  17.501  0.00  0.00    +0.000 A 
ATOM     17  C   UNL     1       3.031   4.653  17.998  0.00  0.00    +0.000 A 
ATOM     18  C   UNL     1       2.405   5.875  18.178  0.00  0.00    +0.000 A 
ATOM     19  C   UNL     1       3.071   7.068  17.859  0.00  0.00    +0.000 A 
ATOM     20  C   UNL     1       4.391   7.025  17.387  0.00  0.00    +0.000 A 
BRANCH  15  21
ATOM     21  O   UNL     1       6.287   5.593  16.735  0.00  0.00    +0.000 OA
BRANCH  21  23
ATOM     22  C   UNL     1       7.672   5.808  18.660  0.00  0.00    +0.000 C 
ATOM     23  C   UNL     1       7.192   4.871  17.566  0.00  0.00    +0.000 C 
ENDBRANCH  21  23
ENDBRANCH  15  21
ENDBRANCH   1  19
TORSDOF 4
ENDMDL
MODEL 6
REMARK VINA RESULT:      -7.0      3.813      5.356
REMARK  Name = 
REMARK  5 active torsions:
REMARK  status: ('A' for Active; 'I' for Inactive)
REMARK    1  A    between atoms: C_1  and  C_2
REMARK    2  A    between atoms: C_2  and  O_3
REMARK    3  A    between atoms: O_3  and  C_4
REMARK    4  A    between atoms: C_8  and  C_9
REMARK    5  A    between atoms: N_11  and  C_12
REMARK                            x       y       z     vdW  Elec       q    Type
REMARK                         _______ _______ _______ _____ _____    ______ ____
ROOT
ATOM      1  C   UNL     1       3.422   6.159  17.787  0.00  0.00    +0.000 C 
ATOM      2  O   UNL     1       2.564   5.299  17.957  0.00  0.00    +0.000 OA
ATOM      3  N   UNL     1       3.339   7.484  18.188  0.00  0.00    +0.000 N 
ATOM      4  H   UNL     1       4.153   8.074  18.066  0.00  0.00    +0.000 HD
ENDROOT
BRANCH   3   5
ATOM      5  C   UNL     1       2.251   8.055  18.887  0.00  0.00    +0.000 A 
ATOM      6  C   UNL     1       1.909   7.690  20.194  0.00  0.00    +0.000 A 
ATOM      7  C   UNL     1       0.953   8.410  20.913  0.00  0.00    +0.000 A 
ATOM      8  C   UNL     1       0.342   9.512  20.332  0.00  0.00    +0.000 A 
ATOM      9  C   UNL     1       0.593   9.808  18.993  0.00  0.00    +0.000 A 
ATOM     10  C   UNL     1       1.525   9.072  18.260  0.00  0.00    +0.000 A 
ATOM     11  O   UNL     1      -0.025  10.857  18.362  0.00  0.00    +0.000 OA
ATOM     12  C   UNL     1      -0.152  11.928  19.296  0.00  0.00    +0.000 C 
ATOM     13  C   UNL     1      -0.882  11.505  20.568  0.00  0.00    +0.000 C 
ATOM     14  O   UNL     1      -0.448  10.270  21.143  0.00  0.00    +0.000 OA
ENDBRANCH   3   5
BRANCH   1  19
ATOM     15  C   UNL     1       5.917   4.446  15.475  0.00  0.00    +0.000 A 
ATOM     16  C   UNL     1       7.086   5.114  15.859  0.00  0.00    +0.000 A 
ATOM     17  C   UNL     1       7.043   6.106  16.838  0.00  0.00    +0.000 A 
ATOM     18  C   UNL     1       5.841   6.419  17.448  0.00  0.00    +0.000 A 
ATOM     19  C   UNL     1       4.665   5.743  17.090  0.00  0.00    +0.000 A 
ATOM     20  C   UNL     1       4.700   4.767  16.084  0.00  0.00    +0.000 A 
BRANCH  15  21
ATOM     21  O   UNL     1       6.108   3.513  14.497  0.00  0.00    +0.000 OA
BRANCH  21  23
ATOM     22  C   UNL     1       5.697   3.200  12.172  0.00  0.00    +0.000 C 
ATOM     23  C   UNL     1       6.494   3.975  13.205  0.00  0.00    +0.000 C 
ENDBRANCH  21  23
ENDBRANCH  15  21
ENDBRANCH   1  19
TORSDOF 4
ENDMDL
MODEL 7
REMARK VINA RESULT:      -6.9      5.091      7.062
REMARK  Name = 
REMARK  5 active torsions:
REMARK  status: ('A' for Active; 'I' for Inactive)
REMARK    1  A    between atoms: C_1  and  C_2
REMARK    2  A    between atoms: C_2  and  O_3
REMARK    3  A    between atoms: O_3  and  C_4
REMARK    4  A    between atoms: C_8  and  C_9
REMARK    5  A    between atoms: N_11  and  C_12
REMARK                            x       y       z     vdW  Elec       q    Type
REMARK                         _______ _______ _______ _____ _____    ______ ____
ROOT
ATOM      1  C   UNL     1       2.341   8.342  18.122  0.00  0.00    +0.000 C 
ATOM      2  O   UNL     1       2.524   9.258  17.327  0.00  0.00    +0.000 OA
ATOM      3  N   UNL     1       1.549   8.395  19.258  0.00  0.00    +0.000 N 
ATOM      4  H   UNL     1       1.409   7.542  19.787  0.00  0.00    +0.000 HD
ENDROOT
BRANCH   3   5
ATOM      5  C   UNL     1       0.798   9.519  19.674  0.00  0.00    +0.000 A 
ATOM      6  C   UNL     1       0.027  10.288  18.795  0.00  0.00    +0.000 A 
ATOM      7  C   UNL     1      -0.845  11.266  19.274  0.00  0.00    +0.000 A 
ATOM      8  C   UNL     1      -0.964  11.472  20.641  0.00  0.00    +0.000 A 
ATOM      9  C   UNL     1      -0.115  10.791  21.512  0.00  0.00    +0.000 A 
ATOM     10  C   UNL     1       0.782   9.834  21.036  0.00  0.00    +0.000 A 
ATOM     11  O   UNL     1      -0.161  10.998  22.868  0.00  0.00    +0.000 OA
ATOM     12  C   UNL     1      -1.523  11.199  23.242  0.00  0.00    +0.000 C 
ATOM     13  C   UNL     1      -2.180  12.332  22.460  0.00  0.00    +0.000 C 
ATOM     14  O   UNL     1      -1.954  12.315  21.048  0.00  0.00    +0.000 OA
ENDBRANCH   3   5
BRANCH   1  19
ATOM     15  C   UNL     1       4.824   5.708  16.937  0.00  0.00    +0.000 A 
ATOM     16  C   UNL     1       4.197   4.558  17.432  0.00  0.00    +0.000 A 
ATOM     17  C   UNL     1       3.002   4.657  18.144  0.00  0.00    +0.000 A 
ATOM     18  C   UNL     1       2.423   5.897  18.348  0.00  0.00    +0.000 A 
ATOM     19  C   UNL     1       3.028   7.056  17.839  0.00  0.00    +0.000 A 
ATOM     20  C   UNL     1       4.245   6.962  17.149  0.00  0.00    +0.000 A 
BRANCH  15  21
ATOM     21  O   UNL     1       5.991   5.461  16.274  0.00  0.00    +0.000 OA
BRANCH  21  23
ATOM     22  C   UNL     1       5.995   4.160  14.280  0.00  0.00    +0.000 C 
ATOM     23  C   UNL     1       6.208   4.140  15.782  0.00  0.00    +0.000 C 
ENDBRANCH  21  23
ENDBRANCH  15  21
ENDBRANCH   1  19
TORSDOF 4
ENDMDL
MODEL 8
REMARK VINA RESULT:      -6.9      5.075      7.369
REMARK  Name = 
REMARK  5 active torsions:
REMARK  status: ('A' for Active; 'I' for Inactive)
REMARK    1  A    between atoms: C_1  and  C_2
REMARK    2  A    between atoms: C_2  and  O_3
REMARK    3  A    between atoms: O_3  and  C_4
REMARK    4  A    between atoms: C_8  and  C_9
REMARK    5  A    between atoms: N_11  and  C_12
REMARK                            x       y       z     vdW  Elec       q    Type
REMARK                         _______ _______ _______ _____ _____    ______ ____
ROOT
ATOM      1  C   UNL     1       2.341   8.094  18.282  0.00  0.00    +0.000 C 
ATOM      2  O   UNL     1       2.454   8.921  17.383  0.00  0.00    +0.000 OA
ATOM      3  N   UNL     1       1.620   8.259  19.455  0.00  0.00    +0.000 N 
ATOM      4  H   UNL     1       1.532   7.467  20.080  0.00  0.00    +0.000 HD
ENDROOT
BRANCH   3   5
ATOM      5  C   UNL     1       0.871   9.409  19.794  0.00  0.00    +0.000 A 
ATOM      6  C   UNL     1       0.151  10.154  18.854  0.00  0.00    +0.000 A 
ATOM      7  C   UNL     1      -0.725  11.163  19.258  0.00  0.00    +0.000 A 
ATOM      8  C   UNL     1      -0.897  11.425  20.609  0.00  0.00    +0.000 A 
ATOM      9  C   UNL     1      -0.096  10.767  21.542  0.00  0.00    +0.000 A 
ATOM     10  C   UNL     1       0.803   9.777  21.141  0.00  0.00    +0.000 A 
ATOM     11  O   UNL     1      -0.196  11.027  22.885  0.00  0.00    +0.000 OA
ATOM     12  C   UNL     1      -1.569  11.262  23.193  0.00  0.00    +0.000 C 
ATOM     13  C   UNL     1      -2.174  12.374  22.340  0.00  0.00    +0.000 C 
ATOM     14  O   UNL     1      -1.890  12.297  20.941  0.00  0.00    +0.000 OA
ENDBRANCH   3   5
BRANCH   1  19
ATOM     15  C   UNL     1       3.377   4.436  18.509  0.00  0.00    +0.000 A 
ATOM     16  C   UNL     1       4.438   4.438  17.596  0.00  0.00    +0.000 A 
ATOM     17  C   UNL     1       4.786   5.607  16.920  0.00  0.00    +0.000 A 
ATOM     18  C   UNL     1       4.090   6.778  17.167  0.00  0.00    +0.000 A 
ATOM     19  C   UNL     1       3.039   6.797  18.096  0.00  0.00    +0.000 A 
ATOM     20  C   UNL     1       2.667   5.615  18.754  0.00  0.00    +0.000 A 
BRANCH  15  21
ATOM     21  O   UNL     1       3.141   3.220  19.082  0.00  0.00    +0.000 OA
BRANCH  21  23
ATOM     22  C   UNL     1       0.894   2.485  18.791  0.00  0.00    +0.000 C 
ATOM     23  C   UNL     1       2.337   2.291  18.360  0.00  0.00    +0.000 C 
ENDBRANCH  21  23
ENDBRANCH  15  21
ENDBRANCH   1  19
TORSDOF 4
ENDMDL
MODEL 9
REMARK VINA RESULT:      -6.9      4.988      7.224
REMARK  Name = 
REMARK  5 active torsions:
REMARK  status: ('A' for Active; 'I' for Inactive)
REMARK    1  A    between atoms: C_1  and  C_2
REMARK    2  A    between atoms: C_2  and  O_3
REMARK    3  A    between atoms: O_3  and  C_4
REMARK    4  A    between atoms: C_8  and  C_9
REMARK    5  A    between atoms: N_11  and  C_12
REMARK                            x       y       z     vdW  Elec       q    Type
REMARK                         _______ _______ _______ _____ _____    ______ ____
ROOT
ATOM      1  C   UNL     1       2.329   7.499  18.590  0.00  0.00    +0.000 C 
ATOM      2  O   UNL     1       2.261   7.584  19.811  0.00  0.00    +0.000 OA
ATOM      3  N   UNL     1       1.923   8.465  17.681  0.00  0.00    +0.000 N 
ATOM      4  H   UNL     1       2.113   8.310  16.698  0.00  0.00    +0.000 HD
ENDROOT
BRANCH   3   5
ATOM      5  C   UNL     1       1.381   9.725  18.022  0.00  0.00    +0.000 A 
ATOM      6  C   UNL     1       0.033   9.912  18.349  0.00  0.00    +0.000 A 
ATOM      7  C   UNL     1      -0.418  11.130  18.862  0.00  0.00    +0.000 A 
ATOM      8  C   UNL     1       0.482  12.166  19.066  0.00  0.00    +0.000 A 
ATOM      9  C   UNL     1       1.799  12.024  18.633  0.00  0.00    +0.000 A 
ATOM     10  C   UNL     1       2.249  10.819  18.091  0.00  0.00    +0.000 A 
ATOM     11  O   UNL     1       2.712  13.039  18.768  0.00  0.00    +0.000 OA
ATOM     12  C   UNL     1       2.456  13.709  20.002  0.00  0.00    +0.000 C 
ATOM     13  C   UNL     1       1.018  14.206  20.104  0.00  0.00    +0.000 C 
ATOM     14  O   UNL     1       0.013  13.261  19.728  0.00  0.00    +0.000 OA
ENDBRANCH   3   5
BRANCH   1  19
ATOM     15  C   UNL     1       4.653   4.939  16.992  0.00  0.00    +0.000 A 
ATOM     16  C   UNL     1       3.835   3.805  17.066  0.00  0.00    +0.000 A 
ATOM     17  C   UNL     1       2.566   3.886  17.638  0.00  0.00    +0.000 A 
ATOM     18  C   UNL     1       2.104   5.099  18.119  0.00  0.00    +0.000 A 
ATOM     19  C   UNL     1       2.903   6.249  18.032  0.00  0.00    +0.000 A 
ATOM     20  C   UNL     1       4.191   6.163  17.485  0.00  0.00    +0.000 A 
BRANCH  15  21
ATOM     21  O   UNL     1       5.871   4.708  16.421  0.00  0.00    +0.000 OA
BRANCH  21  23
ATOM     22  C   UNL     1       6.099   4.052  14.143  0.00  0.00    +0.000 C 
ATOM     23  C   UNL     1       6.098   5.221  15.111  0.00  0.00    +0.000 C 
ENDBRANCH  21  23
ENDBRANCH  15  21
ENDBRANCH   1  19
TORSDOF 4
ENDMDL
