MODEL 1
REMARK VINA RESULT:      -7.4      0.000      0.000
REMARK  Name = 
REMARK  9 active torsions:
REMARK  status: ('A' for Active; 'I' for Inactive)
REMARK    1  A    between atoms: C_1  and  C_2
REMARK    2  A    between atoms: C_3  and  C_4
REMARK    3  A    between atoms: C_4  and  C_5
REMARK    4  A    between atoms: C_4  and  C_9
REMARK    5  A    between atoms: C_5  and  C_6
REMARK    6  A    between atoms: C_6  and  O_8
REMARK    7  A    between atoms: C_12  and  O_13
REMARK    8  A    between atoms: O_13  and  C_14
REMARK    9  A    between atoms: C_14  and  C_15
REMARK                            x       y       z     vdW  Elec       q    Type
REMARK                         _______ _______ _______ _____ _____    ______ ____
ROOT
ATOM      1  C   UNL     1       9.337  11.413  19.162  0.00  0.00    +0.000 A 
ATOM      2  C   UNL     1       9.512  10.104  19.635  0.00  0.00    +0.000 A 
ATOM      3  C   UNL     1       8.996   9.020  18.940  0.00  0.00    +0.000 A 
ATOM      4  C   UNL     1       8.214   9.175  17.799  0.00  0.00    +0.000 A 
ATOM      5  C   UNL     1       8.026  10.493  17.313  0.00  0.00    +0.000 A 
ATOM      6  C   UNL     1       8.573  11.589  18.002  0.00  0.00    +0.000 A 
ENDROOT
BRANCH   1   7
ATOM      7  C   UNL     1       9.995  12.600  19.861  0.00  0.00    +0.000 C 
BRANCH   7  10
ATOM      8  C   UNL     1       8.725  12.688  24.015  0.00  0.00    +0.000 C 
ATOM      9  C   UNL     1       9.170  12.658  22.562  0.00  0.00    +0.000 C 
ATOM     10  C   UNL     1       9.550  12.631  21.314  0.00  0.00    +0.000 C 
ENDBRANCH   7  10
BRANCH   7  11
ATOM     11  C   UNL     1      11.524  12.491  19.821  0.00  0.00    +0.000 C 
BRANCH  11  12
ATOM     12  C   UNL     1      12.097  13.098  18.565  0.00  0.00    +0.000 C 
ATOM     13  O   UNL     1      12.317  14.293  18.429  0.00  0.00    +0.000 OA
BRANCH  12  14
ATOM     14  O   UNL     1      12.332  12.202  17.581  0.00  0.00    +0.000 OA
ATOM     15  H   UNL     1      11.650  12.187  16.880  0.00  0.00    +0.000 HD
ENDBRANCH  12  14
ENDBRANCH  11  12
ENDBRANCH   7  11
ENDBRANCH   1   7
BRANCH   4  16
ATOM     16  O   UNL     1       7.623   8.106  17.174  0.00  0.00    +0.000 OA
BRANCH  16  17
ATOM     17  C   UNL     1       7.537   6.942  18.025  0.00  0.00    +0.000 C 
BRANCH  17  18
ATOM     18  C   UNL     1       6.314   6.074  17.710  0.00  0.00    +0.000 C 
ATOM     19  C   UNL     1       6.652   4.798  16.935  0.00  0.00    +0.000 C 
ATOM     20  O   UNL     1       5.552   3.872  16.815  0.00  0.00    +0.000 OA
ATOM     21  C   UNL     1       4.611   3.957  17.802  0.00  0.00    +0.000 A 
ATOM     22  C   UNL     1       3.521   3.083  17.735  0.00  0.00    +0.000 A 
ATOM     23  C   UNL     1       2.469   3.200  18.655  0.00  0.00    +0.000 A 
ATOM     24 CL   UNL     1       1.059   2.229  18.410  0.00  0.00    +0.000 Cl
ATOM     25  C   UNL     1       2.557   4.127  19.701  0.00  0.00    +0.000 A 
ATOM     26 CL   UNL     1       1.326   4.303  20.901  0.00  0.00    +0.000 Cl
ATOM     27  C   UNL     1       3.672   4.960  19.796  0.00  0.00    +0.000 A 
ATOM     28  C   UNL     1       4.677   4.890  18.835  0.00  0.00    +0.000 A 
ATOM     29  O   UNL     1       5.719   5.759  18.982  0.00  0.00    +0.000 OA
ENDBRANCH  17  18
ENDBRANCH  16  17
ENDBRANCH   4  16
TORSDOF 8
ENDMDL
MODEL 2
REMARK VINA RESULT:      -7.4      7.461     10.643
REMARK  Name = 
REMARK  9 active torsions:
REMARK  status: ('A' for Active; 'I' for Inactive)
REMARK    1  A    between atoms: C_1  and  C_2
REMARK    2  A    between atoms: C_3  and  C_4
REMARK    3  A    between atoms: C_4  and  C_5
REMARK    4  A    between atoms: C_4  and  C_9
REMARK    5  A    between atoms: C_5  and  C_6
REMARK    6  A    between atoms: C_6  and  O_8
REMARK    7  A    between atoms: C_12  and  O_13
REMARK    8  A    between atoms: O_13  and  C_14
REMARK    9  A    between atoms: C_14  and  C_15
REMARK                            x       y       z     vdW  Elec       q    Type
REMARK                         _______ _______ _______ _____ _____    ______ ____
ROOT
ATOM      1  C   UNL     1       2.739   6.963  19.145  0.00  0.00    +0.000 A 
ATOM      2  C   UNL     1       2.727   7.714  17.960  0.00  0.00    +0.000 A 
ATOM      3  C   UNL     1       2.063   8.930  17.893  0.00  0.00    +0.000 A 
ATOM      4  C   UNL     1       1.311   9.423  18.955  0.00  0.00    +0.000 A 
ATOM      5  C   UNL     1       1.311   8.673  20.157  0.00  0.00    +0.000 A 
ATOM      6  C   UNL     1       2.008   7.454  20.233  0.00  0.00    +0.000 A 
ENDROOT
BRANCH   1   7
ATOM      7  C   UNL     1       3.558   5.680  19.259  0.00  0.00    +0.000 C 
BRANCH   7  10
ATOM      8  C   UNL     1       1.338   2.781  21.612  0.00  0.00    +0.000 C 
ATOM      9  C   UNL     1       2.114   3.795  20.789  0.00  0.00    +0.000 C 
ATOM     10  C   UNL     1       2.782   4.666  20.083  0.00  0.00    +0.000 C 
ENDBRANCH   7  10
BRANCH   7  11
ATOM     11  C   UNL     1       3.839   5.075  17.878  0.00  0.00    +0.000 C 
BRANCH  11  12
ATOM     12  C   UNL     1       4.519   3.733  17.980  0.00  0.00    +0.000 C 
ATOM     13  O   UNL     1       4.053   2.701  17.516  0.00  0.00    +0.000 OA
BRANCH  12  14
ATOM     14  O   UNL     1       5.689   3.761  18.654  0.00  0.00    +0.000 OA
ATOM     15  H   UNL     1       5.595   3.695  19.625  0.00  0.00    +0.000 HD
ENDBRANCH  12  14
ENDBRANCH  11  12
ENDBRANCH   7  11
ENDBRANCH   1   7
BRANCH   4  16
ATOM     16  O   UNL     1       0.574  10.577  18.849  0.00  0.00    +0.000 OA
BRANCH  16  17
ATOM     17  C   UNL     1       0.710  11.432  20.004  0.00  0.00    +0.000 C 
BRANCH  17  18
ATOM     18  C   UNL     1      -0.576  12.203  20.318  0.00  0.00    +0.000 C 
ATOM     19  C   UNL     1      -1.592  12.191  19.173  0.00  0.00    +0.000 C 
ATOM     20  O   UNL     1      -2.884  12.727  19.526  0.00  0.00    +0.000 OA
ATOM     21  C   UNL     1      -3.205  12.646  20.852  0.00  0.00    +0.000 A 
ATOM     22  C   UNL     1      -4.446  13.153  21.251  0.00  0.00    +0.000 A 
ATOM     23  C   UNL     1      -4.782  13.200  22.611  0.00  0.00    +0.000 A 
ATOM     24 CL   UNL     1      -6.240  14.012  23.065  0.00  0.00    +0.000 Cl
ATOM     25  C   UNL     1      -3.915  12.649  23.562  0.00  0.00    +0.000 A 
ATOM     26 CL   UNL     1      -4.273  12.626  25.254  0.00  0.00    +0.000 Cl
ATOM     27  C   UNL     1      -2.701  12.095  23.155  0.00  0.00    +0.000 A 
ATOM     28  C   UNL     1      -2.341  12.121  21.810  0.00  0.00    +0.000 A 
ATOM     29  O   UNL     1      -1.125  11.586  21.496  0.00  0.00    +0.000 OA
ENDBRANCH  17  18
ENDBRANCH  16  17
ENDBRANCH   4  16
TORSDOF 8
ENDMDL
MODEL 3
REMARK VINA RESULT:      -7.4      5.735      9.060
REMARK  Name = 
REMARK  9 active torsions:
REMARK  status: ('A' for Active; 'I' for Inactive)
REMARK    1  A    between atoms: C_1  and  C_2
REMARK    2  A    between atoms: C_3  and  C_4
REMARK    3  A    between atoms: C_4  and  C_5
REMARK    4  A    between atoms: C_4  and  C_9
REMARK    5  A    between atoms: C_5  and  C_6
REMARK    6  A    between atoms: C_6  and  O_8
REMARK    7  A    between atoms: C_12  and  O_13
REMARK    8  A    between atoms: O_13  and  C_14
REMARK    9  A    between atoms: C_14  and  C_15
REMARK                            x       y       z     vdW  Elec       q    Type
REMARK                         _______ _______ _______ _____ _____    ______ ____
ROOT
ATOM      1  C   UNL     1       5.018   5.513  17.516  0.00  0.00    +0.000 A 
ATOM      2  C   UNL     1       4.862   6.772  16.917  0.00  0.00    +0.000 A 
ATOM      3  C   UNL     1       3.820   7.611  17.283  0.00  0.00    +0.000 A 
ATOM      4  C   UNL     1       2.837   7.221  18.187  0.00  0.00    +0.000 A 
ATOM      5  C   UNL     1       2.980   5.951  18.797  0.00  0.00    +0.000 A 
ATOM      6  C   UNL     1       4.052   5.111  18.447  0.00  0.00    +0.000 A 
ENDROOT
BRANCH   1   7
ATOM      7  C   UNL     1       6.223   4.631  17.199  0.00  0.00    +0.000 C 
BRANCH   7  10
ATOM      8  C   UNL     1       6.121   3.538  12.996  0.00  0.00    +0.000 C 
ATOM      9  C   UNL     1       6.157   3.920  14.466  0.00  0.00    +0.000 C 
ATOM     10  C   UNL     1       6.187   4.248  15.729  0.00  0.00    +0.000 C 
ENDBRANCH   7  10
BRANCH   7  11
ATOM     11  C   UNL     1       7.540   5.366  17.480  0.00  0.00    +0.000 C 
BRANCH  11  12
ATOM     12  C   UNL     1       7.687   5.715  18.940  0.00  0.00    +0.000 C 
ATOM     13  O   UNL     1       7.206   5.049  19.847  0.00  0.00    +0.000 OA
BRANCH  12  14
ATOM     14  O   UNL     1       8.387   6.848  19.165  0.00  0.00    +0.000 OA
ATOM     15  H   UNL     1       9.133   6.742  19.789  0.00  0.00    +0.000 HD
ENDBRANCH  12  14
ENDBRANCH  11  12
ENDBRANCH   7  11
ENDBRANCH   1   7
BRANCH   4  16
ATOM     16  O   UNL     1       1.754   8.016  18.469  0.00  0.00    +0.000 OA
BRANCH  16  17
ATOM     17  C   UNL     1       1.870   9.337  17.896  0.00  0.00    +0.000 C 
BRANCH  17  18
ATOM     18  C   UNL     1       1.730  10.445  18.945  0.00  0.00    +0.000 C 
ATOM     19  C   UNL     1       2.035  11.843  18.403  0.00  0.00    +0.000 C 
ATOM     20  O   UNL     1       1.706  12.914  19.313  0.00  0.00    +0.000 OA
ATOM     21  C   UNL     1       0.721  12.627  20.215  0.00  0.00    +0.000 A 
ATOM     22  C   UNL     1       0.363  13.629  21.124  0.00  0.00    +0.000 A 
ATOM     23  C   UNL     1      -0.560  13.355  22.144  0.00  0.00    +0.000 A 
ATOM     24 CL   UNL     1      -0.821  14.563  23.353  0.00  0.00    +0.000 Cl
ATOM     25  C   UNL     1      -1.197  12.109  22.192  0.00  0.00    +0.000 A 
ATOM     26 CL   UNL     1      -2.378  11.708  23.388  0.00  0.00    +0.000 Cl
ATOM     27  C   UNL     1      -0.876  11.130  21.250  0.00  0.00    +0.000 A 
ATOM     28  C   UNL     1       0.097  11.384  20.287  0.00  0.00    +0.000 A 
ATOM     29  O   UNL     1       0.374  10.365  19.422  0.00  0.00    +0.000 OA
ENDBRANCH  17  18
ENDBRANCH  16  17
ENDBRANCH   4  16
TORSDOF 8
ENDMDL
MODEL 4
REMARK VINA RESULT:      -7.4      4.881     10.315
REMARK  Name = 
REMARK  9 active torsions:
REMARK  status: ('A' for Active; 'I' for Inactive)
REMARK    1  A    between atoms: C_1  and  C_2
REMARK    2  A    between atoms: C_3  and  C_4
REMARK    3  A    between atoms: C_4  and  C_5
REMARK    4  A    between atoms: C_4  and  C_9
REMARK    5  A    between atoms: C_5  and  C_6
REMARK    6  A    between atoms: C_6  and  O_8
REMARK    7  A    between atoms: C_12  and  O_13
REMARK    8  A    between atoms: O_13  and  C_14
REMARK    9  A    between atoms: C_14  and  C_15
REMARK                            x       y       z     vdW  Elec       q    Type
REMARK                         _______ _______ _______ _____ _____    ______ ____
ROOT
ATOM      1  C   UNL     1       6.655   5.672  17.213  0.00  0.00    +0.000 A 
ATOM      2  C   UNL     1       6.589   6.983  16.719  0.00  0.00    +0.000 A 
ATOM      3  C   UNL     1       7.352   7.996  17.280  0.00  0.00    +0.000 A 
ATOM      4  C   UNL     1       8.147   7.789  18.403  0.00  0.00    +0.000 A 
ATOM      5  C   UNL     1       8.221   6.471  18.916  0.00  0.00    +0.000 A 
ATOM      6  C   UNL     1       7.469   5.438  18.329  0.00  0.00    +0.000 A 
ENDROOT
BRANCH   1   7
ATOM      7  C   UNL     1       5.904   4.531  16.532  0.00  0.00    +0.000 C 
BRANCH   7  10
ATOM      8  C   UNL     1       2.283   3.674  18.775  0.00  0.00    +0.000 C 
ATOM      9  C   UNL     1       3.550   3.974  17.990  0.00  0.00    +0.000 C 
ATOM     10  C   UNL     1       4.637   4.231  17.316  0.00  0.00    +0.000 C 
ENDBRANCH   7  10
BRANCH   7  11
ATOM     11  C   UNL     1       5.512   4.903  15.096  0.00  0.00    +0.000 C 
BRANCH  11  12
ATOM     12  C   UNL     1       6.578   4.509  14.104  0.00  0.00    +0.000 C 
ATOM     13  O   UNL     1       7.487   5.251  13.757  0.00  0.00    +0.000 OA
BRANCH  12  14
ATOM     14  O   UNL     1       6.432   3.261  13.609  0.00  0.00    +0.000 OA
ATOM     15  H   UNL     1       6.916   2.573  14.108  0.00  0.00    +0.000 HD
ENDBRANCH  12  14
ENDBRANCH  11  12
ENDBRANCH   7  11
ENDBRANCH   1   7
BRANCH   4  16
ATOM     16  O   UNL     1       8.820   8.818  19.015  0.00  0.00    +0.000 OA
BRANCH  16  17
ATOM     17  C   UNL     1       8.833  10.024  18.221  0.00  0.00    +0.000 C 
BRANCH  17  18
ATOM     18  C   UNL     1       9.271  11.252  19.026  0.00  0.00    +0.000 C 
ATOM     19  C   UNL     1      10.538  11.022  19.853  0.00  0.00    +0.000 C 
ATOM     20  O   UNL     1      11.081  12.220  20.447  0.00  0.00    +0.000 OA
ATOM     21  C   UNL     1      10.779  13.380  19.793  0.00  0.00    +0.000 A 
ATOM     22  C   UNL     1      11.278  14.574  20.326  0.00  0.00    +0.000 A 
ATOM     23  C   UNL     1      10.908  15.804  19.763  0.00  0.00    +0.000 A 
ATOM     24 CL   UNL     1      11.392  17.251  20.575  0.00  0.00    +0.000 Cl
ATOM     25  C   UNL     1      10.119  15.832  18.607  0.00  0.00    +0.000 A 
ATOM     26 CL   UNL     1       9.656  17.303  17.826  0.00  0.00    +0.000 Cl
ATOM     27  C   UNL     1       9.667  14.637  18.047  0.00  0.00    +0.000 A 
ATOM     28  C   UNL     1       9.976  13.423  18.655  0.00  0.00    +0.000 A 
ATOM     29  O   UNL     1       9.472  12.301  18.062  0.00  0.00    +0.000 OA
ENDBRANCH  17  18
ENDBRANCH  16  17
ENDBRANCH   4  16
TORSDOF 8
ENDMDL
MODEL 5
REMARK VINA RESULT:      -7.3      7.602     10.687
REMARK  Name = 
REMARK  9 active torsions:
REMARK  status: ('A' for Active; 'I' for Inactive)
REMARK    1  A    between atoms: C_1  and  C_2
REMARK    2  A    between atoms: C_3  and  C_4
REMARK    3  A    between atoms: C_4  and  C_5
REMARK    4  A    between atoms: C_4  and  C_9
REMARK    5  A    between atoms: C_5  and  C_6
REMARK    6  A    between atoms: C_6  and  O_8
REMARK    7  A    between atoms: C_12  and  O_13
REMARK    8  A    between atoms: O_13  and  C_14
REMARK    9  A    between atoms: C_14  and  C_15
REMARK                            x       y       z     vdW  Elec       q    Type
REMARK                         _______ _______ _______ _____ _____    ______ ____
ROOT
ATOM      1  C   UNL     1       2.546   7.192  19.118  0.00  0.00    +0.000 A 
ATOM      2  C   UNL     1       2.532   7.912  17.913  0.00  0.00    +0.000 A 
ATOM      3  C   UNL     1       1.874   9.128  17.817  0.00  0.00    +0.000 A 
ATOM      4  C   UNL     1       1.127   9.652  18.868  0.00  0.00    +0.000 A 
ATOM      5  C   UNL     1       1.128   8.934  20.089  0.00  0.00    +0.000 A 
ATOM      6  C   UNL     1       1.820   7.715  20.195  0.00  0.00    +0.000 A 
ENDROOT
BRANCH   1   7
ATOM      7  C   UNL     1       3.360   5.909  19.263  0.00  0.00    +0.000 C 
BRANCH   7  10
ATOM      8  C   UNL     1       0.718   2.491  18.805  0.00  0.00    +0.000 C 
ATOM      9  C   UNL     1       1.642   3.687  18.965  0.00  0.00    +0.000 C 
ATOM     10  C   UNL     1       2.436   4.713  19.102  0.00  0.00    +0.000 C 
ENDBRANCH   7  10
BRANCH   7  11
ATOM     11  C   UNL     1       4.459   5.824  18.196  0.00  0.00    +0.000 C 
BRANCH  11  12
ATOM     12  C   UNL     1       5.357   4.632  18.409  0.00  0.00    +0.000 C 
ATOM     13  O   UNL     1       6.066   4.486  19.395  0.00  0.00    +0.000 OA
BRANCH  12  14
ATOM     14  O   UNL     1       5.329   3.736  17.398  0.00  0.00    +0.000 OA
ATOM     15  H   UNL     1       4.601   3.875  16.759  0.00  0.00    +0.000 HD
ENDBRANCH  12  14
ENDBRANCH  11  12
ENDBRANCH   7  11
ENDBRANCH   1   7
BRANCH   4  16
ATOM     16  O   UNL     1       0.395  10.806  18.734  0.00  0.00    +0.000 OA
BRANCH  16  17
ATOM     17  C   UNL     1       0.316  11.561  19.962  0.00  0.00    +0.000 C 
BRANCH  17  18
ATOM     18  C   UNL     1      -1.117  11.663  20.496  0.00  0.00    +0.000 C 
ATOM     19  C   UNL     1      -1.288  12.718  21.591  0.00  0.00    +0.000 C 
ATOM     20  O   UNL     1      -2.660  12.974  21.955  0.00  0.00    +0.000 OA
ATOM     21  C   UNL     1      -3.579  12.711  20.978  0.00  0.00    +0.000 A 
ATOM     22  C   UNL     1      -4.926  12.940  21.277  0.00  0.00    +0.000 A 
ATOM     23  C   UNL     1      -5.921  12.581  20.355  0.00  0.00    +0.000 A 
ATOM     24 CL   UNL     1      -7.573  12.703  20.850  0.00  0.00    +0.000 Cl
ATOM     25  C   UNL     1      -5.559  12.086  19.097  0.00  0.00    +0.000 A 
ATOM     26 CL   UNL     1      -6.721  11.663  17.888  0.00  0.00    +0.000 Cl
ATOM     27  C   UNL     1      -4.211  11.910  18.783  0.00  0.00    +0.000 A 
ATOM     28  C   UNL     1      -3.232  12.197  19.730  0.00  0.00    +0.000 A 
ATOM     29  O   UNL     1      -1.940  11.970  19.356  0.00  0.00    +0.000 OA
ENDBRANCH  17  18
ENDBRANCH  16  17
ENDBRANCH   4  16
TORSDOF 8
ENDMDL
MODEL 6
REMARK VINA RESULT:      -7.3      7.500     10.540
REMARK  Name = 
REMARK  9 active torsions:
REMARK  status: ('A' for Active; 'I' for Inactive)
REMARK    1  A    between atoms: C_1  and  C_2
REMARK    2  A    between atoms: C_3  and  C_4
REMARK    3  A    between atoms: C_4  and  C_5
REMARK    4  A    between atoms: C_4  and  C_9
REMARK    5  A    between atoms: C_5  and  C_6
REMARK    6  A    between atoms: C_6  and  O_8
REMARK    7  A    between atoms: C_12  and  O_13
REMARK    8  A    between atoms: O_13  and  C_14
REMARK    9  A    between atoms: C_14  and  C_15
REMARK                            x       y       z     vdW  Elec       q    Type
REMARK                         _______ _______ _______ _____ _____    ______ ____
ROOT
ATOM      1  C   UNL     1      -2.580  11.066  17.591  0.00  0.00    +0.000 A 
ATOM      2  C   UNL     1      -1.790  10.011  17.108  0.00  0.00    +0.000 A 
ATOM      3  C   UNL     1      -0.686   9.565  17.818  0.00  0.00    +0.000 A 
ATOM      4  C   UNL     1      -0.255  10.186  18.987  0.00  0.00    +0.000 A 
ATOM      5  C   UNL     1      -1.041  11.255  19.484  0.00  0.00    +0.000 A 
ATOM      6  C   UNL     1      -2.177  11.689  18.778  0.00  0.00    +0.000 A 
ENDROOT
BRANCH   1   7
ATOM      7  C   UNL     1      -3.858  11.489  16.872  0.00  0.00    +0.000 C 
BRANCH   7  10
ATOM      8  C   UNL     1      -3.920   9.703  12.912  0.00  0.00    +0.000 C 
ATOM      9  C   UNL     1      -3.898  10.327  14.298  0.00  0.00    +0.000 C 
ATOM     10  C   UNL     1      -3.880  10.864  15.486  0.00  0.00    +0.000 C 
ENDBRANCH   7  10
BRANCH   7  11
ATOM     11  C   UNL     1      -5.105  11.025  17.636  0.00  0.00    +0.000 C 
BRANCH  11  12
ATOM     12  C   UNL     1      -6.033  12.173  17.945  0.00  0.00    +0.000 C 
ATOM     13  O   UNL     1      -7.199  12.217  17.580  0.00  0.00    +0.000 OA
BRANCH  12  14
ATOM     14  O   UNL     1      -5.456  13.171  18.650  0.00  0.00    +0.000 OA
ATOM     15  H   UNL     1      -4.657  13.548  18.231  0.00  0.00    +0.000 HD
ENDBRANCH  12  14
ENDBRANCH  11  12
ENDBRANCH   7  11
ENDBRANCH   1   7
BRANCH   4  16
ATOM     16  O   UNL     1       0.896   9.804  19.630  0.00  0.00    +0.000 OA
BRANCH  16  17
ATOM     17  C   UNL     1       1.994   9.583  18.719  0.00  0.00    +0.000 C 
BRANCH  17  18
ATOM     18  C   UNL     1       2.178   8.102  18.370  0.00  0.00    +0.000 C 
ATOM     19  C   UNL     1       3.464   7.811  17.593  0.00  0.00    +0.000 C 
ATOM     20  O   UNL     1       3.756   6.406  17.441  0.00  0.00    +0.000 OA
ATOM     21  C   UNL     1       3.231   5.595  18.408  0.00  0.00    +0.000 A 
ATOM     22  C   UNL     1       3.481   4.223  18.309  0.00  0.00    +0.000 A 
ATOM     23  C   UNL     1       2.875   3.331  19.206  0.00  0.00    +0.000 A 
ATOM     24 CL   UNL     1       3.060   1.636  18.922  0.00  0.00    +0.000 Cl
ATOM     25  C   UNL     1       2.097   3.825  20.260  0.00  0.00    +0.000 A 
ATOM     26 CL   UNL     1       1.352   2.797  21.434  0.00  0.00    +0.000 Cl
ATOM     27  C   UNL     1       1.894   5.199  20.387  0.00  0.00    +0.000 A 
ATOM     28  C   UNL     1       2.437   6.073  19.448  0.00  0.00    +0.000 A 
ATOM     29  O   UNL     1       2.168   7.399  19.626  0.00  0.00    +0.000 OA
ENDBRANCH  17  18
ENDBRANCH  16  17
ENDBRANCH   4  16
TORSDOF 8
ENDMDL
MODEL 7
REMARK VINA RESULT:      -7.3      7.086     10.619
REMARK  Name = 
REMARK  9 active torsions:
REMARK  status: ('A' for Active; 'I' for Inactive)
REMARK    1  A    between atoms: C_1  and  C_2
REMARK    2  A    between atoms: C_3  and  C_4
REMARK    3  A    between atoms: C_4  and  C_5
REMARK    4  A    between atoms: C_4  and  C_9
REMARK    5  A    between atoms: C_5  and  C_6
REMARK    6  A    between atoms: C_6  and  O_8
REMARK    7  A    between atoms: C_12  and  O_13
REMARK    8  A    between atoms: O_13  and  C_14
REMARK    9  A    between atoms: C_14  and  C_15
REMARK                            x       y       z     vdW  Elec       q    Type
REMARK                         _______ _______ _______ _____ _____    ______ ____
ROOT
ATOM      1  C   UNL     1       2.734   6.925  19.334  0.00  0.00    +0.000 A 
ATOM      2  C   UNL     1       1.995   7.361  20.444  0.00  0.00    +0.000 A 
ATOM      3  C   UNL     1       1.193   8.490  20.368  0.00  0.00    +0.000 A 
ATOM      4  C   UNL     1       1.144   9.289  19.230  0.00  0.00    +0.000 A 
ATOM      5  C   UNL     1       1.888   8.863  18.102  0.00  0.00    +0.000 A 
ATOM      6  C   UNL     1       2.680   7.703  18.170  0.00  0.00    +0.000 A 
ENDROOT
BRANCH   1   7
ATOM      7  C   UNL     1       3.531   5.624  19.376  0.00  0.00    +0.000 C 
BRANCH   7  10
ATOM      8  C   UNL     1       1.322   2.676  21.679  0.00  0.00    +0.000 C 
ATOM      9  C   UNL     1       2.095   3.707  20.873  0.00  0.00    +0.000 C 
ATOM     10  C   UNL     1       2.758   4.593  20.182  0.00  0.00    +0.000 C 
ENDBRANCH   7  10
BRANCH   7  11
ATOM     11  C   UNL     1       3.763   5.068  17.966  0.00  0.00    +0.000 C 
BRANCH  11  12
ATOM     12  C   UNL     1       4.507   3.756  17.995  0.00  0.00    +0.000 C 
ATOM     13  O   UNL     1       4.042   2.705  17.576  0.00  0.00    +0.000 OA
BRANCH  12  14
ATOM     14  O   UNL     1       5.737   3.835  18.547  0.00  0.00    +0.000 OA
ATOM     15  H   UNL     1       6.066   4.749  18.665  0.00  0.00    +0.000 HD
ENDBRANCH  12  14
ENDBRANCH  11  12
ENDBRANCH   7  11
ENDBRANCH   1   7
BRANCH   4  16
ATOM     16  O   UNL     1       0.427  10.460  19.196  0.00  0.00    +0.000 OA
BRANCH  16  17
ATOM     17  C   UNL     1       1.250  11.623  19.430  0.00  0.00    +0.000 C 
BRANCH  17  18
ATOM     18  C   UNL     1       0.875  12.355  20.723  0.00  0.00    +0.000 C 
ATOM     19  C   UNL     1       1.238  13.842  20.711  0.00  0.00    +0.000 C 
ATOM     20  O   UNL     1       0.706  14.588  21.826  0.00  0.00    +0.000 OA
ATOM     21  C   UNL     1      -0.428  14.069  22.385  0.00  0.00    +0.000 A 
ATOM     22  C   UNL     1      -0.986  14.750  23.471  0.00  0.00    +0.000 A 
ATOM     23  C   UNL     1      -2.082  14.205  24.155  0.00  0.00    +0.000 A 
ATOM     24 CL   UNL     1      -2.610  14.986  25.605  0.00  0.00    +0.000 Cl
ATOM     25  C   UNL     1      -2.678  13.026  23.690  0.00  0.00    +0.000 A 
ATOM     26 CL   UNL     1      -4.058  12.313  24.448  0.00  0.00    +0.000 Cl
ATOM     27  C   UNL     1      -2.150  12.378  22.573  0.00  0.00    +0.000 A 
ATOM     28  C   UNL     1      -1.016  12.885  21.944  0.00  0.00    +0.000 A 
ATOM     29  O   UNL     1      -0.544  12.176  20.878  0.00  0.00    +0.000 OA
ENDBRANCH  17  18
ENDBRANCH  16  17
ENDBRANCH   4  16
TORSDOF 8
ENDMDL
MODEL 8
REMARK VINA RESULT:      -7.3      7.050     10.613
REMARK  Name = 
REMARK  9 active torsions:
REMARK  status: ('A' for Active; 'I' for Inactive)
REMARK    1  A    between atoms: C_1  and  C_2
REMARK    2  A    between atoms: C_3  and  C_4
REMARK    3  A    between atoms: C_4  and  C_5
REMARK    4  A    between atoms: C_4  and  C_9
REMARK    5  A    between atoms: C_5  and  C_6
REMARK    6  A    between atoms: C_6  and  O_8
REMARK    7  A    between atoms: C_12  and  O_13
REMARK    8  A    between atoms: O_13  and  C_14
REMARK    9  A    between atoms: C_14  and  C_15
REMARK                            x       y       z     vdW  Elec       q    Type
REMARK                         _______ _______ _______ _____ _____    ______ ____
ROOT
ATOM      1  C   UNL     1       2.847   5.432  18.884  0.00  0.00    +0.000 A 
ATOM      2  C   UNL     1       2.843   6.637  18.165  0.00  0.00    +0.000 A 
ATOM      3  C   UNL     1       2.349   7.803  18.729  0.00  0.00    +0.000 A 
ATOM      4  C   UNL     1       1.757   7.823  19.989  0.00  0.00    +0.000 A 
ATOM      5  C   UNL     1       1.750   6.613  20.726  0.00  0.00    +0.000 A 
ATOM      6  C   UNL     1       2.278   5.437  20.164  0.00  0.00    +0.000 A 
ENDROOT
BRANCH   1   7
ATOM      7  C   UNL     1       3.490   4.171  18.312  0.00  0.00    +0.000 C 
BRANCH   7  10
ATOM      8  C   UNL     1       5.834   5.234  14.811  0.00  0.00    +0.000 C 
ATOM      9  C   UNL     1       5.014   4.862  16.036  0.00  0.00    +0.000 C 
ATOM     10  C   UNL     1       4.310   4.543  17.087  0.00  0.00    +0.000 C 
ENDBRANCH   7  10
BRANCH   7  11
ATOM     11  C   UNL     1       4.417   3.506  19.336  0.00  0.00    +0.000 C 
BRANCH  11  12
ATOM     12  C   UNL     1       4.262   2.006  19.342  0.00  0.00    +0.000 C 
ATOM     13  O   UNL     1       3.376   1.415  18.742  0.00  0.00    +0.000 OA
BRANCH  12  14
ATOM     14  O   UNL     1       5.184   1.362  20.091  0.00  0.00    +0.000 OA
ATOM     15  H   UNL     1       5.568   0.571  19.663  0.00  0.00    +0.000 HD
ENDBRANCH  12  14
ENDBRANCH  11  12
ENDBRANCH   7  11
ENDBRANCH   1   7
BRANCH   4  16
ATOM     16  O   UNL     1       1.178   8.959  20.500  0.00  0.00    +0.000 OA
BRANCH  16  17
ATOM     17  C   UNL     1       0.422   9.690  19.512  0.00  0.00    +0.000 C 
BRANCH  17  18
ATOM     18  C   UNL     1       0.481  11.206  19.732  0.00  0.00    +0.000 C 
ATOM     19  C   UNL     1       0.543  11.608  21.207  0.00  0.00    +0.000 C 
ATOM     20  O   UNL     1       0.811  13.010  21.425  0.00  0.00    +0.000 OA
ATOM     21  C   UNL     1       1.490  13.635  20.418  0.00  0.00    +0.000 A 
ATOM     22  C   UNL     1       1.775  14.995  20.576  0.00  0.00    +0.000 A 
ATOM     23  C   UNL     1       2.369  15.715  19.529  0.00  0.00    +0.000 A 
ATOM     24 CL   UNL     1       2.520  17.429  19.700  0.00  0.00    +0.000 Cl
ATOM     25  C   UNL     1       2.766  15.049  18.363  0.00  0.00    +0.000 A 
ATOM     26 CL   UNL     1       3.544  15.854  17.045  0.00  0.00    +0.000 Cl
ATOM     27  C   UNL     1       2.529  13.681  18.232  0.00  0.00    +0.000 A 
ATOM     28  C   UNL     1       1.871  12.988  19.244  0.00  0.00    +0.000 A 
ATOM     29  O   UNL     1       1.650  11.659  19.027  0.00  0.00    +0.000 OA
ENDBRANCH  17  18
ENDBRANCH  16  17
ENDBRANCH   4  16
TORSDOF 8
ENDMDL
MODEL 9
REMARK VINA RESULT:      -7.3      5.813      8.270
REMARK  Name = 
REMARK  9 active torsions:
REMARK  status: ('A' for Active; 'I' for Inactive)
REMARK    1  A    between atoms: C_1  and  C_2
REMARK    2  A    between atoms: C_3  and  C_4
REMARK    3  A    between atoms: C_4  and  C_5
REMARK    4  A    between atoms: C_4  and  C_9
REMARK    5  A    between atoms: C_5  and  C_6
REMARK    6  A    between atoms: C_6  and  O_8
REMARK    7  A    between atoms: C_12  and  O_13
REMARK    8  A    between atoms: O_13  and  C_14
REMARK    9  A    between atoms: C_14  and  C_15
REMARK                            x       y       z     vdW  Elec       q    Type
REMARK                         _______ _______ _______ _____ _____    ______ ____
ROOT
ATOM      1  C   UNL     1       1.213   9.171  19.568  0.00  0.00    +0.000 A 
ATOM      2  C   UNL     1       1.300   8.310  20.672  0.00  0.00    +0.000 A 
ATOM      3  C   UNL     1       1.961   7.094  20.578  0.00  0.00    +0.000 A 
ATOM      4  C   UNL     1       2.490   6.629  19.378  0.00  0.00    +0.000 A 
ATOM      5  C   UNL     1       2.406   7.487  18.253  0.00  0.00    +0.000 A 
ATOM      6  C   UNL     1       1.760   8.731  18.356  0.00  0.00    +0.000 A 
ENDROOT
BRANCH   1   7
ATOM      7  C   UNL     1       0.584  10.556  19.694  0.00  0.00    +0.000 C 
BRANCH   7  10
ATOM      8  C   UNL     1      -2.691  10.893  16.859  0.00  0.00    +0.000 C 
ATOM      9  C   UNL     1      -1.545  10.775  17.851  0.00  0.00    +0.000 C 
ATOM     10  C   UNL     1      -0.561  10.674  18.702  0.00  0.00    +0.000 C 
ENDBRANCH   7  10
BRANCH   7  11
ATOM     11  C   UNL     1       0.034  10.791  21.106  0.00  0.00    +0.000 C 
BRANCH  11  12
ATOM     12  C   UNL     1      -0.248  12.250  21.363  0.00  0.00    +0.000 C 
ATOM     13  O   UNL     1      -1.367  12.740  21.325  0.00  0.00    +0.000 OA
BRANCH  12  14
ATOM     14  O   UNL     1       0.857  12.983  21.624  0.00  0.00    +0.000 OA
ATOM     15  H   UNL     1       1.331  13.292  20.826  0.00  0.00    +0.000 HD
ENDBRANCH  12  14
ENDBRANCH  11  12
ENDBRANCH   7  11
ENDBRANCH   1   7
BRANCH   4  16
ATOM     16  O   UNL     1       3.054   5.382  19.268  0.00  0.00    +0.000 OA
BRANCH  16  17
ATOM     17  C   UNL     1       4.483   5.397  19.471  0.00  0.00    +0.000 C 
BRANCH  17  18
ATOM     18  C   UNL     1       5.258   5.641  18.172  0.00  0.00    +0.000 C 
ATOM     19  C   UNL     1       6.776   5.683  18.363  0.00  0.00    +0.000 C 
ATOM     20  O   UNL     1       7.525   5.700  17.130  0.00  0.00    +0.000 OA
ATOM     21  C   UNL     1       6.892   5.139  16.058  0.00  0.00    +0.000 A 
ATOM     22  C   UNL     1       7.572   5.129  14.835  0.00  0.00    +0.000 A 
ATOM     23  C   UNL     1       6.929   4.671  13.677  0.00  0.00    +0.000 A 
ATOM     24 CL   UNL     1       7.742   4.861  12.163  0.00  0.00    +0.000 Cl
ATOM     25  C   UNL     1       5.640   4.130  13.762  0.00  0.00    +0.000 A 
ATOM     26 CL   UNL     1       4.796   3.502  12.391  0.00  0.00    +0.000 Cl
ATOM     27  C   UNL     1       4.986   4.092  14.994  0.00  0.00    +0.000 A 
ATOM     28  C   UNL     1       5.601   4.619  16.126  0.00  0.00    +0.000 A 
ATOM     29  O   UNL     1       4.883   4.571  17.286  0.00  0.00    +0.000 OA
ENDBRANCH  17  18
ENDBRANCH  16  17
ENDBRANCH   4  16
TORSDOF 8
ENDMDL
