MODEL 1
REMARK VINA RESULT:      -7.8      0.000      0.000
REMARK  Name = 
REMARK  6 active torsions:
REMARK  status: ('A' for Active; 'I' for Inactive)
REMARK    1  A    between atoms: C_1  and  O_2
REMARK    2  A    between atoms: O_2  and  C_3
REMARK    3  A    between atoms: C_6  and  C_7
REMARK    4  A    between atoms: C_7  and  C_8
REMARK    5  A    between atoms: C_8  and  N_9
REMARK    6  A    between atoms: N_20  and  C_21
REMARK                            x       y       z     vdW  Elec       q    Type
REMARK                         _______ _______ _______ _____ _____    ______ ____
ROOT
ATOM      1  N   UNL     1       4.618   4.768  18.113  0.00  0.00    +0.000 N 
ATOM      2  C   UNL     1       3.824   3.838  17.474  0.00  0.00    +0.000 A 
ATOM      3 BR   UNL     1       2.333   2.966  18.202  0.00  0.00    +0.000 Br
ATOM      4  N   UNL     1       4.243   3.603  16.246  0.00  0.00    +0.000 NA
ATOM      5  C   UNL     1       5.336   4.394  16.095  0.00  0.00    +0.000 A 
ATOM      6  C   UNL     1       5.605   5.110  17.228  0.00  0.00    +0.000 A 
ATOM      7  C   UNL     1       6.722   5.982  17.330  0.00  0.00    +0.000 A 
ATOM      8  O   UNL     1       7.065   6.573  18.347  0.00  0.00    +0.000 OA
ATOM      9  N   UNL     1       7.420   6.083  16.147  0.00  0.00    +0.000 N 
ATOM     10  C   UNL     1       7.204   5.368  14.981  0.00  0.00    +0.000 A 
ATOM     11  O   UNL     1       7.974   5.532  14.035  0.00  0.00    +0.000 OA
ATOM     12  N   UNL     1       6.122   4.492  14.969  0.00  0.00    +0.000 N 
ATOM     13  C   UNL     1       5.844   3.682  13.796  0.00  0.00    +0.000 C 
ATOM     14  H   UNL     1       8.229   6.685  16.147  0.00  0.00    +0.000 HD
ENDROOT
BRANCH   1  15
ATOM     15  C   UNL     1       4.430   5.309  19.447  0.00  0.00    +0.000 C 
BRANCH  15  16
ATOM     16  C   UNL     1       2.954   5.460  19.806  0.00  0.00    +0.000 C 
BRANCH  16  20
ATOM     17  C   UNL     1       1.439   9.385  18.804  0.00  0.00    +0.000 A 
ATOM     18  C   UNL     1       1.264   8.865  20.087  0.00  0.00    +0.000 A 
ATOM     19  C   UNL     1       1.754   7.598  20.415  0.00  0.00    +0.000 A 
ATOM     20  C   UNL     1       2.416   6.825  19.455  0.00  0.00    +0.000 A 
ATOM     21  C   UNL     1       2.560   7.337  18.158  0.00  0.00    +0.000 A 
ATOM     22  C   UNL     1       2.077   8.611  17.836  0.00  0.00    +0.000 A 
BRANCH  17  24
ATOM     23  C   UNL     1      -0.504  10.727  18.660  0.00  0.00    +0.000 C 
ATOM     24  O   UNL     1       0.915  10.633  18.604  0.00  0.00    +0.000 OA
ENDBRANCH  17  24
ENDBRANCH  16  20
ENDBRANCH  15  16
ENDBRANCH   1  15
TORSDOF 4
ENDMDL
MODEL 2
REMARK VINA RESULT:      -7.8      0.117      1.011
REMARK  Name = 
REMARK  6 active torsions:
REMARK  status: ('A' for Active; 'I' for Inactive)
REMARK    1  A    between atoms: C_1  and  O_2
REMARK    2  A    between atoms: O_2  and  C_3
REMARK    3  A    between atoms: C_6  and  C_7
REMARK    4  A    between atoms: C_7  and  C_8
REMARK    5  A    between atoms: C_8  and  N_9
REMARK    6  A    between atoms: N_20  and  C_21
REMARK                            x       y       z     vdW  Elec       q    Type
REMARK                         _______ _______ _______ _____ _____    ______ ____
ROOT
ATOM      1  N   UNL     1       4.687   4.761  18.041  0.00  0.00    +0.000 N 
ATOM      2  C   UNL     1       3.888   3.826  17.416  0.00  0.00    +0.000 A 
ATOM      3 BR   UNL     1       2.421   2.937  18.173  0.00  0.00    +0.000 Br
ATOM      4  N   UNL     1       4.282   3.599  16.178  0.00  0.00    +0.000 NA
ATOM      5  C   UNL     1       5.363   4.402  16.006  0.00  0.00    +0.000 A 
ATOM      6  C   UNL     1       5.651   5.116  17.137  0.00  0.00    +0.000 A 
ATOM      7  C   UNL     1       6.761   5.998  17.217  0.00  0.00    +0.000 A 
ATOM      8  O   UNL     1       7.120   6.589  18.228  0.00  0.00    +0.000 OA
ATOM      9  N   UNL     1       7.433   6.111  16.020  0.00  0.00    +0.000 N 
ATOM     10  C   UNL     1       7.197   5.398  14.856  0.00  0.00    +0.000 A 
ATOM     11  O   UNL     1       7.945   5.573  13.894  0.00  0.00    +0.000 OA
ATOM     12  N   UNL     1       6.124   4.512  14.864  0.00  0.00    +0.000 N 
ATOM     13  C   UNL     1       5.828   3.703  13.694  0.00  0.00    +0.000 C 
ATOM     14  H   UNL     1       8.235   6.720  16.004  0.00  0.00    +0.000 HD
ENDROOT
BRANCH   1  15
ATOM     15  C   UNL     1       4.523   5.295  19.381  0.00  0.00    +0.000 C 
BRANCH  15  16
ATOM     16  C   UNL     1       3.053   5.426  19.775  0.00  0.00    +0.000 C 
BRANCH  16  20
ATOM     17  C   UNL     1       1.412   9.305  18.794  0.00  0.00    +0.000 A 
ATOM     18  C   UNL     1       2.088   8.559  17.829  0.00  0.00    +0.000 A 
ATOM     19  C   UNL     1       2.618   7.303  18.142  0.00  0.00    +0.000 A 
ATOM     20  C   UNL     1       2.489   6.784  19.435  0.00  0.00    +0.000 A 
ATOM     21  C   UNL     1       1.840   7.552  20.410  0.00  0.00    +0.000 A 
ATOM     22  C   UNL     1       1.301   8.805  20.090  0.00  0.00    +0.000 A 
BRANCH  17  24
ATOM     23  C   UNL     1      -0.407  10.816  18.715  0.00  0.00    +0.000 C 
ATOM     24  O   UNL     1       0.941  10.517  18.368  0.00  0.00    +0.000 OA
ENDBRANCH  17  24
ENDBRANCH  16  20
ENDBRANCH  15  16
ENDBRANCH   1  15
TORSDOF 4
ENDMDL
MODEL 3
REMARK VINA RESULT:      -7.6      4.773      8.801
REMARK  Name = 
REMARK  6 active torsions:
REMARK  status: ('A' for Active; 'I' for Inactive)
REMARK    1  A    between atoms: C_1  and  O_2
REMARK    2  A    between atoms: O_2  and  C_3
REMARK    3  A    between atoms: C_6  and  C_7
REMARK    4  A    between atoms: C_7  and  C_8
REMARK    5  A    between atoms: C_8  and  N_9
REMARK    6  A    between atoms: N_20  and  C_21
REMARK                            x       y       z     vdW  Elec       q    Type
REMARK                         _______ _______ _______ _____ _____    ______ ____
ROOT
ATOM      1  N   UNL     1       0.759   9.477  20.718  0.00  0.00    +0.000 N 
ATOM      2  C   UNL     1       0.590   9.904  19.417  0.00  0.00    +0.000 A 
ATOM      3 BR   UNL     1       1.521   9.276  17.914  0.00  0.00    +0.000 Br
ATOM      4  N   UNL     1      -0.324  10.849  19.329  0.00  0.00    +0.000 NA
ATOM      5  C   UNL     1      -0.748  11.039  20.605  0.00  0.00    +0.000 A 
ATOM      6  C   UNL     1      -0.091  10.226  21.486  0.00  0.00    +0.000 A 
ATOM      7  C   UNL     1      -0.333  10.265  22.885  0.00  0.00    +0.000 A 
ATOM      8  O   UNL     1       0.290   9.630  23.727  0.00  0.00    +0.000 OA
ATOM      9  N   UNL     1      -1.349  11.133  23.219  0.00  0.00    +0.000 N 
ATOM     10  C   UNL     1      -2.030  11.992  22.374  0.00  0.00    +0.000 A 
ATOM     11  O   UNL     1      -2.866  12.757  22.855  0.00  0.00    +0.000 OA
ATOM     12  N   UNL     1      -1.705  11.937  21.021  0.00  0.00    +0.000 N 
ATOM     13  C   UNL     1      -2.352  12.827  20.072  0.00  0.00    +0.000 C 
ATOM     14  H   UNL     1      -1.574  11.214  24.198  0.00  0.00    +0.000 HD
ENDROOT
BRANCH   1  15
ATOM     15  C   UNL     1       1.637   8.418  21.184  0.00  0.00    +0.000 C 
BRANCH  15  16
ATOM     16  C   UNL     1       0.942   7.058  21.202  0.00  0.00    +0.000 C 
BRANCH  16  20
ATOM     17  C   UNL     1       3.078   4.094  18.888  0.00  0.00    +0.000 A 
ATOM     18  C   UNL     1       2.007   3.721  19.698  0.00  0.00    +0.000 A 
ATOM     19  C   UNL     1       1.312   4.677  20.446  0.00  0.00    +0.000 A 
ATOM     20  C   UNL     1       1.693   6.022  20.402  0.00  0.00    +0.000 A 
ATOM     21  C   UNL     1       2.791   6.388  19.612  0.00  0.00    +0.000 A 
ATOM     22  C   UNL     1       3.478   5.429  18.857  0.00  0.00    +0.000 A 
BRANCH  17  24
ATOM     23  C   UNL     1       3.400   1.759  18.684  0.00  0.00    +0.000 C 
ATOM     24  O   UNL     1       3.678   3.070  18.206  0.00  0.00    +0.000 OA
ENDBRANCH  17  24
ENDBRANCH  16  20
ENDBRANCH  15  16
ENDBRANCH   1  15
TORSDOF 4
ENDMDL
MODEL 4
REMARK VINA RESULT:      -7.6      4.699      8.811
REMARK  Name = 
REMARK  6 active torsions:
REMARK  status: ('A' for Active; 'I' for Inactive)
REMARK    1  A    between atoms: C_1  and  O_2
REMARK    2  A    between atoms: O_2  and  C_3
REMARK    3  A    between atoms: C_6  and  C_7
REMARK    4  A    between atoms: C_7  and  C_8
REMARK    5  A    between atoms: C_8  and  N_9
REMARK    6  A    between atoms: N_20  and  C_21
REMARK                            x       y       z     vdW  Elec       q    Type
REMARK                         _______ _______ _______ _____ _____    ______ ____
ROOT
ATOM      1  N   UNL     1       0.728   9.513  20.715  0.00  0.00    +0.000 N 
ATOM      2  C   UNL     1       0.552   9.939  19.416  0.00  0.00    +0.000 A 
ATOM      3 BR   UNL     1       1.480   9.319  17.909  0.00  0.00    +0.000 Br
ATOM      4  N   UNL     1      -0.368  10.880  19.333  0.00  0.00    +0.000 NA
ATOM      5  C   UNL     1      -0.789  11.066  20.610  0.00  0.00    +0.000 A 
ATOM      6  C   UNL     1      -0.123  10.256  21.488  0.00  0.00    +0.000 A 
ATOM      7  C   UNL     1      -0.360  10.293  22.888  0.00  0.00    +0.000 A 
ATOM      8  O   UNL     1       0.270   9.660  23.727  0.00  0.00    +0.000 OA
ATOM      9  N   UNL     1      -1.380  11.154  23.226  0.00  0.00    +0.000 N 
ATOM     10  C   UNL     1      -2.070  12.010  22.384  0.00  0.00    +0.000 A 
ATOM     11  O   UNL     1      -2.908  12.770  22.869  0.00  0.00    +0.000 OA
ATOM     12  N   UNL     1      -1.749  11.958  21.030  0.00  0.00    +0.000 N 
ATOM     13  C   UNL     1      -2.405  12.845  20.084  0.00  0.00    +0.000 C 
ATOM     14  H   UNL     1      -1.602  11.233  24.206  0.00  0.00    +0.000 HD
ENDROOT
BRANCH   1  15
ATOM     15  C   UNL     1       1.614   8.459  21.178  0.00  0.00    +0.000 C 
BRANCH  15  16
ATOM     16  C   UNL     1       0.923   7.097  21.210  0.00  0.00    +0.000 C 
BRANCH  16  20
ATOM     17  C   UNL     1       3.180   4.069  19.102  0.00  0.00    +0.000 A 
ATOM     18  C   UNL     1       3.526   5.415  18.990  0.00  0.00    +0.000 A 
ATOM     19  C   UNL     1       2.800   6.397  19.672  0.00  0.00    +0.000 A 
ATOM     20  C   UNL     1       1.705   6.042  20.467  0.00  0.00    +0.000 A 
ATOM     21  C   UNL     1       1.340   4.692  20.550  0.00  0.00    +0.000 A 
ATOM     22  C   UNL     1       2.076   3.710  19.873  0.00  0.00    +0.000 A 
BRANCH  17  24
ATOM     23  C   UNL     1       4.371   3.654  17.100  0.00  0.00    +0.000 C 
ATOM     24  O   UNL     1       3.964   3.204  18.388  0.00  0.00    +0.000 OA
ENDBRANCH  17  24
ENDBRANCH  16  20
ENDBRANCH  15  16
ENDBRANCH   1  15
TORSDOF 4
ENDMDL
MODEL 5
REMARK VINA RESULT:      -7.3      4.858      7.762
REMARK  Name = 
REMARK  6 active torsions:
REMARK  status: ('A' for Active; 'I' for Inactive)
REMARK    1  A    between atoms: C_1  and  O_2
REMARK    2  A    between atoms: O_2  and  C_3
REMARK    3  A    between atoms: C_6  and  C_7
REMARK    4  A    between atoms: C_7  and  C_8
REMARK    5  A    between atoms: C_8  and  N_9
REMARK    6  A    between atoms: N_20  and  C_21
REMARK                            x       y       z     vdW  Elec       q    Type
REMARK                         _______ _______ _______ _____ _____    ______ ____
ROOT
ATOM      1  N   UNL     1       0.777  10.153  20.309  0.00  0.00    +0.000 N 
ATOM      2  C   UNL     1       0.367  10.853  21.424  0.00  0.00    +0.000 A 
ATOM      3 BR   UNL     1      -0.553  10.150  22.898  0.00  0.00    +0.000 Br
ATOM      4  N   UNL     1       0.691  12.129  21.345  0.00  0.00    +0.000 NA
ATOM      5  C   UNL     1       1.318  12.253  20.147  0.00  0.00    +0.000 A 
ATOM      6  C   UNL     1       1.372  11.062  19.476  0.00  0.00    +0.000 A 
ATOM      7  C   UNL     1       1.947  10.943  18.182  0.00  0.00    +0.000 A 
ATOM      8  O   UNL     1       1.939   9.927  17.498  0.00  0.00    +0.000 OA
ATOM      9  N   UNL     1       2.509  12.122  17.745  0.00  0.00    +0.000 N 
ATOM     10  C   UNL     1       2.464  13.356  18.372  0.00  0.00    +0.000 A 
ATOM     11  O   UNL     1       2.959  14.328  17.802  0.00  0.00    +0.000 OA
ATOM     12  N   UNL     1       1.839  13.410  19.615  0.00  0.00    +0.000 N 
ATOM     13  C   UNL     1       1.722  14.673  20.325  0.00  0.00    +0.000 C 
ATOM     14  H   UNL     1       2.934  12.112  16.831  0.00  0.00    +0.000 HD
ENDROOT
BRANCH   1  15
ATOM     15  C   UNL     1       0.641   8.727  20.072  0.00  0.00    +0.000 C 
BRANCH  15  16
ATOM     16  C   UNL     1       1.796   7.929  20.674  0.00  0.00    +0.000 C 
BRANCH  16  20
ATOM     17  C   UNL     1       2.518   4.256  18.508  0.00  0.00    +0.000 A 
ATOM     18  C   UNL     1       1.997   4.223  19.801  0.00  0.00    +0.000 A 
ATOM     19  C   UNL     1       1.760   5.409  20.504  0.00  0.00    +0.000 A 
ATOM     20  C   UNL     1       2.057   6.647  19.922  0.00  0.00    +0.000 A 
ATOM     21  C   UNL     1       2.611   6.673  18.635  0.00  0.00    +0.000 A 
ATOM     22  C   UNL     1       2.838   5.484  17.931  0.00  0.00    +0.000 A 
BRANCH  17  24
ATOM     23  C   UNL     1       2.856   1.934  18.818  0.00  0.00    +0.000 C 
ATOM     24  O   UNL     1       2.707   3.032  17.925  0.00  0.00    +0.000 OA
ENDBRANCH  17  24
ENDBRANCH  16  20
ENDBRANCH  15  16
ENDBRANCH   1  15
TORSDOF 4
ENDMDL
MODEL 6
REMARK VINA RESULT:      -7.3      1.052      1.454
REMARK  Name = 
REMARK  6 active torsions:
REMARK  status: ('A' for Active; 'I' for Inactive)
REMARK    1  A    between atoms: C_1  and  O_2
REMARK    2  A    between atoms: O_2  and  C_3
REMARK    3  A    between atoms: C_6  and  C_7
REMARK    4  A    between atoms: C_7  and  C_8
REMARK    5  A    between atoms: C_8  and  N_9
REMARK    6  A    between atoms: N_20  and  C_21
REMARK                            x       y       z     vdW  Elec       q    Type
REMARK                         _______ _______ _______ _____ _____    ______ ____
ROOT
ATOM      1  N   UNL     1       3.966   4.132  18.804  0.00  0.00    +0.000 N 
ATOM      2  C   UNL     1       3.206   3.393  17.922  0.00  0.00    +0.000 A 
ATOM      3 BR   UNL     1       1.624   2.469  18.324  0.00  0.00    +0.000 Br
ATOM      4  N   UNL     1       3.730   3.390  16.712  0.00  0.00    +0.000 NA
ATOM      5  C   UNL     1       4.857   4.139  16.821  0.00  0.00    +0.000 A 
ATOM      6  C   UNL     1       5.042   4.596  18.097  0.00  0.00    +0.000 A 
ATOM      7  C   UNL     1       6.172   5.371  18.472  0.00  0.00    +0.000 A 
ATOM      8  O   UNL     1       6.436   5.725  19.614  0.00  0.00    +0.000 OA
ATOM      9  N   UNL     1       6.981   5.674  17.399  0.00  0.00    +0.000 N 
ATOM     10  C   UNL     1       6.852   5.222  16.097  0.00  0.00    +0.000 A 
ATOM     11  O   UNL     1       7.712   5.535  15.274  0.00  0.00    +0.000 OA
ATOM     12  N   UNL     1       5.749   4.423  15.812  0.00  0.00    +0.000 N 
ATOM     13  C   UNL     1       5.556   3.882  14.477  0.00  0.00    +0.000 C 
ATOM     14  H   UNL     1       7.805   6.221  17.592  0.00  0.00    +0.000 HD
ENDROOT
BRANCH   1  15
ATOM     15  C   UNL     1       3.671   4.400  20.201  0.00  0.00    +0.000 C 
BRANCH  15  16
ATOM     16  C   UNL     1       2.233   4.873  20.407  0.00  0.00    +0.000 C 
BRANCH  16  20
ATOM     17  C   UNL     1       1.640   8.973  19.164  0.00  0.00    +0.000 A 
ATOM     18  C   UNL     1       2.194   8.041  18.286  0.00  0.00    +0.000 A 
ATOM     19  C   UNL     1       2.385   6.714  18.684  0.00  0.00    +0.000 A 
ATOM     20  C   UNL     1       2.036   6.306  19.976  0.00  0.00    +0.000 A 
ATOM     21  C   UNL     1       1.511   7.253  20.865  0.00  0.00    +0.000 A 
ATOM     22  C   UNL     1       1.311   8.579  20.460  0.00  0.00    +0.000 A 
BRANCH  17  24
ATOM     23  C   UNL     1       0.757  11.148  19.460  0.00  0.00    +0.000 C 
ATOM     24  O   UNL     1       1.504  10.238  18.660  0.00  0.00    +0.000 OA
ENDBRANCH  17  24
ENDBRANCH  16  20
ENDBRANCH  15  16
ENDBRANCH   1  15
TORSDOF 4
ENDMDL
MODEL 7
REMARK VINA RESULT:      -7.3      2.994      4.713
REMARK  Name = 
REMARK  6 active torsions:
REMARK  status: ('A' for Active; 'I' for Inactive)
REMARK    1  A    between atoms: C_1  and  O_2
REMARK    2  A    between atoms: O_2  and  C_3
REMARK    3  A    between atoms: C_6  and  C_7
REMARK    4  A    between atoms: C_7  and  C_8
REMARK    5  A    between atoms: C_8  and  N_9
REMARK    6  A    between atoms: N_20  and  C_21
REMARK                            x       y       z     vdW  Elec       q    Type
REMARK                         _______ _______ _______ _____ _____    ______ ____
ROOT
ATOM      1  N   UNL     1       2.557   6.803  19.152  0.00  0.00    +0.000 N 
ATOM      2  C   UNL     1       1.858   6.765  20.341  0.00  0.00    +0.000 A 
ATOM      3 BR   UNL     1       1.212   8.244  21.295  0.00  0.00    +0.000 Br
ATOM      4  N   UNL     1       1.691   5.529  20.768  0.00  0.00    +0.000 NA
ATOM      5  C   UNL     1       2.303   4.755  19.835  0.00  0.00    +0.000 A 
ATOM      6  C   UNL     1       2.861   5.506  18.838  0.00  0.00    +0.000 A 
ATOM      7  C   UNL     1       3.589   4.926  17.765  0.00  0.00    +0.000 A 
ATOM      8  O   UNL     1       4.187   5.552  16.899  0.00  0.00    +0.000 OA
ATOM      9  N   UNL     1       3.579   3.549  17.805  0.00  0.00    +0.000 N 
ATOM     10  C   UNL     1       3.050   2.743  18.799  0.00  0.00    +0.000 A 
ATOM     11  O   UNL     1       3.195   1.524  18.712  0.00  0.00    +0.000 OA
ATOM     12  N   UNL     1       2.395   3.381  19.848  0.00  0.00    +0.000 N 
ATOM     13  C   UNL     1       1.839   2.610  20.947  0.00  0.00    +0.000 C 
ATOM     14  H   UNL     1       4.080   3.069  17.074  0.00  0.00    +0.000 HD
ENDROOT
BRANCH   1  15
ATOM     15  C   UNL     1       2.879   7.979  18.364  0.00  0.00    +0.000 C 
BRANCH  15  16
ATOM     16  C   UNL     1       1.709   8.428  17.491  0.00  0.00    +0.000 C 
BRANCH  16  20
ATOM     17  C   UNL     1      -0.060  12.107  18.920  0.00  0.00    +0.000 A 
ATOM     18  C   UNL     1      -0.867  11.042  18.521  0.00  0.00    +0.000 A 
ATOM     19  C   UNL     1      -0.299   9.850  18.060  0.00  0.00    +0.000 A 
ATOM     20  C   UNL     1       1.091   9.715  17.980  0.00  0.00    +0.000 A 
ATOM     21  C   UNL     1       1.898  10.798  18.351  0.00  0.00    +0.000 A 
ATOM     22  C   UNL     1       1.326  11.987  18.821  0.00  0.00    +0.000 A 
BRANCH  17  24
ATOM     23  C   UNL     1      -0.034  14.453  19.224  0.00  0.00    +0.000 C 
ATOM     24  O   UNL     1      -0.732  13.219  19.350  0.00  0.00    +0.000 OA
ENDBRANCH  17  24
ENDBRANCH  16  20
ENDBRANCH  15  16
ENDBRANCH   1  15
TORSDOF 4
ENDMDL
MODEL 8
REMARK VINA RESULT:      -7.3      2.991      4.715
REMARK  Name = 
REMARK  6 active torsions:
REMARK  status: ('A' for Active; 'I' for Inactive)
REMARK    1  A    between atoms: C_1  and  O_2
REMARK    2  A    between atoms: O_2  and  C_3
REMARK    3  A    between atoms: C_6  and  C_7
REMARK    4  A    between atoms: C_7  and  C_8
REMARK    5  A    between atoms: C_8  and  N_9
REMARK    6  A    between atoms: N_20  and  C_21
REMARK                            x       y       z     vdW  Elec       q    Type
REMARK                         _______ _______ _______ _____ _____    ______ ____
ROOT
ATOM      1  N   UNL     1       2.514   6.940  19.188  0.00  0.00    +0.000 N 
ATOM      2  C   UNL     1       1.814   6.867  20.374  0.00  0.00    +0.000 A 
ATOM      3 BR   UNL     1       1.113   8.314  21.338  0.00  0.00    +0.000 Br
ATOM      4  N   UNL     1       1.689   5.622  20.790  0.00  0.00    +0.000 NA
ATOM      5  C   UNL     1       2.330   4.878  19.852  0.00  0.00    +0.000 A 
ATOM      6  C   UNL     1       2.865   5.657  18.863  0.00  0.00    +0.000 A 
ATOM      7  C   UNL     1       3.616   5.112  17.788  0.00  0.00    +0.000 A 
ATOM      8  O   UNL     1       4.195   5.767  16.930  0.00  0.00    +0.000 OA
ATOM      9  N   UNL     1       3.656   3.736  17.817  0.00  0.00    +0.000 N 
ATOM     10  C   UNL     1       3.152   2.903  18.802  0.00  0.00    +0.000 A 
ATOM     11  O   UNL     1       3.340   1.690  18.705  0.00  0.00    +0.000 OA
ATOM     12  N   UNL     1       2.471   3.509  19.854  0.00  0.00    +0.000 N 
ATOM     13  C   UNL     1       1.939   2.709  20.944  0.00  0.00    +0.000 C 
ATOM     14  H   UNL     1       4.175   3.280  17.083  0.00  0.00    +0.000 HD
ENDROOT
BRANCH   1  15
ATOM     15  C   UNL     1       2.798   8.134  18.411  0.00  0.00    +0.000 C 
BRANCH  15  16
ATOM     16  C   UNL     1       1.632   8.522  17.504  0.00  0.00    +0.000 C 
BRANCH  16  20
ATOM     17  C   UNL     1      -0.479  12.018  18.928  0.00  0.00    +0.000 A 
ATOM     18  C   UNL     1       0.912  11.956  18.996  0.00  0.00    +0.000 A 
ATOM     19  C   UNL     1       1.599  10.828  18.535  0.00  0.00    +0.000 A 
ATOM     20  C   UNL     1       0.895   9.738  18.010  0.00  0.00    +0.000 A 
ATOM     21  C   UNL     1      -0.505   9.791  17.975  0.00  0.00    +0.000 A 
ATOM     22  C   UNL     1      -1.188  10.927  18.429  0.00  0.00    +0.000 A 
BRANCH  17  24
ATOM     23  C   UNL     1      -2.207  13.012  20.204  0.00  0.00    +0.000 C 
ATOM     24  O   UNL     1      -1.035  13.171  19.411  0.00  0.00    +0.000 OA
ENDBRANCH  17  24
ENDBRANCH  16  20
ENDBRANCH  15  16
ENDBRANCH   1  15
TORSDOF 4
ENDMDL
MODEL 9
REMARK VINA RESULT:      -7.3      4.899      7.892
REMARK  Name = 
REMARK  6 active torsions:
REMARK  status: ('A' for Active; 'I' for Inactive)
REMARK    1  A    between atoms: C_1  and  O_2
REMARK    2  A    between atoms: O_2  and  C_3
REMARK    3  A    between atoms: C_6  and  C_7
REMARK    4  A    between atoms: C_7  and  C_8
REMARK    5  A    between atoms: C_8  and  N_9
REMARK    6  A    between atoms: N_20  and  C_21
REMARK                            x       y       z     vdW  Elec       q    Type
REMARK                         _______ _______ _______ _____ _____    ______ ____
ROOT
ATOM      1  N   UNL     1       0.718  10.350  20.315  0.00  0.00    +0.000 N 
ATOM      2  C   UNL     1       0.295  11.061  21.419  0.00  0.00    +0.000 A 
ATOM      3 BR   UNL     1      -0.667  10.378  22.876  0.00  0.00    +0.000 Br
ATOM      4  N   UNL     1       0.640  12.331  21.341  0.00  0.00    +0.000 NA
ATOM      5  C   UNL     1       1.294  12.440  20.156  0.00  0.00    +0.000 A 
ATOM      6  C   UNL     1       1.344  11.246  19.491  0.00  0.00    +0.000 A 
ATOM      7  C   UNL     1       1.944  11.112  18.211  0.00  0.00    +0.000 A 
ATOM      8  O   UNL     1       1.935  10.093  17.531  0.00  0.00    +0.000 OA
ATOM      9  N   UNL     1       2.533  12.281  17.780  0.00  0.00    +0.000 N 
ATOM     10  C   UNL     1       2.494  13.518  18.401  0.00  0.00    +0.000 A 
ATOM     11  O   UNL     1       3.016  14.479  17.838  0.00  0.00    +0.000 OA
ATOM     12  N   UNL     1       1.844  13.588  19.630  0.00  0.00    +0.000 N 
ATOM     13  C   UNL     1       1.731  14.854  20.332  0.00  0.00    +0.000 C 
ATOM     14  H   UNL     1       2.977  12.260  16.876  0.00  0.00    +0.000 HD
ENDROOT
BRANCH   1  15
ATOM     15  C   UNL     1       0.565   8.925  20.082  0.00  0.00    +0.000 C 
BRANCH  15  16
ATOM     16  C   UNL     1       1.629   8.103  20.806  0.00  0.00    +0.000 C 
BRANCH  16  20
ATOM     17  C   UNL     1       2.634   4.461  18.702  0.00  0.00    +0.000 A 
ATOM     18  C   UNL     1       2.837   5.703  18.102  0.00  0.00    +0.000 A 
ATOM     19  C   UNL     1       2.515   6.883  18.780  0.00  0.00    +0.000 A 
ATOM     20  C   UNL     1       1.970   6.833  20.068  0.00  0.00    +0.000 A 
ATOM     21  C   UNL     1       1.737   5.581  20.654  0.00  0.00    +0.000 A 
ATOM     22  C   UNL     1       2.069   4.402  19.976  0.00  0.00    +0.000 A 
BRANCH  17  24
ATOM     23  C   UNL     1       3.095   2.141  18.631  0.00  0.00    +0.000 C 
ATOM     24  O   UNL     1       2.986   3.381  17.940  0.00  0.00    +0.000 OA
ENDBRANCH  17  24
ENDBRANCH  16  20
ENDBRANCH  15  16
ENDBRANCH   1  15
TORSDOF 4
ENDMDL
