MODEL 1
REMARK VINA RESULT:      -7.6      0.000      0.000
REMARK  Name = 
REMARK  7 active torsions:
REMARK  status: ('A' for Active; 'I' for Inactive)
REMARK    1  A    between atoms: C_2  and  O_3
REMARK    2  A    between atoms: C_2  and  C_4
REMARK    3  A    between atoms: C_8  and  C_9
REMARK    4  A    between atoms: C_9  and  N_10
REMARK    5  A    between atoms: N_10  and  N_11
REMARK    6  A    between atoms: C_12  and  C_13
REMARK    7  A    between atoms: C_17  and  C_18
REMARK                            x       y       z     vdW  Elec       q    Type
REMARK                         _______ _______ _______ _____ _____    ______ ____
ROOT
ATOM      1  N   UNL     1       3.212   6.214  19.539  0.00  0.00    +0.000 NA
ATOM      2  C   UNL     1       2.210   6.827  20.091  0.00  0.00    +0.000 C 
ENDROOT
BRANCH   2   3
ATOM      3  C   UNL     1       1.723   8.129  19.597  0.00  0.00    +0.000 A 
ATOM      4  C   UNL     1       2.174   8.625  18.376  0.00  0.00    +0.000 A 
ATOM      5  C   UNL     1       1.707   9.857  17.931  0.00  0.00    +0.000 A 
ATOM      6  C   UNL     1       0.817  10.596  18.718  0.00  0.00    +0.000 A 
ATOM      7  C   UNL     1       0.372  10.134  19.973  0.00  0.00    +0.000 A 
ATOM      8  C   UNL     1       0.826   8.866  20.386  0.00  0.00    +0.000 A 
BRANCH   7   9
ATOM      9  C   UNL     1      -0.513  10.972  20.823  0.00  0.00    +0.000 A 
ATOM     10  C   UNL     1      -0.527  10.863  22.227  0.00  0.00    +0.000 A 
ATOM     11  C   UNL     1      -1.377  11.654  23.013  0.00  0.00    +0.000 A 
ATOM     12  C   UNL     1      -2.237  12.565  22.409  0.00  0.00    +0.000 A 
ATOM     13 CL   UNL     1      -3.299  13.516  23.370  0.00  0.00    +0.000 Cl
ATOM     14  C   UNL     1      -2.240  12.708  21.028  0.00  0.00    +0.000 A 
ATOM     15  C   UNL     1      -1.379  11.925  20.248  0.00  0.00    +0.000 A 
ENDBRANCH   7   9
ENDBRANCH   2   3
BRANCH   1  16
ATOM     16  N   UNL     1       3.559   5.047  20.141  0.00  0.00    +0.000 N 
ATOM     17  H   UNL     1       4.150   4.443  19.565  0.00  0.00    +0.000 HD
BRANCH  16  18
ATOM     18  C   UNL     1       2.461   4.241  20.684  0.00  0.00    +0.000 C 
BRANCH  18  23
ATOM     19  C   UNL     1       2.446   2.302  18.071  0.00  0.00    +0.000 C 
ATOM     20  C   UNL     1       3.962   2.056  18.034  0.00  0.00    +0.000 C 
ATOM     21  N   UNL     1       4.712   2.693  19.119  0.00  0.00    +0.000 NA
ATOM     22  C   UNL     1       4.181   2.343  20.437  0.00  0.00    +0.000 C 
ATOM     23  C   UNL     1       2.702   2.722  20.612  0.00  0.00    +0.000 C 
ATOM     24  C   UNL     1       1.876   2.068  19.482  0.00  0.00    +0.000 C 
ATOM     25  H   UNL     1       4.692   3.708  18.994  0.00  0.00    +0.000 HD
BRANCH  19  27
ATOM     26  O   UNL     1       0.943   4.052  17.283  0.00  0.00    +0.000 OA
ATOM     27  C   UNL     1       2.082   3.659  17.487  0.00  0.00    +0.000 C 
BRANCH  27  28
ATOM     28  O   UNL     1       3.153   4.439  17.216  0.00  0.00    +0.000 OA
ATOM     29  H   UNL     1       2.963   5.395  17.167  0.00  0.00    +0.000 HD
ENDBRANCH  27  28
ENDBRANCH  19  27
ENDBRANCH  18  23
ENDBRANCH  16  18
ENDBRANCH   1  16
TORSDOF 7
ENDMDL
MODEL 2
REMARK VINA RESULT:      -7.5      1.510      2.110
REMARK  Name = 
REMARK  7 active torsions:
REMARK  status: ('A' for Active; 'I' for Inactive)
REMARK    1  A    between atoms: C_2  and  O_3
REMARK    2  A    between atoms: C_2  and  C_4
REMARK    3  A    between atoms: C_8  and  C_9
REMARK    4  A    between atoms: C_9  and  N_10
REMARK    5  A    between atoms: N_10  and  N_11
REMARK    6  A    between atoms: C_12  and  C_13
REMARK    7  A    between atoms: C_17  and  C_18
REMARK                            x       y       z     vdW  Elec       q    Type
REMARK                         _______ _______ _______ _____ _____    ______ ____
ROOT
ATOM      1  N   UNL     1       1.878   6.584  20.574  0.00  0.00    +0.000 NA
ATOM      2  C   UNL     1       2.318   7.348  19.621  0.00  0.00    +0.000 C 
ENDROOT
BRANCH   2   3
ATOM      3  C   UNL     1       1.698   8.652  19.317  0.00  0.00    +0.000 A 
ATOM      4  C   UNL     1       2.064   9.347  18.167  0.00  0.00    +0.000 A 
ATOM      5  C   UNL     1       1.472  10.577  17.901  0.00  0.00    +0.000 A 
ATOM      6  C   UNL     1       0.542  11.116  18.798  0.00  0.00    +0.000 A 
ATOM      7  C   UNL     1       0.181  10.451  19.987  0.00  0.00    +0.000 A 
ATOM      8  C   UNL     1       0.762   9.188  20.215  0.00  0.00    +0.000 A 
BRANCH   7   9
ATOM      9  C   UNL     1      -0.751  11.080  20.959  0.00  0.00    +0.000 A 
ATOM     10  C   UNL     1      -1.685  12.061  20.576  0.00  0.00    +0.000 A 
ATOM     11  C   UNL     1      -2.548  12.653  21.509  0.00  0.00    +0.000 A 
ATOM     12  C   UNL     1      -2.487  12.280  22.848  0.00  0.00    +0.000 A 
ATOM     13 CL   UNL     1      -3.526  13.024  23.998  0.00  0.00    +0.000 Cl
ATOM     14  C   UNL     1      -1.587  11.306  23.258  0.00  0.00    +0.000 A 
ATOM     15  C   UNL     1      -0.736  10.709  22.320  0.00  0.00    +0.000 A 
ENDBRANCH   7   9
ENDBRANCH   2   3
BRANCH   1  16
ATOM     16  N   UNL     1       2.534   5.401  20.695  0.00  0.00    +0.000 N 
ATOM     17  H   UNL     1       3.384   5.339  20.130  0.00  0.00    +0.000 HD
BRANCH  16  18
ATOM     18  C   UNL     1       1.740   4.189  20.476  0.00  0.00    +0.000 C 
BRANCH  18  23
ATOM     19  C   UNL     1       3.695   3.199  18.071  0.00  0.00    +0.000 C 
ATOM     20  C   UNL     1       3.120   1.779  17.960  0.00  0.00    +0.000 C 
ATOM     21  N   UNL     1       2.000   1.499  18.861  0.00  0.00    +0.000 NA
ATOM     22  C   UNL     1       0.926   2.484  18.728  0.00  0.00    +0.000 C 
ATOM     23  C   UNL     1       1.390   3.924  19.000  0.00  0.00    +0.000 C 
ATOM     24  C   UNL     1       2.576   4.256  18.066  0.00  0.00    +0.000 C 
ATOM     25  H   UNL     1       2.338   1.481  19.826  0.00  0.00    +0.000 HD
BRANCH  19  27
ATOM     26  O   UNL     1       4.918   2.432  20.035  0.00  0.00    +0.000 OA
ATOM     27  C   UNL     1       4.648   3.329  19.250  0.00  0.00    +0.000 C 
BRANCH  27  28
ATOM     28  O   UNL     1       5.213   4.552  19.360  0.00  0.00    +0.000 OA
ATOM     29  H   UNL     1       6.185   4.566  19.262  0.00  0.00    +0.000 HD
ENDBRANCH  27  28
ENDBRANCH  19  27
ENDBRANCH  18  23
ENDBRANCH  16  18
ENDBRANCH   1  16
TORSDOF 7
ENDMDL
MODEL 3
REMARK VINA RESULT:      -7.3      1.777      2.312
REMARK  Name = 
REMARK  7 active torsions:
REMARK  status: ('A' for Active; 'I' for Inactive)
REMARK    1  A    between atoms: C_2  and  O_3
REMARK    2  A    between atoms: C_2  and  C_4
REMARK    3  A    between atoms: C_8  and  C_9
REMARK    4  A    between atoms: C_9  and  N_10
REMARK    5  A    between atoms: N_10  and  N_11
REMARK    6  A    between atoms: C_12  and  C_13
REMARK    7  A    between atoms: C_17  and  C_18
REMARK                            x       y       z     vdW  Elec       q    Type
REMARK                         _______ _______ _______ _____ _____    ______ ____
ROOT
ATOM      1  N   UNL     1       2.128   7.338  19.066  0.00  0.00    +0.000 NA
ATOM      2  C   UNL     1       2.087   8.277  18.170  0.00  0.00    +0.000 C 
ENDROOT
BRANCH   2   3
ATOM      3  C   UNL     1       1.730   9.667  18.512  0.00  0.00    +0.000 A 
ATOM      4  C   UNL     1       2.395  10.729  17.902  0.00  0.00    +0.000 A 
ATOM      5  C   UNL     1       2.047  12.031  18.243  0.00  0.00    +0.000 A 
ATOM      6  C   UNL     1       1.061  12.265  19.208  0.00  0.00    +0.000 A 
ATOM      7  C   UNL     1       0.398  11.209  19.867  0.00  0.00    +0.000 A 
ATOM      8  C   UNL     1       0.737   9.898  19.477  0.00  0.00    +0.000 A 
BRANCH   7   9
ATOM      9  C   UNL     1      -0.591  11.484  20.942  0.00  0.00    +0.000 A 
ATOM     10  C   UNL     1      -0.525  10.854  22.199  0.00  0.00    +0.000 A 
ATOM     11  C   UNL     1      -1.473  11.115  23.199  0.00  0.00    +0.000 A 
ATOM     12  C   UNL     1      -2.513  12.008  22.956  0.00  0.00    +0.000 A 
ATOM     13 CL   UNL     1      -3.691  12.309  24.171  0.00  0.00    +0.000 Cl
ATOM     14  C   UNL     1      -2.600  12.657  21.732  0.00  0.00    +0.000 A 
ATOM     15  C   UNL     1      -1.642  12.402  20.742  0.00  0.00    +0.000 A 
ENDBRANCH   7   9
ENDBRANCH   2   3
BRANCH   1  16
ATOM     16  N   UNL     1       2.433   6.108  18.579  0.00  0.00    +0.000 N 
ATOM     17  H   UNL     1       1.657   5.443  18.615  0.00  0.00    +0.000 HD
BRANCH  16  18
ATOM     18  C   UNL     1       3.625   5.462  19.137  0.00  0.00    +0.000 C 
BRANCH  18  23
ATOM     19  C   UNL     1       2.384   2.541  19.854  0.00  0.00    +0.000 C 
ATOM     20  C   UNL     1       1.552   2.391  18.571  0.00  0.00    +0.000 C 
ATOM     21  N   UNL     1       1.689   3.498  17.620  0.00  0.00    +0.000 NA
ATOM     22  C   UNL     1       3.088   3.763  17.280  0.00  0.00    +0.000 C 
ATOM     23  C   UNL     1       3.954   4.097  18.506  0.00  0.00    +0.000 C 
ATOM     24  C   UNL     1       3.834   2.951  19.535  0.00  0.00    +0.000 C 
ATOM     25  H   UNL     1       1.261   4.338  18.015  0.00  0.00    +0.000 HD
BRANCH  19  27
ATOM     26  O   UNL     1       0.839   4.275  20.591  0.00  0.00    +0.000 OA
ATOM     27  C   UNL     1       1.703   3.454  20.862  0.00  0.00    +0.000 C 
BRANCH  27  28
ATOM     28  O   UNL     1       2.125   3.272  22.133  0.00  0.00    +0.000 OA
ATOM     29  H   UNL     1       2.820   3.891  22.428  0.00  0.00    +0.000 HD
ENDBRANCH  27  28
ENDBRANCH  19  27
ENDBRANCH  18  23
ENDBRANCH  16  18
ENDBRANCH   1  16
TORSDOF 7
ENDMDL
MODEL 4
REMARK VINA RESULT:      -7.3      2.313      3.183
REMARK  Name = 
REMARK  7 active torsions:
REMARK  status: ('A' for Active; 'I' for Inactive)
REMARK    1  A    between atoms: C_2  and  O_3
REMARK    2  A    between atoms: C_2  and  C_4
REMARK    3  A    between atoms: C_8  and  C_9
REMARK    4  A    between atoms: C_9  and  N_10
REMARK    5  A    between atoms: N_10  and  N_11
REMARK    6  A    between atoms: C_12  and  C_13
REMARK    7  A    between atoms: C_17  and  C_18
REMARK                            x       y       z     vdW  Elec       q    Type
REMARK                         _______ _______ _______ _____ _____    ______ ____
ROOT
ATOM      1  N   UNL     1       2.161   6.397  19.348  0.00  0.00    +0.000 NA
ATOM      2  C   UNL     1       2.277   7.689  19.403  0.00  0.00    +0.000 C 
ENDROOT
BRANCH   2   3
ATOM      3  C   UNL     1       1.360   8.521  20.206  0.00  0.00    +0.000 A 
ATOM      4  C   UNL     1       0.670   7.963  21.279  0.00  0.00    +0.000 A 
ATOM      5  C   UNL     1      -0.194   8.763  22.019  0.00  0.00    +0.000 A 
ATOM      6  C   UNL     1      -0.384  10.104  21.666  0.00  0.00    +0.000 A 
ATOM      7  C   UNL     1       0.274  10.685  20.563  0.00  0.00    +0.000 A 
ATOM      8  C   UNL     1       1.175   9.867  19.852  0.00  0.00    +0.000 A 
BRANCH   7   9
ATOM      9  C   UNL     1      -0.004  12.089  20.163  0.00  0.00    +0.000 A 
ATOM     10  C   UNL     1       0.108  12.524  18.830  0.00  0.00    +0.000 A 
ATOM     11  C   UNL     1      -0.146  13.856  18.471  0.00  0.00    +0.000 A 
ATOM     12  C   UNL     1      -0.509  14.782  19.444  0.00  0.00    +0.000 A 
ATOM     13 CL   UNL     1      -0.795  16.421  19.011  0.00  0.00    +0.000 Cl
ATOM     14  C   UNL     1      -0.642  14.383  20.768  0.00  0.00    +0.000 A 
ATOM     15  C   UNL     1      -0.400  13.049  21.118  0.00  0.00    +0.000 A 
ENDBRANCH   7   9
ENDBRANCH   2   3
BRANCH   1  16
ATOM     16  N   UNL     1       3.058   5.786  18.532  0.00  0.00    +0.000 N 
ATOM     17  H   UNL     1       2.657   5.446  17.655  0.00  0.00    +0.000 HD
BRANCH  16  18
ATOM     18  C   UNL     1       3.855   4.710  19.128  0.00  0.00    +0.000 C 
BRANCH  18  23
ATOM     19  C   UNL     1       1.846   2.264  19.884  0.00  0.00    +0.000 C 
ATOM     20  C   UNL     1       0.900   2.447  18.688  0.00  0.00    +0.000 C 
ATOM     21  N   UNL     1       1.285   3.513  17.759  0.00  0.00    +0.000 NA
ATOM     22  C   UNL     1       2.663   3.362  17.288  0.00  0.00    +0.000 C 
ATOM     23  C   UNL     1       3.693   3.347  18.429  0.00  0.00    +0.000 C 
ATOM     24  C   UNL     1       3.318   2.234  19.433  0.00  0.00    +0.000 C 
ATOM     25  H   UNL     1       1.172   4.419  18.218  0.00  0.00    +0.000 HD
BRANCH  19  27
ATOM     26  O   UNL     1       2.113   3.300  22.074  0.00  0.00    +0.000 OA
ATOM     27  C   UNL     1       1.568   3.282  20.981  0.00  0.00    +0.000 C 
BRANCH  27  28
ATOM     28  O   UNL     1       0.652   4.215  20.637  0.00  0.00    +0.000 OA
ATOM     29  H   UNL     1      -0.276   3.912  20.673  0.00  0.00    +0.000 HD
ENDBRANCH  27  28
ENDBRANCH  19  27
ENDBRANCH  18  23
ENDBRANCH  16  18
ENDBRANCH   1  16
TORSDOF 7
ENDMDL
MODEL 5
REMARK VINA RESULT:      -7.3      2.369      3.392
REMARK  Name = 
REMARK  7 active torsions:
REMARK  status: ('A' for Active; 'I' for Inactive)
REMARK    1  A    between atoms: C_2  and  O_3
REMARK    2  A    between atoms: C_2  and  C_4
REMARK    3  A    between atoms: C_8  and  C_9
REMARK    4  A    between atoms: C_9  and  N_10
REMARK    5  A    between atoms: N_10  and  N_11
REMARK    6  A    between atoms: C_12  and  C_13
REMARK    7  A    between atoms: C_17  and  C_18
REMARK                            x       y       z     vdW  Elec       q    Type
REMARK                         _______ _______ _______ _____ _____    ______ ____
ROOT
ATOM      1  N   UNL     1       1.266   6.898  20.832  0.00  0.00    +0.000 NA
ATOM      2  C   UNL     1       1.713   8.100  21.036  0.00  0.00    +0.000 C 
ENDROOT
BRANCH   2   3
ATOM      3  C   UNL     1       0.846   9.177  21.551  0.00  0.00    +0.000 A 
ATOM      4  C   UNL     1       0.046   8.954  22.669  0.00  0.00    +0.000 A 
ATOM      5  C   UNL     1      -0.769   9.981  23.135  0.00  0.00    +0.000 A 
ATOM      6  C   UNL     1      -0.799  11.210  22.468  0.00  0.00    +0.000 A 
ATOM      7  C   UNL     1      -0.026  11.451  21.313  0.00  0.00    +0.000 A 
ATOM      8  C   UNL     1       0.821  10.411  20.883  0.00  0.00    +0.000 A 
BRANCH   7   9
ATOM      9  C   UNL     1      -0.134  12.738  20.579  0.00  0.00    +0.000 A 
ATOM     10  C   UNL     1      -0.929  13.802  21.044  0.00  0.00    +0.000 A 
ATOM     11  C   UNL     1      -1.029  15.006  20.332  0.00  0.00    +0.000 A 
ATOM     12  C   UNL     1      -0.341  15.166  19.134  0.00  0.00    +0.000 A 
ATOM     13 CL   UNL     1      -0.484  16.631  18.246  0.00  0.00    +0.000 Cl
ATOM     14  C   UNL     1       0.464  14.142  18.653  0.00  0.00    +0.000 A 
ATOM     15  C   UNL     1       0.571  12.946  19.375  0.00  0.00    +0.000 A 
ENDBRANCH   7   9
ENDBRANCH   2   3
BRANCH   1  16
ATOM     16  N   UNL     1       2.182   6.037  20.317  0.00  0.00    +0.000 N 
ATOM     17  H   UNL     1       2.546   6.318  19.404  0.00  0.00    +0.000 HD
BRANCH  16  18
ATOM     18  C   UNL     1       1.787   4.627  20.248  0.00  0.00    +0.000 C 
BRANCH  18  23
ATOM     19  C   UNL     1       3.696   3.423  17.904  0.00  0.00    +0.000 C 
ATOM     20  C   UNL     1       3.194   1.974  18.005  0.00  0.00    +0.000 C 
ATOM     21  N   UNL     1       2.126   1.763  18.986  0.00  0.00    +0.000 NA
ATOM     22  C   UNL     1       0.997   2.670  18.776  0.00  0.00    +0.000 C 
ATOM     23  C   UNL     1       1.394   4.154  18.836  0.00  0.00    +0.000 C 
ATOM     24  C   UNL     1       2.523   4.416  17.814  0.00  0.00    +0.000 C 
ATOM     25  H   UNL     1       2.503   1.889  19.928  0.00  0.00    +0.000 HD
BRANCH  19  27
ATOM     26  O   UNL     1       5.073   4.877  19.293  0.00  0.00    +0.000 OA
ATOM     27  C   UNL     1       4.687   3.753  19.011  0.00  0.00    +0.000 C 
BRANCH  27  28
ATOM     28  O   UNL     1       5.110   2.671  19.702  0.00  0.00    +0.000 OA
ATOM     29  H   UNL     1       4.757   2.598  20.609  0.00  0.00    +0.000 HD
ENDBRANCH  27  28
ENDBRANCH  19  27
ENDBRANCH  18  23
ENDBRANCH  16  18
ENDBRANCH   1  16
TORSDOF 7
ENDMDL
MODEL 6
REMARK VINA RESULT:      -7.3      2.595      3.373
REMARK  Name = 
REMARK  7 active torsions:
REMARK  status: ('A' for Active; 'I' for Inactive)
REMARK    1  A    between atoms: C_2  and  O_3
REMARK    2  A    between atoms: C_2  and  C_4
REMARK    3  A    between atoms: C_8  and  C_9
REMARK    4  A    between atoms: C_9  and  N_10
REMARK    5  A    between atoms: N_10  and  N_11
REMARK    6  A    between atoms: C_12  and  C_13
REMARK    7  A    between atoms: C_17  and  C_18
REMARK                            x       y       z     vdW  Elec       q    Type
REMARK                         _______ _______ _______ _____ _____    ______ ____
ROOT
ATOM      1  N   UNL     1       2.702   6.454  19.305  0.00  0.00    +0.000 NA
ATOM      2  C   UNL     1       2.451   7.673  18.937  0.00  0.00    +0.000 C 
ENDROOT
BRANCH   2   3
ATOM      3  C   UNL     1       1.503   8.532  19.673  0.00  0.00    +0.000 A 
ATOM      4  C   UNL     1       1.645   8.709  21.047  0.00  0.00    +0.000 A 
ATOM      5  C   UNL     1       0.737   9.517  21.723  0.00  0.00    +0.000 A 
ATOM      6  C   UNL     1      -0.319  10.119  21.029  0.00  0.00    +0.000 A 
ATOM      7  C   UNL     1      -0.506   9.928  19.645  0.00  0.00    +0.000 A 
ATOM      8  C   UNL     1       0.448   9.138  18.973  0.00  0.00    +0.000 A 
BRANCH   7   9
ATOM      9  C   UNL     1      -1.679  10.515  18.946  0.00  0.00    +0.000 A 
ATOM     10  C   UNL     1      -2.389  11.613  19.467  0.00  0.00    +0.000 A 
ATOM     11  C   UNL     1      -3.501  12.148  18.800  0.00  0.00    +0.000 A 
ATOM     12  C   UNL     1      -3.930  11.587  17.601  0.00  0.00    +0.000 A 
ATOM     13 CL   UNL     1      -5.310  12.224  16.797  0.00  0.00    +0.000 Cl
ATOM     14  C   UNL     1      -3.245  10.511  17.053  0.00  0.00    +0.000 A 
ATOM     15  C   UNL     1      -2.127   9.990  17.716  0.00  0.00    +0.000 A 
ENDBRANCH   7   9
ENDBRANCH   2   3
BRANCH   1  16
ATOM     16  N   UNL     1       3.566   5.788  18.497  0.00  0.00    +0.000 N 
ATOM     17  H   UNL     1       3.200   5.607  17.559  0.00  0.00    +0.000 HD
BRANCH  16  18
ATOM     18  C   UNL     1       4.126   4.541  19.025  0.00  0.00    +0.000 C 
BRANCH  18  23
ATOM     19  C   UNL     1       2.001   2.179  19.726  0.00  0.00    +0.000 C 
ATOM     20  C   UNL     1       0.952   2.579  18.677  0.00  0.00    +0.000 C 
ATOM     21  N   UNL     1       1.329   3.719  17.838  0.00  0.00    +0.000 NA
ATOM     22  C   UNL     1       2.629   3.525  17.195  0.00  0.00    +0.000 C 
ATOM     23  C   UNL     1       3.770   3.292  18.199  0.00  0.00    +0.000 C 
ATOM     24  C   UNL     1       3.407   2.094  19.105  0.00  0.00    +0.000 C 
ATOM     25  H   UNL     1       1.345   4.568  18.408  0.00  0.00    +0.000 HD
BRANCH  19  27
ATOM     26  O   UNL     1       1.267   4.091  21.047  0.00  0.00    +0.000 OA
ATOM     27  C   UNL     1       1.933   3.070  20.957  0.00  0.00    +0.000 C 
BRANCH  27  28
ATOM     28  O   UNL     1       2.679   2.624  21.993  0.00  0.00    +0.000 OA
ATOM     29  H   UNL     1       3.079   3.325  22.543  0.00  0.00    +0.000 HD
ENDBRANCH  27  28
ENDBRANCH  19  27
ENDBRANCH  18  23
ENDBRANCH  16  18
ENDBRANCH   1  16
TORSDOF 7
ENDMDL
MODEL 7
REMARK VINA RESULT:      -7.2      2.315      3.173
REMARK  Name = 
REMARK  7 active torsions:
REMARK  status: ('A' for Active; 'I' for Inactive)
REMARK    1  A    between atoms: C_2  and  O_3
REMARK    2  A    between atoms: C_2  and  C_4
REMARK    3  A    between atoms: C_8  and  C_9
REMARK    4  A    between atoms: C_9  and  N_10
REMARK    5  A    between atoms: N_10  and  N_11
REMARK    6  A    between atoms: C_12  and  C_13
REMARK    7  A    between atoms: C_17  and  C_18
REMARK                            x       y       z     vdW  Elec       q    Type
REMARK                         _______ _______ _______ _____ _____    ______ ____
ROOT
ATOM      1  N   UNL     1       1.909   6.709  20.033  0.00  0.00    +0.000 NA
ATOM      2  C   UNL     1       1.876   7.987  19.805  0.00  0.00    +0.000 C 
ENDROOT
BRANCH   2   3
ATOM      3  C   UNL     1       1.107   8.912  20.660  0.00  0.00    +0.000 A 
ATOM      4  C   UNL     1       0.539   8.457  21.847  0.00  0.00    +0.000 A 
ATOM      5  C   UNL     1      -0.187   9.344  22.635  0.00  0.00    +0.000 A 
ATOM      6  C   UNL     1      -0.364  10.668  22.219  0.00  0.00    +0.000 A 
ATOM      7  C   UNL     1       0.170  11.146  21.005  0.00  0.00    +0.000 A 
ATOM      8  C   UNL     1       0.935  10.242  20.242  0.00  0.00    +0.000 A 
BRANCH   7   9
ATOM      9  C   UNL     1      -0.098  12.535  20.549  0.00  0.00    +0.000 A 
ATOM     10  C   UNL     1      -0.417  13.570  21.448  0.00  0.00    +0.000 A 
ATOM     11  C   UNL     1      -0.678  14.874  21.000  0.00  0.00    +0.000 A 
ATOM     12  C   UNL     1      -0.633  15.165  19.640  0.00  0.00    +0.000 A 
ATOM     13 CL   UNL     1      -0.979  16.755  19.087  0.00  0.00    +0.000 Cl
ATOM     14  C   UNL     1      -0.308  14.170  18.727  0.00  0.00    +0.000 A 
ATOM     15  C   UNL     1      -0.035  12.874  19.181  0.00  0.00    +0.000 A 
ENDBRANCH   7   9
ENDBRANCH   2   3
BRANCH   1  16
ATOM     16  N   UNL     1       2.629   5.996  19.129  0.00  0.00    +0.000 N 
ATOM     17  H   UNL     1       2.056   5.497  18.444  0.00  0.00    +0.000 HD
BRANCH  16  18
ATOM     18  C   UNL     1       3.619   5.062  19.675  0.00  0.00    +0.000 C 
BRANCH  18  23
ATOM     19  C   UNL     1       2.002   2.241  19.808  0.00  0.00    +0.000 C 
ATOM     20  C   UNL     1       1.240   2.421  18.486  0.00  0.00    +0.000 C 
ATOM     21  N   UNL     1       1.564   3.648  17.754  0.00  0.00    +0.000 NA
ATOM     22  C   UNL     1       3.002   3.790  17.525  0.00  0.00    +0.000 C 
ATOM     23  C   UNL     1       3.824   3.795  18.824  0.00  0.00    +0.000 C 
ATOM     24  C   UNL     1       3.507   2.513  19.626  0.00  0.00    +0.000 C 
ATOM     25  H   UNL     1       1.213   4.455  18.275  0.00  0.00    +0.000 HD
BRANCH  19  27
ATOM     26  O   UNL     1       1.585   2.872  22.125  0.00  0.00    +0.000 OA
ATOM     27  C   UNL     1       1.371   3.046  20.935  0.00  0.00    +0.000 C 
BRANCH  27  28
ATOM     28  O   UNL     1       0.537   4.020  20.506  0.00  0.00    +0.000 OA
ATOM     29  H   UNL     1       0.756   4.391  19.630  0.00  0.00    +0.000 HD
ENDBRANCH  27  28
ENDBRANCH  19  27
ENDBRANCH  18  23
ENDBRANCH  16  18
ENDBRANCH   1  16
TORSDOF 7
ENDMDL
MODEL 8
REMARK VINA RESULT:      -7.2      2.676      3.390
REMARK  Name = 
REMARK  7 active torsions:
REMARK  status: ('A' for Active; 'I' for Inactive)
REMARK    1  A    between atoms: C_2  and  O_3
REMARK    2  A    between atoms: C_2  and  C_4
REMARK    3  A    between atoms: C_8  and  C_9
REMARK    4  A    between atoms: C_9  and  N_10
REMARK    5  A    between atoms: N_10  and  N_11
REMARK    6  A    between atoms: C_12  and  C_13
REMARK    7  A    between atoms: C_17  and  C_18
REMARK                            x       y       z     vdW  Elec       q    Type
REMARK                         _______ _______ _______ _____ _____    ______ ____
ROOT
ATOM      1  N   UNL     1       2.169   7.504  18.646  0.00  0.00    +0.000 NA
ATOM      2  C   UNL     1       1.971   8.426  17.754  0.00  0.00    +0.000 C 
ENDROOT
BRANCH   2   3
ATOM      3  C   UNL     1       1.311   9.704  18.085  0.00  0.00    +0.000 A 
ATOM      4  C   UNL     1       2.071  10.795  18.500  0.00  0.00    +0.000 A 
ATOM      5  C   UNL     1       1.429  11.988  18.813  0.00  0.00    +0.000 A 
ATOM      6  C   UNL     1       0.035  12.075  18.737  0.00  0.00    +0.000 A 
ATOM      7  C   UNL     1      -0.762  10.976  18.355  0.00  0.00    +0.000 A 
ATOM      8  C   UNL     1      -0.088   9.790  18.003  0.00  0.00    +0.000 A 
BRANCH   7   9
ATOM      9  C   UNL     1      -2.245  11.072  18.356  0.00  0.00    +0.000 A 
ATOM     10  C   UNL     1      -2.934  12.007  19.150  0.00  0.00    +0.000 A 
ATOM     11  C   UNL     1      -4.335  12.076  19.149  0.00  0.00    +0.000 A 
ATOM     12  C   UNL     1      -5.075  11.203  18.357  0.00  0.00    +0.000 A 
ATOM     13 CL   UNL     1      -6.792  11.269  18.374  0.00  0.00    +0.000 Cl
ATOM     14  C   UNL     1      -4.426  10.277  17.552  0.00  0.00    +0.000 A 
ATOM     15  C   UNL     1      -3.026  10.221  17.547  0.00  0.00    +0.000 A 
ENDBRANCH   7   9
ENDBRANCH   2   3
BRANCH   1  16
ATOM     16  N   UNL     1       2.751   6.374  18.167  0.00  0.00    +0.000 N 
ATOM     17  H   UNL     1       2.099   5.734  17.709  0.00  0.00    +0.000 HD
BRANCH  16  18
ATOM     18  C   UNL     1       3.567   5.609  19.115  0.00  0.00    +0.000 C 
BRANCH  18  23
ATOM     19  C   UNL     1       2.580   2.596  19.847  0.00  0.00    +0.000 C 
ATOM     20  C   UNL     1       1.868   2.323  18.513  0.00  0.00    +0.000 C 
ATOM     21  N   UNL     1       1.964   3.409  17.534  0.00  0.00    +0.000 NA
ATOM     22  C   UNL     1       3.350   3.809  17.288  0.00  0.00    +0.000 C 
ATOM     23  C   UNL     1       4.081   4.267  18.561  0.00  0.00    +0.000 C 
ATOM     24  C   UNL     1       4.000   3.145  19.620  0.00  0.00    +0.000 C 
ATOM     25  H   UNL     1       1.423   4.210  17.865  0.00  0.00    +0.000 HD
BRANCH  19  27
ATOM     26  O   UNL     1       0.765   4.120  20.417  0.00  0.00    +0.000 OA
ATOM     27  C   UNL     1       1.733   3.463  20.768  0.00  0.00    +0.000 C 
BRANCH  27  28
ATOM     28  O   UNL     1       2.134   3.437  22.059  0.00  0.00    +0.000 OA
ATOM     29  H   UNL     1       2.943   3.949  22.248  0.00  0.00    +0.000 HD
ENDBRANCH  27  28
ENDBRANCH  19  27
ENDBRANCH  18  23
ENDBRANCH  16  18
ENDBRANCH   1  16
TORSDOF 7
ENDMDL
MODEL 9
REMARK VINA RESULT:      -7.2      2.693      3.468
REMARK  Name = 
REMARK  7 active torsions:
REMARK  status: ('A' for Active; 'I' for Inactive)
REMARK    1  A    between atoms: C_2  and  O_3
REMARK    2  A    between atoms: C_2  and  C_4
REMARK    3  A    between atoms: C_8  and  C_9
REMARK    4  A    between atoms: C_9  and  N_10
REMARK    5  A    between atoms: N_10  and  N_11
REMARK    6  A    between atoms: C_12  and  C_13
REMARK    7  A    between atoms: C_17  and  C_18
REMARK                            x       y       z     vdW  Elec       q    Type
REMARK                         _______ _______ _______ _____ _____    ______ ____
ROOT
ATOM      1  N   UNL     1       2.050   7.450  18.426  0.00  0.00    +0.000 NA
ATOM      2  C   UNL     1       2.263   8.557  17.782  0.00  0.00    +0.000 C 
ENDROOT
BRANCH   2   3
ATOM      3  C   UNL     1       1.512   9.792  18.082  0.00  0.00    +0.000 A 
ATOM      4  C   UNL     1       2.191  10.943  18.475  0.00  0.00    +0.000 A 
ATOM      5  C   UNL     1       1.464  12.094  18.759  0.00  0.00    +0.000 A 
ATOM      6  C   UNL     1       0.068  12.080  18.677  0.00  0.00    +0.000 A 
ATOM      7  C   UNL     1      -0.647  10.919  18.317  0.00  0.00    +0.000 A 
ATOM      8  C   UNL     1       0.111   9.776  17.994  0.00  0.00    +0.000 A 
BRANCH   7   9
ATOM      9  C   UNL     1      -2.133  10.910  18.311  0.00  0.00    +0.000 A 
ATOM     10  C   UNL     1      -2.874   9.883  17.697  0.00  0.00    +0.000 A 
ATOM     11  C   UNL     1      -4.276   9.895  17.690  0.00  0.00    +0.000 A 
ATOM     12  C   UNL     1      -4.966  10.943  18.293  0.00  0.00    +0.000 A 
ATOM     13 CL   UNL     1      -6.684  10.974  18.263  0.00  0.00    +0.000 Cl
ATOM     14  C   UNL     1      -4.266  11.966  18.920  0.00  0.00    +0.000 A 
ATOM     15  C   UNL     1      -2.866  11.941  18.935  0.00  0.00    +0.000 A 
ENDBRANCH   7   9
ENDBRANCH   2   3
BRANCH   1  16
ATOM     16  N   UNL     1       2.795   6.399  17.999  0.00  0.00    +0.000 N 
ATOM     17  H   UNL     1       2.324   5.810  17.308  0.00  0.00    +0.000 HD
BRANCH  16  18
ATOM     18  C   UNL     1       3.361   5.534  19.039  0.00  0.00    +0.000 C 
BRANCH  18  23
ATOM     19  C   UNL     1       2.697   2.484  19.957  0.00  0.00    +0.000 C 
ATOM     20  C   UNL     1       1.930   2.088  18.686  0.00  0.00    +0.000 C 
ATOM     21  N   UNL     1       1.865   3.132  17.660  0.00  0.00    +0.000 NA
ATOM     22  C   UNL     1       3.191   3.640  17.306  0.00  0.00    +0.000 C 
ATOM     23  C   UNL     1       3.957   4.218  18.506  0.00  0.00    +0.000 C 
ATOM     24  C   UNL     1       4.045   3.144  19.613  0.00  0.00    +0.000 C 
ATOM     25  H   UNL     1       1.276   3.898  17.994  0.00  0.00    +0.000 HD
BRANCH  19  27
ATOM     26  O   UNL     1       2.145   3.629  22.037  0.00  0.00    +0.000 OA
ATOM     27  C   UNL     1       1.836   3.315  20.897  0.00  0.00    +0.000 C 
BRANCH  27  28
ATOM     28  O   UNL     1       0.665   3.715  20.351  0.00  0.00    +0.000 OA
ATOM     29  H   UNL     1      -0.110   3.637  20.940  0.00  0.00    +0.000 HD
ENDBRANCH  27  28
ENDBRANCH  19  27
ENDBRANCH  18  23
ENDBRANCH  16  18
ENDBRANCH   1  16
TORSDOF 7
ENDMDL
