MODEL 1
REMARK VINA RESULT:      -8.2      0.000      0.000
REMARK  Name = 
REMARK  5 active torsions:
REMARK  status: ('A' for Active; 'I' for Inactive)
REMARK    1  A    between atoms: C_1  and  C_2
REMARK    2  A    between atoms: N_4  and  C_5
REMARK    3  A    between atoms: C_10  and  C_11
REMARK    4  A    between atoms: N_20  and  C_21
REMARK    5  A    between atoms: C_24  and  C_25
REMARK                            x       y       z     vdW  Elec       q    Type
REMARK                         _______ _______ _______ _____ _____    ______ ____
ROOT
ATOM      1  C   UNL     1       7.681   4.772  17.953  0.00  0.00    +0.000 C 
ATOM      2  C   UNL     1       7.051   5.948  18.704  0.00  0.00    +0.000 C 
ATOM      3  C   UNL     1       5.739   5.532  19.433  0.00  0.00    +0.000 C 
ATOM      4  N   UNL     1       4.559   5.453  18.543  0.00  0.00    +0.000 N 
ATOM      5  C   UNL     1       4.407   6.554  17.577  0.00  0.00    +0.000 C 
ATOM      6  C   UNL     1       5.711   6.876  16.848  0.00  0.00    +0.000 C 
ATOM      7  N   UNL     1       6.823   7.083  17.782  0.00  0.00    +0.000 N 
ATOM      8  C   UNL     1       7.406   8.340  17.800  0.00  0.00    +0.000 C 
ATOM      9  O   UNL     1       6.961   9.234  17.080  0.00  0.00    +0.000 OA
ATOM     10  N   UNL     1       8.494   8.501  18.625  0.00  0.00    +0.000 N 
ATOM     11  H   UNL     1       8.992   7.661  18.873  0.00  0.00    +0.000 HD
ENDROOT
BRANCH   4  12
ATOM     12  C   UNL     1       3.856   4.274  18.438  0.00  0.00    +0.000 A 
ATOM     13  N   UNL     1       4.415   3.331  17.632  0.00  0.00    +0.000 NA
ATOM     14  C   UNL     1       3.788   2.149  17.438  0.00  0.00    +0.000 A 
ATOM     15  C   UNL     1       2.588   1.818  18.018  0.00  0.00    +0.000 A 
ATOM     16  C   UNL     1       2.023   2.755  18.862  0.00  0.00    +0.000 A 
ATOM     17  C   UNL     1       2.661   3.993  19.105  0.00  0.00    +0.000 A 
BRANCH  17  18
ATOM     18  C   UNL     1       1.974   4.877  20.112  0.00  0.00    +0.000 C 
ATOM     19  F   UNL     1       1.853   6.197  19.815  0.00  0.00    +0.000 F 
ATOM     20  F   UNL     1       0.703   4.442  20.373  0.00  0.00    +0.000 F 
ATOM     21  F   UNL     1       2.607   4.858  21.324  0.00  0.00    +0.000 F 
ENDBRANCH  17  18
ENDBRANCH   4  12
BRANCH  10  22
ATOM     22  C   UNL     1       9.182   9.722  18.829  0.00  0.00    +0.000 A 
ATOM     23  C   UNL     1       9.311  10.327  20.085  0.00  0.00    +0.000 A 
ATOM     24  C   UNL     1       9.943  11.566  20.229  0.00  0.00    +0.000 A 
ATOM     25  C   UNL     1      10.486  12.222  19.120  0.00  0.00    +0.000 A 
ATOM     26  C   UNL     1      10.398  11.598  17.867  0.00  0.00    +0.000 A 
ATOM     27  C   UNL     1       9.757  10.357  17.724  0.00  0.00    +0.000 A 
BRANCH  25  28
ATOM     28  C   UNL     1      11.151  13.566  19.269  0.00  0.00    +0.000 C 
ATOM     29  F   UNL     1      12.124  13.801  18.344  0.00  0.00    +0.000 F 
ATOM     30  F   UNL     1      10.271  14.599  19.152  0.00  0.00    +0.000 F 
ATOM     31  F   UNL     1      11.749  13.722  20.483  0.00  0.00    +0.000 F 
ENDBRANCH  25  28
ENDBRANCH  10  22
TORSDOF 4
ENDMDL
MODEL 2
REMARK VINA RESULT:      -8.1      0.263      1.267
REMARK  Name = 
REMARK  5 active torsions:
REMARK  status: ('A' for Active; 'I' for Inactive)
REMARK    1  A    between atoms: C_1  and  C_2
REMARK    2  A    between atoms: N_4  and  C_5
REMARK    3  A    between atoms: C_10  and  C_11
REMARK    4  A    between atoms: N_20  and  C_21
REMARK    5  A    between atoms: C_24  and  C_25
REMARK                            x       y       z     vdW  Elec       q    Type
REMARK                         _______ _______ _______ _____ _____    ______ ____
ROOT
ATOM      1  C   UNL     1       7.597   4.706  17.922  0.00  0.00    +0.000 C 
ATOM      2  C   UNL     1       6.972   5.891  18.664  0.00  0.00    +0.000 C 
ATOM      3  C   UNL     1       5.679   5.478  19.427  0.00  0.00    +0.000 C 
ATOM      4  N   UNL     1       4.483   5.372  18.563  0.00  0.00    +0.000 N 
ATOM      5  C   UNL     1       4.301   6.453  17.579  0.00  0.00    +0.000 C 
ATOM      6  C   UNL     1       5.587   6.771  16.817  0.00  0.00    +0.000 C 
ATOM      7  N   UNL     1       6.716   7.006  17.724  0.00  0.00    +0.000 N 
ATOM      8  C   UNL     1       7.288   8.267  17.706  0.00  0.00    +0.000 C 
ATOM      9  O   UNL     1       6.821   9.144  16.978  0.00  0.00    +0.000 OA
ATOM     10  N   UNL     1       8.391   8.454  18.505  0.00  0.00    +0.000 N 
ATOM     11  H   UNL     1       8.901   7.623  18.758  0.00  0.00    +0.000 HD
ENDROOT
BRANCH   4  12
ATOM     12  C   UNL     1       3.787   4.185  18.496  0.00  0.00    +0.000 A 
ATOM     13  N   UNL     1       4.331   3.237  17.685  0.00  0.00    +0.000 NA
ATOM     14  C   UNL     1       3.708   2.047  17.526  0.00  0.00    +0.000 A 
ATOM     15  C   UNL     1       2.530   1.713  18.147  0.00  0.00    +0.000 A 
ATOM     16  C   UNL     1       1.983   2.656  18.997  0.00  0.00    +0.000 A 
ATOM     17  C   UNL     1       2.617   3.903  19.204  0.00  0.00    +0.000 A 
BRANCH  17  18
ATOM     18  C   UNL     1       1.952   4.793  20.220  0.00  0.00    +0.000 C 
ATOM     19  F   UNL     1       2.516   4.875  21.453  0.00  0.00    +0.000 F 
ATOM     20  F   UNL     1       1.863   6.082  19.771  0.00  0.00    +0.000 F 
ATOM     21  F   UNL     1       0.660   4.416  20.462  0.00  0.00    +0.000 F 
ENDBRANCH  17  18
ENDBRANCH   4  12
BRANCH  10  22
ATOM     22  C   UNL     1       9.073   9.684  18.671  0.00  0.00    +0.000 A 
ATOM     23  C   UNL     1       9.549  10.446  17.597  0.00  0.00    +0.000 A 
ATOM     24  C   UNL     1      10.275  11.621  17.810  0.00  0.00    +0.000 A 
ATOM     25  C   UNL     1      10.523  12.080  19.107  0.00  0.00    +0.000 A 
ATOM     26  C   UNL     1      10.009  11.344  20.185  0.00  0.00    +0.000 A 
ATOM     27  C   UNL     1       9.287  10.159  19.968  0.00  0.00    +0.000 A 
BRANCH  25  28
ATOM     28  C   UNL     1      11.320  13.338  19.341  0.00  0.00    +0.000 C 
ATOM     29  F   UNL     1      12.332  13.185  20.242  0.00  0.00    +0.000 F 
ATOM     30  F   UNL     1      11.905  13.802  18.202  0.00  0.00    +0.000 F 
ATOM     31  F   UNL     1      10.555  14.362  19.812  0.00  0.00    +0.000 F 
ENDBRANCH  25  28
ENDBRANCH  10  22
TORSDOF 4
ENDMDL
MODEL 3
REMARK VINA RESULT:      -8.1      0.157      1.018
REMARK  Name = 
REMARK  5 active torsions:
REMARK  status: ('A' for Active; 'I' for Inactive)
REMARK    1  A    between atoms: C_1  and  C_2
REMARK    2  A    between atoms: N_4  and  C_5
REMARK    3  A    between atoms: C_10  and  C_11
REMARK    4  A    between atoms: N_20  and  C_21
REMARK    5  A    between atoms: C_24  and  C_25
REMARK                            x       y       z     vdW  Elec       q    Type
REMARK                         _______ _______ _______ _____ _____    ______ ____
ROOT
ATOM      1  C   UNL     1       7.705   4.786  17.951  0.00  0.00    +0.000 C 
ATOM      2  C   UNL     1       7.063   5.951  18.709  0.00  0.00    +0.000 C 
ATOM      3  C   UNL     1       5.753   5.520  19.432  0.00  0.00    +0.000 C 
ATOM      4  N   UNL     1       4.576   5.436  18.539  0.00  0.00    +0.000 N 
ATOM      5  C   UNL     1       4.417   6.543  17.580  0.00  0.00    +0.000 C 
ATOM      6  C   UNL     1       5.720   6.881  16.856  0.00  0.00    +0.000 C 
ATOM      7  N   UNL     1       6.828   7.091  17.794  0.00  0.00    +0.000 N 
ATOM      8  C   UNL     1       7.399   8.352  17.822  0.00  0.00    +0.000 C 
ATOM      9  O   UNL     1       6.949   9.248  17.108  0.00  0.00    +0.000 OA
ATOM     10  N   UNL     1       8.484   8.517  18.651  0.00  0.00    +0.000 N 
ATOM     11  H   UNL     1       8.989   7.680  18.894  0.00  0.00    +0.000 HD
ENDROOT
BRANCH   4  12
ATOM     12  C   UNL     1       3.883   4.251  18.424  0.00  0.00    +0.000 A 
ATOM     13  N   UNL     1       4.457   3.317  17.619  0.00  0.00    +0.000 NA
ATOM     14  C   UNL     1       3.840   2.131  17.415  0.00  0.00    +0.000 A 
ATOM     15  C   UNL     1       2.639   1.787  17.985  0.00  0.00    +0.000 A 
ATOM     16  C   UNL     1       2.060   2.717  18.828  0.00  0.00    +0.000 A 
ATOM     17  C   UNL     1       2.686   3.959  19.081  0.00  0.00    +0.000 A 
BRANCH  17  18
ATOM     18  C   UNL     1       1.983   4.833  20.085  0.00  0.00    +0.000 C 
ATOM     19  F   UNL     1       0.706   4.513  20.418  0.00  0.00    +0.000 F 
ATOM     20  F   UNL     1       2.668   4.884  21.268  0.00  0.00    +0.000 F 
ATOM     21  F   UNL     1       1.909   6.133  19.666  0.00  0.00    +0.000 F 
ENDBRANCH  17  18
ENDBRANCH   4  12
BRANCH  10  22
ATOM     22  C   UNL     1       9.162   9.743  18.865  0.00  0.00    +0.000 A 
ATOM     23  C   UNL     1       9.216  10.380  20.110  0.00  0.00    +0.000 A 
ATOM     24  C   UNL     1       9.840  11.622  20.261  0.00  0.00    +0.000 A 
ATOM     25  C   UNL     1      10.450  12.249  19.171  0.00  0.00    +0.000 A 
ATOM     26  C   UNL     1      10.436  11.593  17.930  0.00  0.00    +0.000 A 
ATOM     27  C   UNL     1       9.803  10.349  17.781  0.00  0.00    +0.000 A 
BRANCH  25  28
ATOM     28  C   UNL     1      11.108  13.596  19.325  0.00  0.00    +0.000 C 
ATOM     29  F   UNL     1      11.320  13.957  20.622  0.00  0.00    +0.000 F 
ATOM     30  F   UNL     1      12.327  13.652  18.720  0.00  0.00    +0.000 F 
ATOM     31  F   UNL     1      10.373  14.603  18.776  0.00  0.00    +0.000 F 
ENDBRANCH  25  28
ENDBRANCH  10  22
TORSDOF 4
ENDMDL
MODEL 4
REMARK VINA RESULT:      -7.7      6.530      9.372
REMARK  Name = 
REMARK  5 active torsions:
REMARK  status: ('A' for Active; 'I' for Inactive)
REMARK    1  A    between atoms: C_1  and  C_2
REMARK    2  A    between atoms: N_4  and  C_5
REMARK    3  A    between atoms: C_10  and  C_11
REMARK    4  A    between atoms: N_20  and  C_21
REMARK    5  A    between atoms: C_24  and  C_25
REMARK                            x       y       z     vdW  Elec       q    Type
REMARK                         _______ _______ _______ _____ _____    ______ ____
ROOT
ATOM      1  C   UNL     1      -0.339   8.361  21.268  0.00  0.00    +0.000 C 
ATOM      2  C   UNL     1       0.987   8.964  20.796  0.00  0.00    +0.000 C 
ATOM      3  C   UNL     1       1.304  10.305  21.521  0.00  0.00    +0.000 C 
ATOM      4  N   UNL     1       0.567  11.468  20.978  0.00  0.00    +0.000 N 
ATOM      5  C   UNL     1       0.504  11.560  19.509  0.00  0.00    +0.000 C 
ATOM      6  C   UNL     1       0.128  10.231  18.856  0.00  0.00    +0.000 C 
ATOM      7  N   UNL     1       0.980   9.131  19.325  0.00  0.00    +0.000 N 
ATOM      8  C   UNL     1       1.776   8.505  18.381  0.00  0.00    +0.000 C 
ATOM      9  O   UNL     1       1.777   8.901  17.215  0.00  0.00    +0.000 OA
ATOM     10  N   UNL     1       2.514   7.429  18.816  0.00  0.00    +0.000 N 
ATOM     11  H   UNL     1       2.179   6.967  19.646  0.00  0.00    +0.000 HD
ENDROOT
BRANCH   4  12
ATOM     12  C   UNL     1      -0.248  12.211  21.802  0.00  0.00    +0.000 A 
ATOM     13  N   UNL     1      -1.253  11.519  22.406  0.00  0.00    +0.000 NA
ATOM     14  C   UNL     1      -2.127  12.163  23.211  0.00  0.00    +0.000 A 
ATOM     15  C   UNL     1      -2.072  13.509  23.477  0.00  0.00    +0.000 A 
ATOM     16  C   UNL     1      -1.038  14.218  22.893  0.00  0.00    +0.000 A 
ATOM     17  C   UNL     1      -0.093  13.575  22.062  0.00  0.00    +0.000 A 
BRANCH  17  18
ATOM     18  C   UNL     1       1.023  14.455  21.567  0.00  0.00    +0.000 C 
ATOM     19  F   UNL     1       2.287  13.960  21.617  0.00  0.00    +0.000 F 
ATOM     20  F   UNL     1       0.826  14.828  20.266  0.00  0.00    +0.000 F 
ATOM     21  F   UNL     1       1.092  15.631  22.262  0.00  0.00    +0.000 F 
ENDBRANCH  17  18
ENDBRANCH   4  12
BRANCH  10  22
ATOM     22  C   UNL     1       3.433   6.701  18.020  0.00  0.00    +0.000 A 
ATOM     23  C   UNL     1       4.523   7.295  17.374  0.00  0.00    +0.000 A 
ATOM     24  C   UNL     1       5.367   6.550  16.545  0.00  0.00    +0.000 A 
ATOM     25  C   UNL     1       5.155   5.180  16.360  0.00  0.00    +0.000 A 
ATOM     26  C   UNL     1       4.089   4.572  17.041  0.00  0.00    +0.000 A 
ATOM     27  C   UNL     1       3.240   5.325  17.867  0.00  0.00    +0.000 A 
BRANCH  25  28
ATOM     28  C   UNL     1       6.051   4.377  15.453  0.00  0.00    +0.000 C 
ATOM     29  F   UNL     1       5.846   4.617  14.127  0.00  0.00    +0.000 F 
ATOM     30  F   UNL     1       7.371   4.623  15.675  0.00  0.00    +0.000 F 
ATOM     31  F   UNL     1       5.890   3.034  15.615  0.00  0.00    +0.000 F 
ENDBRANCH  25  28
ENDBRANCH  10  22
TORSDOF 4
ENDMDL
MODEL 5
REMARK VINA RESULT:      -7.6      6.536      9.288
REMARK  Name = 
REMARK  5 active torsions:
REMARK  status: ('A' for Active; 'I' for Inactive)
REMARK    1  A    between atoms: C_1  and  C_2
REMARK    2  A    between atoms: N_4  and  C_5
REMARK    3  A    between atoms: C_10  and  C_11
REMARK    4  A    between atoms: N_20  and  C_21
REMARK    5  A    between atoms: C_24  and  C_25
REMARK                            x       y       z     vdW  Elec       q    Type
REMARK                         _______ _______ _______ _____ _____    ______ ____
ROOT
ATOM      1  C   UNL     1      -0.326   8.394  21.331  0.00  0.00    +0.000 C 
ATOM      2  C   UNL     1       0.991   8.993  20.828  0.00  0.00    +0.000 C 
ATOM      3  C   UNL     1       1.310  10.351  21.519  0.00  0.00    +0.000 C 
ATOM      4  N   UNL     1       0.561  11.498  20.961  0.00  0.00    +0.000 N 
ATOM      5  C   UNL     1       0.477  11.557  19.491  0.00  0.00    +0.000 C 
ATOM      6  C   UNL     1       0.099  10.212  18.873  0.00  0.00    +0.000 C 
ATOM      7  N   UNL     1       0.963   9.127  19.354  0.00  0.00    +0.000 N 
ATOM      8  C   UNL     1       1.749   8.484  18.413  0.00  0.00    +0.000 C 
ATOM      9  O   UNL     1       1.733   8.854  17.239  0.00  0.00    +0.000 OA
ATOM     10  N   UNL     1       2.499   7.421  18.862  0.00  0.00    +0.000 N 
ATOM     11  H   UNL     1       2.177   6.976  19.706  0.00  0.00    +0.000 HD
ENDROOT
BRANCH   4  12
ATOM     12  C   UNL     1      -0.247  12.255  21.779  0.00  0.00    +0.000 A 
ATOM     13  N   UNL     1      -1.269  11.582  22.374  0.00  0.00    +0.000 NA
ATOM     14  C   UNL     1      -2.138  12.241  23.173  0.00  0.00    +0.000 A 
ATOM     15  C   UNL     1      -2.059  13.585  23.441  0.00  0.00    +0.000 A 
ATOM     16  C   UNL     1      -1.008  14.276  22.867  0.00  0.00    +0.000 A 
ATOM     17  C   UNL     1      -0.069  13.615  22.042  0.00  0.00    +0.000 A 
BRANCH  17  18
ATOM     18  C   UNL     1       1.068  14.475  21.557  0.00  0.00    +0.000 C 
ATOM     19  F   UNL     1       2.331  13.997  21.708  0.00  0.00    +0.000 F 
ATOM     20  F   UNL     1       0.942  14.766  20.227  0.00  0.00    +0.000 F 
ATOM     21  F   UNL     1       1.090  15.692  22.182  0.00  0.00    +0.000 F 
ENDBRANCH  17  18
ENDBRANCH   4  12
BRANCH  10  22
ATOM     22  C   UNL     1       3.410   6.680  18.070  0.00  0.00    +0.000 A 
ATOM     23  C   UNL     1       3.277   5.307  17.833  0.00  0.00    +0.000 A 
ATOM     24  C   UNL     1       4.237   4.603  17.100  0.00  0.00    +0.000 A 
ATOM     25  C   UNL     1       5.346   5.263  16.562  0.00  0.00    +0.000 A 
ATOM     26  C   UNL     1       5.460   6.647  16.759  0.00  0.00    +0.000 A 
ATOM     27  C   UNL     1       4.498   7.349  17.502  0.00  0.00    +0.000 A 
BRANCH  25  28
ATOM     28  C   UNL     1       6.392   4.504  15.785  0.00  0.00    +0.000 C 
ATOM     29  F   UNL     1       5.975   3.280  15.355  0.00  0.00    +0.000 F 
ATOM     30  F   UNL     1       6.797   5.172  14.669  0.00  0.00    +0.000 F 
ATOM     31  F   UNL     1       7.521   4.277  16.514  0.00  0.00    +0.000 F 
ENDBRANCH  25  28
ENDBRANCH  10  22
TORSDOF 4
ENDMDL
MODEL 6
REMARK VINA RESULT:      -7.2      9.217     11.848
REMARK  Name = 
REMARK  5 active torsions:
REMARK  status: ('A' for Active; 'I' for Inactive)
REMARK    1  A    between atoms: C_1  and  C_2
REMARK    2  A    between atoms: N_4  and  C_5
REMARK    3  A    between atoms: C_10  and  C_11
REMARK    4  A    between atoms: N_20  and  C_21
REMARK    5  A    between atoms: C_24  and  C_25
REMARK                            x       y       z     vdW  Elec       q    Type
REMARK                         _______ _______ _______ _____ _____    ______ ____
ROOT
ATOM      1  C   UNL     1      -1.532  14.448  19.987  0.00  0.00    +0.000 C 
ATOM      2  C   UNL     1      -1.886  13.025  20.428  0.00  0.00    +0.000 C 
ATOM      3  C   UNL     1      -3.302  12.954  21.071  0.00  0.00    +0.000 C 
ATOM      4  N   UNL     1      -3.346  13.414  22.477  0.00  0.00    +0.000 N 
ATOM      5  C   UNL     1      -2.251  12.943  23.342  0.00  0.00    +0.000 C 
ATOM      6  C   UNL     1      -0.880  13.094  22.684  0.00  0.00    +0.000 C 
ATOM      7  N   UNL     1      -0.848  12.498  21.343  0.00  0.00    +0.000 N 
ATOM      8  C   UNL     1       0.015  11.433  21.147  0.00  0.00    +0.000 C 
ATOM      9  O   UNL     1       0.684  11.002  22.087  0.00  0.00    +0.000 OA
ATOM     10  N   UNL     1       0.091  10.930  19.870  0.00  0.00    +0.000 N 
ATOM     11  H   UNL     1      -0.188  11.554  19.130  0.00  0.00    +0.000 HD
ENDROOT
BRANCH   4  12
ATOM     12  C   UNL     1      -4.178  14.451  22.835  0.00  0.00    +0.000 A 
ATOM     13  N   UNL     1      -3.741  15.694  22.494  0.00  0.00    +0.000 NA
ATOM     14  C   UNL     1      -4.471  16.782  22.829  0.00  0.00    +0.000 A 
ATOM     15  C   UNL     1      -5.664  16.722  23.506  0.00  0.00    +0.000 A 
ATOM     16  C   UNL     1      -6.134  15.464  23.832  0.00  0.00    +0.000 A 
ATOM     17  C   UNL     1      -5.408  14.303  23.481  0.00  0.00    +0.000 A 
BRANCH  17  18
ATOM     18  C   UNL     1      -6.083  13.002  23.825  0.00  0.00    +0.000 C 
ATOM     19  F   UNL     1      -7.270  13.060  24.482  0.00  0.00    +0.000 F 
ATOM     20  F   UNL     1      -6.319  12.251  22.706  0.00  0.00    +0.000 F 
ATOM     21  F   UNL     1      -5.295  12.212  24.617  0.00  0.00    +0.000 F 
ENDBRANCH  17  18
ENDBRANCH   4  12
BRANCH  10  22
ATOM     22  C   UNL     1       0.864   9.807  19.485  0.00  0.00    +0.000 A 
ATOM     23  C   UNL     1       1.396   9.648  18.200  0.00  0.00    +0.000 A 
ATOM     24  C   UNL     1       2.097   8.492  17.846  0.00  0.00    +0.000 A 
ATOM     25  C   UNL     1       2.305   7.471  18.778  0.00  0.00    +0.000 A 
ATOM     26  C   UNL     1       1.812   7.646  20.080  0.00  0.00    +0.000 A 
ATOM     27  C   UNL     1       1.103   8.806  20.431  0.00  0.00    +0.000 A 
BRANCH  25  28
ATOM     28  C   UNL     1       3.045   6.215  18.395  0.00  0.00    +0.000 C 
ATOM     29  F   UNL     1       2.229   5.150  18.155  0.00  0.00    +0.000 F 
ATOM     30  F   UNL     1       3.789   6.374  17.266  0.00  0.00    +0.000 F 
ATOM     31  F   UNL     1       3.915   5.805  19.360  0.00  0.00    +0.000 F 
ENDBRANCH  25  28
ENDBRANCH  10  22
TORSDOF 4
ENDMDL
MODEL 7
REMARK VINA RESULT:      -6.9      7.356     11.333
REMARK  Name = 
REMARK  5 active torsions:
REMARK  status: ('A' for Active; 'I' for Inactive)
REMARK    1  A    between atoms: C_1  and  C_2
REMARK    2  A    between atoms: N_4  and  C_5
REMARK    3  A    between atoms: C_10  and  C_11
REMARK    4  A    between atoms: N_20  and  C_21
REMARK    5  A    between atoms: C_24  and  C_25
REMARK                            x       y       z     vdW  Elec       q    Type
REMARK                         _______ _______ _______ _____ _____    ______ ____
ROOT
ATOM      1  C   UNL     1       0.407  12.860  21.655  0.00  0.00    +0.000 C 
ATOM      2  C   UNL     1       1.227  12.423  20.437  0.00  0.00    +0.000 C 
ATOM      3  C   UNL     1       1.864  13.639  19.703  0.00  0.00    +0.000 C 
ATOM      4  N   UNL     1       0.924  14.368  18.824  0.00  0.00    +0.000 N 
ATOM      5  C   UNL     1       0.047  13.532  17.986  0.00  0.00    +0.000 C 
ATOM      6  C   UNL     1      -0.599  12.393  18.774  0.00  0.00    +0.000 C 
ATOM      7  N   UNL     1       0.394  11.613  19.521  0.00  0.00    +0.000 N 
ATOM      8  C   UNL     1       0.539  10.280  19.174  0.00  0.00    +0.000 C 
ATOM      9  O   UNL     1      -0.122   9.809  18.248  0.00  0.00    +0.000 OA
ATOM     10  N   UNL     1       1.418   9.540  19.930  0.00  0.00    +0.000 N 
ATOM     11  H   UNL     1       1.615   9.892  20.853  0.00  0.00    +0.000 HD
ENDROOT
BRANCH   4  12
ATOM     12  C   UNL     1       0.694  15.711  19.027  0.00  0.00    +0.000 A 
ATOM     13  N   UNL     1      -0.383  16.006  19.806  0.00  0.00    +0.000 NA
ATOM     14  C   UNL     1      -0.713  17.296  20.040  0.00  0.00    +0.000 A 
ATOM     15  C   UNL     1      -0.016  18.366  19.537  0.00  0.00    +0.000 A 
ATOM     16  C   UNL     1       1.097  18.080  18.768  0.00  0.00    +0.000 A 
ATOM     17  C   UNL     1       1.485  16.744  18.519  0.00  0.00    +0.000 A 
BRANCH  17  18
ATOM     18  C   UNL     1       2.763  16.587  17.739  0.00  0.00    +0.000 C 
ATOM     19  F   UNL     1       3.023  15.372  17.190  0.00  0.00    +0.000 F 
ATOM     20  F   UNL     1       2.830  17.478  16.704  0.00  0.00    +0.000 F 
ATOM     21  F   UNL     1       3.864  16.855  18.505  0.00  0.00    +0.000 F 
ENDBRANCH  17  18
ENDBRANCH   4  12
BRANCH  10  22
ATOM     22  C   UNL     1       1.750   8.184  19.691  0.00  0.00    +0.000 A 
ATOM     23  C   UNL     1       2.318   7.735  18.493  0.00  0.00    +0.000 A 
ATOM     24  C   UNL     1       2.569   6.377  18.276  0.00  0.00    +0.000 A 
ATOM     25  C   UNL     1       2.279   5.432  19.265  0.00  0.00    +0.000 A 
ATOM     26  C   UNL     1       1.751   5.883  20.484  0.00  0.00    +0.000 A 
ATOM     27  C   UNL     1       1.494   7.247  20.696  0.00  0.00    +0.000 A 
BRANCH  25  28
ATOM     28  C   UNL     1       2.531   3.965  19.027  0.00  0.00    +0.000 C 
ATOM     29  F   UNL     1       2.109   3.527  17.807  0.00  0.00    +0.000 F 
ATOM     30  F   UNL     1       3.853   3.646  19.099  0.00  0.00    +0.000 F 
ATOM     31  F   UNL     1       1.906   3.173  19.942  0.00  0.00    +0.000 F 
ENDBRANCH  25  28
ENDBRANCH  10  22
TORSDOF 4
ENDMDL
MODEL 8
REMARK VINA RESULT:      -6.9      7.464     10.834
REMARK  Name = 
REMARK  5 active torsions:
REMARK  status: ('A' for Active; 'I' for Inactive)
REMARK    1  A    between atoms: C_1  and  C_2
REMARK    2  A    between atoms: N_4  and  C_5
REMARK    3  A    between atoms: C_10  and  C_11
REMARK    4  A    between atoms: N_20  and  C_21
REMARK    5  A    between atoms: C_24  and  C_25
REMARK                            x       y       z     vdW  Elec       q    Type
REMARK                         _______ _______ _______ _____ _____    ______ ____
ROOT
ATOM      1  C   UNL     1      -0.390  11.342  21.898  0.00  0.00    +0.000 C 
ATOM      2  C   UNL     1       0.713  11.442  20.841  0.00  0.00    +0.000 C 
ATOM      3  C   UNL     1       1.208  12.907  20.659  0.00  0.00    +0.000 C 
ATOM      4  N   UNL     1       0.316  13.741  19.824  0.00  0.00    +0.000 N 
ATOM      5  C   UNL     1      -0.197  13.106  18.598  0.00  0.00    +0.000 C 
ATOM      6  C   UNL     1      -0.727  11.695  18.850  0.00  0.00    +0.000 C 
ATOM      7  N   UNL     1       0.251  10.862  19.560  0.00  0.00    +0.000 N 
ATOM      8  C   UNL     1       0.732   9.747  18.894  0.00  0.00    +0.000 C 
ATOM      9  O   UNL     1       0.366   9.514  17.742  0.00  0.00    +0.000 OA
ATOM     10  N   UNL     1       1.590   8.934  19.596  0.00  0.00    +0.000 N 
ATOM     11  H   UNL     1       1.536   8.993  20.600  0.00  0.00    +0.000 HD
ENDROOT
BRANCH   4  12
ATOM     12  C   UNL     1      -0.222  14.899  20.339  0.00  0.00    +0.000 A 
ATOM     13  N   UNL     1      -1.361  14.740  21.066  0.00  0.00    +0.000 NA
ATOM     14  C   UNL     1      -1.985  15.819  21.589  0.00  0.00    +0.000 A 
ATOM     15  C   UNL     1      -1.536  17.108  21.439  0.00  0.00    +0.000 A 
ATOM     16  C   UNL     1      -0.364  17.281  20.727  0.00  0.00    +0.000 A 
ATOM     17  C   UNL     1       0.327  16.174  20.183  0.00  0.00    +0.000 A 
BRANCH  17  18
ATOM     18  C   UNL     1       1.631  16.507  19.509  0.00  0.00    +0.000 C 
ATOM     19  F   UNL     1       2.757  15.911  19.981  0.00  0.00    +0.000 F 
ATOM     20  F   UNL     1       1.593  16.211  18.174  0.00  0.00    +0.000 F 
ATOM     21  F   UNL     1       1.908  17.845  19.564  0.00  0.00    +0.000 F 
ENDBRANCH  17  18
ENDBRANCH   4  12
BRANCH  10  22
ATOM     22  C   UNL     1       2.236   7.789  19.069  0.00  0.00    +0.000 A 
ATOM     23  C   UNL     1       3.018   7.818  17.908  0.00  0.00    +0.000 A 
ATOM     24  C   UNL     1       3.582   6.650  17.387  0.00  0.00    +0.000 A 
ATOM     25  C   UNL     1       3.398   5.422  18.029  0.00  0.00    +0.000 A 
ATOM     26  C   UNL     1       2.651   5.396  19.217  0.00  0.00    +0.000 A 
ATOM     27  C   UNL     1       2.080   6.570  19.734  0.00  0.00    +0.000 A 
BRANCH  25  28
ATOM     28  C   UNL     1       3.989   4.158  17.460  0.00  0.00    +0.000 C 
ATOM     29  F   UNL     1       4.566   3.353  18.397  0.00  0.00    +0.000 F 
ATOM     30  F   UNL     1       3.060   3.387  16.830  0.00  0.00    +0.000 F 
ATOM     31  F   UNL     1       4.959   4.404  16.536  0.00  0.00    +0.000 F 
ENDBRANCH  25  28
ENDBRANCH  10  22
TORSDOF 4
ENDMDL
MODEL 9
REMARK VINA RESULT:      -6.9      7.191     10.368
REMARK  Name = 
REMARK  5 active torsions:
REMARK  status: ('A' for Active; 'I' for Inactive)
REMARK    1  A    between atoms: C_1  and  C_2
REMARK    2  A    between atoms: N_4  and  C_5
REMARK    3  A    between atoms: C_10  and  C_11
REMARK    4  A    between atoms: N_20  and  C_21
REMARK    5  A    between atoms: C_24  and  C_25
REMARK                            x       y       z     vdW  Elec       q    Type
REMARK                         _______ _______ _______ _____ _____    ______ ____
ROOT
ATOM      1  C   UNL     1      -0.172  10.630  21.735  0.00  0.00    +0.000 C 
ATOM      2  C   UNL     1       0.927  10.841  20.690  0.00  0.00    +0.000 C 
ATOM      3  C   UNL     1       1.382  12.329  20.622  0.00  0.00    +0.000 C 
ATOM      4  N   UNL     1       0.466  13.201  19.854  0.00  0.00    +0.000 N 
ATOM      5  C   UNL     1      -0.032  12.649  18.582  0.00  0.00    +0.000 C 
ATOM      6  C   UNL     1      -0.522  11.208  18.723  0.00  0.00    +0.000 C 
ATOM      7  N   UNL     1       0.479  10.350  19.368  0.00  0.00    +0.000 N 
ATOM      8  C   UNL     1       0.989   9.304  18.617  0.00  0.00    +0.000 C 
ATOM      9  O   UNL     1       0.629   9.151  17.450  0.00  0.00    +0.000 OA
ATOM     10  N   UNL     1       1.870   8.463  19.255  0.00  0.00    +0.000 N 
ATOM     11  H   UNL     1       1.816   8.442  20.260  0.00  0.00    +0.000 HD
ENDROOT
BRANCH   4  12
ATOM     12  C   UNL     1      -0.103  14.301  20.456  0.00  0.00    +0.000 A 
ATOM     13  N   UNL     1      -1.155  14.036  21.277  0.00  0.00    +0.000 NA
ATOM     14  C   UNL     1      -1.803  15.051  21.893  0.00  0.00    +0.000 A 
ATOM     15  C   UNL     1      -1.462  16.373  21.749  0.00  0.00    +0.000 A 
ATOM     16  C   UNL     1      -0.377  16.653  20.940  0.00  0.00    +0.000 A 
ATOM     17  C   UNL     1       0.338  15.617  20.297  0.00  0.00    +0.000 A 
BRANCH  17  18
ATOM     18  C   UNL     1       1.546  16.064  19.519  0.00  0.00    +0.000 C 
ATOM     19  F   UNL     1       1.602  15.747  18.200  0.00  0.00    +0.000 F 
ATOM     20  F   UNL     1       1.703  17.422  19.577  0.00  0.00    +0.000 F 
ATOM     21  F   UNL     1       2.705  15.555  20.039  0.00  0.00    +0.000 F 
ENDBRANCH  17  18
ENDBRANCH   4  12
BRANCH  10  22
ATOM     22  C   UNL     1       2.546   7.380  18.641  0.00  0.00    +0.000 A 
ATOM     23  C   UNL     1       2.208   6.040  18.867  0.00  0.00    +0.000 A 
ATOM     24  C   UNL     1       2.945   5.001  18.291  0.00  0.00    +0.000 A 
ATOM     25  C   UNL     1       4.027   5.277  17.450  0.00  0.00    +0.000 A 
ATOM     26  C   UNL     1       4.341   6.619  17.185  0.00  0.00    +0.000 A 
ATOM     27  C   UNL     1       3.603   7.659  17.771  0.00  0.00    +0.000 A 
BRANCH  25  28
ATOM     28  C   UNL     1       4.835   4.160  16.841  0.00  0.00    +0.000 C 
ATOM     29  F   UNL     1       4.846   4.172  15.478  0.00  0.00    +0.000 F 
ATOM     30  F   UNL     1       6.141   4.194  17.223  0.00  0.00    +0.000 F 
ATOM     31  F   UNL     1       4.374   2.928  17.196  0.00  0.00    +0.000 F 
ENDBRANCH  25  28
ENDBRANCH  10  22
TORSDOF 4
ENDMDL
