MODEL 1
REMARK VINA RESULT:      -9.0      0.000      0.000
REMARK  Name = 
REMARK  3 active torsions:
REMARK  status: ('A' for Active; 'I' for Inactive)
REMARK    1  A    between atoms: C_1  and  N_2
REMARK    2  A    between atoms: C_12  and  C_13
REMARK    3  A    between atoms: C_17  and  C_18
REMARK                            x       y       z     vdW  Elec       q    Type
REMARK                         _______ _______ _______ _____ _____    ______ ____
ROOT
ATOM      1  C   UNL     1       1.669  12.732  18.183  0.00  0.00    +0.000 C 
ATOM      2  N   UNL     1       1.254  11.689  19.146  0.00  0.00    +0.000 N 
ATOM      3  C   UNL     1       0.548  12.079  20.229  0.00  0.00    +0.000 A 
ATOM      4  C   UNL     1       0.112  11.182  21.195  0.00  0.00    +0.000 A 
ATOM      5  C   UNL     1      -0.626  11.638  22.304  0.00  0.00    +0.000 A 
ATOM      6  C   UNL     1      -1.072  10.753  23.279  0.00  0.00    +0.000 A 
ATOM      7  C   UNL     1      -0.784   9.403  23.159  0.00  0.00    +0.000 A 
ATOM      8  C   UNL     1      -0.051   8.944  22.062  0.00  0.00    +0.000 A 
ATOM      9  C   UNL     1       0.420   9.818  21.047  0.00  0.00    +0.000 A 
ATOM     10  C   UNL     1       1.170   9.408  19.900  0.00  0.00    +0.000 A 
ATOM     11  C   UNL     1       1.538   8.062  19.660  0.00  0.00    +0.000 A 
ATOM     12  C   UNL     1       2.256   7.632  18.527  0.00  0.00    +0.000 A 
ATOM     13  C   UNL     1       2.633   8.610  17.608  0.00  0.00    +0.000 A 
ATOM     14  C   UNL     1       2.310   9.956  17.815  0.00  0.00    +0.000 A 
ATOM     15  C   UNL     1       1.579  10.377  18.945  0.00  0.00    +0.000 A 
ENDROOT
BRANCH  12  16
ATOM     16  C   UNL     1       2.615   6.207  18.354  0.00  0.00    +0.000 A 
ATOM     17  C   UNL     1       3.682   5.816  17.524  0.00  0.00    +0.000 A 
ATOM     18  C   UNL     1       3.973   4.469  17.296  0.00  0.00    +0.000 A 
ATOM     19  C   UNL     1       3.204   3.478  17.898  0.00  0.00    +0.000 A 
ATOM     20  C   UNL     1       2.143   3.825  18.740  0.00  0.00    +0.000 A 
ATOM     21  C   UNL     1       1.869   5.187  18.971  0.00  0.00    +0.000 A 
BRANCH  20  22
ATOM     22  C   UNL     1       1.270   2.772  19.378  0.00  0.00    +0.000 C 
ATOM     23  F   UNL     1       1.942   1.644  19.736  0.00  0.00    +0.000 F 
ATOM     24  F   UNL     1       0.656   3.224  20.505  0.00  0.00    +0.000 F 
ATOM     25  F   UNL     1       0.270   2.367  18.546  0.00  0.00    +0.000 F 
ENDBRANCH  20  22
ENDBRANCH  12  16
TORSDOF 2
ENDMDL
MODEL 2
REMARK VINA RESULT:      -8.9      4.066      6.249
REMARK  Name = 
REMARK  3 active torsions:
REMARK  status: ('A' for Active; 'I' for Inactive)
REMARK    1  A    between atoms: C_1  and  N_2
REMARK    2  A    between atoms: C_12  and  C_13
REMARK    3  A    between atoms: C_17  and  C_18
REMARK                            x       y       z     vdW  Elec       q    Type
REMARK                         _______ _______ _______ _____ _____    ______ ____
ROOT
ATOM      1  C   UNL     1       2.354   3.770  21.240  0.00  0.00    +0.000 C 
ATOM      2  N   UNL     1       2.488   4.908  20.303  0.00  0.00    +0.000 N 
ATOM      3  C   UNL     1       1.847   6.055  20.614  0.00  0.00    +0.000 A 
ATOM      4  C   UNL     1       1.904   7.181  19.805  0.00  0.00    +0.000 A 
ATOM      5  C   UNL     1       1.221   8.355  20.174  0.00  0.00    +0.000 A 
ATOM      6  C   UNL     1       1.269   9.493  19.376  0.00  0.00    +0.000 A 
ATOM      7  C   UNL     1       1.999   9.469  18.198  0.00  0.00    +0.000 A 
ATOM      8  C   UNL     1       2.678   8.308  17.824  0.00  0.00    +0.000 A 
ATOM      9  C   UNL     1       2.651   7.128  18.615  0.00  0.00    +0.000 A 
ATOM     10  C   UNL     1       3.328   5.911  18.287  0.00  0.00    +0.000 A 
ATOM     11  C   UNL     1       4.101   5.750  17.112  0.00  0.00    +0.000 A 
ATOM     12  C   UNL     1       4.794   4.569  16.781  0.00  0.00    +0.000 A 
ATOM     13  C   UNL     1       4.686   3.501  17.670  0.00  0.00    +0.000 A 
ATOM     14  C   UNL     1       3.915   3.608  18.833  0.00  0.00    +0.000 A 
ATOM     15  C   UNL     1       3.235   4.798  19.164  0.00  0.00    +0.000 A 
ENDROOT
BRANCH  12  16
ATOM     16  C   UNL     1       5.571   4.475  15.525  0.00  0.00    +0.000 A 
ATOM     17  C   UNL     1       6.844   5.062  15.405  0.00  0.00    +0.000 A 
ATOM     18  C   UNL     1       7.545   5.044  14.198  0.00  0.00    +0.000 A 
ATOM     19  C   UNL     1       6.991   4.431  13.078  0.00  0.00    +0.000 A 
ATOM     20  C   UNL     1       5.734   3.823  13.159  0.00  0.00    +0.000 A 
ATOM     21  C   UNL     1       5.043   3.839  14.387  0.00  0.00    +0.000 A 
BRANCH  20  22
ATOM     22  C   UNL     1       5.093   3.182  11.953  0.00  0.00    +0.000 C 
ATOM     23  F   UNL     1       5.301   3.862  10.793  0.00  0.00    +0.000 F 
ATOM     24  F   UNL     1       5.544   1.916  11.740  0.00  0.00    +0.000 F 
ATOM     25  F   UNL     1       3.741   3.077  12.090  0.00  0.00    +0.000 F 
ENDBRANCH  20  22
ENDBRANCH  12  16
TORSDOF 2
ENDMDL
MODEL 3
REMARK VINA RESULT:      -8.9      3.843      8.011
REMARK  Name = 
REMARK  3 active torsions:
REMARK  status: ('A' for Active; 'I' for Inactive)
REMARK    1  A    between atoms: C_1  and  N_2
REMARK    2  A    between atoms: C_12  and  C_13
REMARK    3  A    between atoms: C_17  and  C_18
REMARK                            x       y       z     vdW  Elec       q    Type
REMARK                         _______ _______ _______ _____ _____    ______ ____
ROOT
ATOM      1  C   UNL     1       2.836   1.974  19.323  0.00  0.00    +0.000 C 
ATOM      2  N   UNL     1       3.230   3.237  18.661  0.00  0.00    +0.000 N 
ATOM      3  C   UNL     1       4.056   3.155  17.595  0.00  0.00    +0.000 A 
ATOM      4  C   UNL     1       4.489   4.277  16.902  0.00  0.00    +0.000 A 
ATOM      5  C   UNL     1       5.346   4.140  15.795  0.00  0.00    +0.000 A 
ATOM      6  C   UNL     1       5.788   5.254  15.089  0.00  0.00    +0.000 A 
ATOM      7  C   UNL     1       5.379   6.517  15.483  0.00  0.00    +0.000 A 
ATOM      8  C   UNL     1       4.529   6.662  16.581  0.00  0.00    +0.000 A 
ATOM      9  C   UNL     1       4.058   5.547  17.325  0.00  0.00    +0.000 A 
ATOM     10  C   UNL     1       3.185   5.631  18.456  0.00  0.00    +0.000 A 
ATOM     11  C   UNL     1       2.700   6.859  18.966  0.00  0.00    +0.000 A 
ATOM     12  C   UNL     1       1.822   6.964  20.063  0.00  0.00    +0.000 A 
ATOM     13  C   UNL     1       1.433   5.775  20.678  0.00  0.00    +0.000 A 
ATOM     14  C   UNL     1       1.905   4.539  20.221  0.00  0.00    +0.000 A 
ATOM     15  C   UNL     1       2.774   4.442  19.115  0.00  0.00    +0.000 A 
ENDROOT
BRANCH  12  16
ATOM     16  C   UNL     1       1.368   8.287  20.546  0.00  0.00    +0.000 A 
ATOM     17  C   UNL     1       1.088   8.513  21.906  0.00  0.00    +0.000 A 
ATOM     18  C   UNL     1       0.583   9.737  22.353  0.00  0.00    +0.000 A 
ATOM     19  C   UNL     1       0.353  10.769  21.449  0.00  0.00    +0.000 A 
ATOM     20  C   UNL     1       0.632  10.589  20.090  0.00  0.00    +0.000 A 
ATOM     21  C   UNL     1       1.151   9.354  19.655  0.00  0.00    +0.000 A 
BRANCH  20  22
ATOM     22  C   UNL     1       0.359  11.678  19.081  0.00  0.00    +0.000 C 
ATOM     23  F   UNL     1      -0.101  12.834  19.632  0.00  0.00    +0.000 F 
ATOM     24  F   UNL     1       1.468  12.009  18.366  0.00  0.00    +0.000 F 
ATOM     25  F   UNL     1      -0.576  11.299  18.165  0.00  0.00    +0.000 F 
ENDBRANCH  20  22
ENDBRANCH  12  16
TORSDOF 2
ENDMDL
MODEL 4
REMARK VINA RESULT:      -8.9      3.815      6.958
REMARK  Name = 
REMARK  3 active torsions:
REMARK  status: ('A' for Active; 'I' for Inactive)
REMARK    1  A    between atoms: C_1  and  N_2
REMARK    2  A    between atoms: C_12  and  C_13
REMARK    3  A    between atoms: C_17  and  C_18
REMARK                            x       y       z     vdW  Elec       q    Type
REMARK                         _______ _______ _______ _____ _____    ______ ____
ROOT
ATOM      1  C   UNL     1       6.022   5.158  17.135  0.00  0.00    +0.000 C 
ATOM      2  N   UNL     1       4.855   5.092  18.043  0.00  0.00    +0.000 N 
ATOM      3  C   UNL     1       4.700   3.975  18.786  0.00  0.00    +0.000 A 
ATOM      4  C   UNL     1       3.641   3.809  19.667  0.00  0.00    +0.000 A 
ATOM      5  C   UNL     1       3.526   2.627  20.423  0.00  0.00    +0.000 A 
ATOM      6  C   UNL     1       2.472   2.446  21.311  0.00  0.00    +0.000 A 
ATOM      7  C   UNL     1       1.519   3.443  21.453  0.00  0.00    +0.000 A 
ATOM      8  C   UNL     1       1.627   4.618  20.706  0.00  0.00    +0.000 A 
ATOM      9  C   UNL     1       2.689   4.837  19.790  0.00  0.00    +0.000 A 
ATOM     10  C   UNL     1       2.854   6.018  19.000  0.00  0.00    +0.000 A 
ATOM     11  C   UNL     1       1.951   7.108  19.043  0.00  0.00    +0.000 A 
ATOM     12  C   UNL     1       2.106   8.289  18.292  0.00  0.00    +0.000 A 
ATOM     13  C   UNL     1       3.214   8.363  17.449  0.00  0.00    +0.000 A 
ATOM     14  C   UNL     1       4.122   7.302  17.358  0.00  0.00    +0.000 A 
ATOM     15  C   UNL     1       3.966   6.127  18.123  0.00  0.00    +0.000 A 
ENDROOT
BRANCH  12  16
ATOM     16  C   UNL     1       1.110   9.380  18.382  0.00  0.00    +0.000 A 
ATOM     17  C   UNL     1       1.344  10.522  19.170  0.00  0.00    +0.000 A 
ATOM     18  C   UNL     1       0.373  11.515  19.322  0.00  0.00    +0.000 A 
ATOM     19  C   UNL     1      -0.856  11.392  18.682  0.00  0.00    +0.000 A 
ATOM     20  C   UNL     1      -1.123  10.279  17.878  0.00  0.00    +0.000 A 
ATOM     21  C   UNL     1      -0.131   9.291  17.726  0.00  0.00    +0.000 A 
BRANCH  20  22
ATOM     22  C   UNL     1      -2.460  10.101  17.201  0.00  0.00    +0.000 C 
ATOM     23  F   UNL     1      -3.292   9.240  17.847  0.00  0.00    +0.000 F 
ATOM     24  F   UNL     1      -3.140  11.274  17.085  0.00  0.00    +0.000 F 
ATOM     25  F   UNL     1      -2.329   9.619  15.933  0.00  0.00    +0.000 F 
ENDBRANCH  20  22
ENDBRANCH  12  16
TORSDOF 2
ENDMDL
MODEL 5
REMARK VINA RESULT:      -8.8      0.991      1.094
REMARK  Name = 
REMARK  3 active torsions:
REMARK  status: ('A' for Active; 'I' for Inactive)
REMARK    1  A    between atoms: C_1  and  N_2
REMARK    2  A    between atoms: C_12  and  C_13
REMARK    3  A    between atoms: C_17  and  C_18
REMARK                            x       y       z     vdW  Elec       q    Type
REMARK                         _______ _______ _______ _____ _____    ______ ____
ROOT
ATOM      1  C   UNL     1       1.475  12.394  17.859  0.00  0.00    +0.000 C 
ATOM      2  N   UNL     1       1.122  11.457  18.949  0.00  0.00    +0.000 N 
ATOM      3  C   UNL     1       0.407  11.943  19.986  0.00  0.00    +0.000 A 
ATOM      4  C   UNL     1       0.026  11.152  21.061  0.00  0.00    +0.000 A 
ATOM      5  C   UNL     1      -0.723  11.703  22.117  0.00  0.00    +0.000 A 
ATOM      6  C   UNL     1      -1.115  10.924  23.200  0.00  0.00    +0.000 A 
ATOM      7  C   UNL     1      -0.761   9.585  23.241  0.00  0.00    +0.000 A 
ATOM      8  C   UNL     1      -0.017   9.031  22.197  0.00  0.00    +0.000 A 
ATOM      9  C   UNL     1       0.400   9.796  21.076  0.00  0.00    +0.000 A 
ATOM     10  C   UNL     1       1.159   9.285  19.977  0.00  0.00    +0.000 A 
ATOM     11  C   UNL     1       1.591   7.939  19.897  0.00  0.00    +0.000 A 
ATOM     12  C   UNL     1       2.320   7.409  18.814  0.00  0.00    +0.000 A 
ATOM     13  C   UNL     1       2.638   8.284  17.776  0.00  0.00    +0.000 A 
ATOM     14  C   UNL     1       2.250   9.628  17.823  0.00  0.00    +0.000 A 
ATOM     15  C   UNL     1       1.510  10.148  18.904  0.00  0.00    +0.000 A 
ENDROOT
BRANCH  12  16
ATOM     16  C   UNL     1       2.748   5.992  18.811  0.00  0.00    +0.000 A 
ATOM     17  C   UNL     1       3.324   5.404  17.670  0.00  0.00    +0.000 A 
ATOM     18  C   UNL     1       3.655   4.048  17.637  0.00  0.00    +0.000 A 
ATOM     19  C   UNL     1       3.422   3.245  18.750  0.00  0.00    +0.000 A 
ATOM     20  C   UNL     1       2.863   3.795  19.908  0.00  0.00    +0.000 A 
ATOM     21  C   UNL     1       2.545   5.167  19.931  0.00  0.00    +0.000 A 
BRANCH  20  22
ATOM     22  C   UNL     1       2.566   2.942  21.117  0.00  0.00    +0.000 C 
ATOM     23  F   UNL     1       3.592   2.124  21.478  0.00  0.00    +0.000 F 
ATOM     24  F   UNL     1       2.269   3.689  22.216  0.00  0.00    +0.000 F 
ATOM     25  F   UNL     1       1.490   2.131  20.917  0.00  0.00    +0.000 F 
ENDBRANCH  20  22
ENDBRANCH  12  16
TORSDOF 2
ENDMDL
MODEL 6
REMARK VINA RESULT:      -8.8      3.241      7.171
REMARK  Name = 
REMARK  3 active torsions:
REMARK  status: ('A' for Active; 'I' for Inactive)
REMARK    1  A    between atoms: C_1  and  N_2
REMARK    2  A    between atoms: C_12  and  C_13
REMARK    3  A    between atoms: C_17  and  C_18
REMARK                            x       y       z     vdW  Elec       q    Type
REMARK                         _______ _______ _______ _____ _____    ______ ____
ROOT
ATOM      1  C   UNL     1       5.842   5.390  15.911  0.00  0.00    +0.000 C 
ATOM      2  N   UNL     1       4.707   5.021  16.786  0.00  0.00    +0.000 N 
ATOM      3  C   UNL     1       4.480   3.708  16.999  0.00  0.00    +0.000 A 
ATOM      4  C   UNL     1       3.441   3.253  17.800  0.00  0.00    +0.000 A 
ATOM      5  C   UNL     1       3.247   1.873  17.995  0.00  0.00    +0.000 A 
ATOM      6  C   UNL     1       2.213   1.401  18.796  0.00  0.00    +0.000 A 
ATOM      7  C   UNL     1       1.360   2.303  19.410  0.00  0.00    +0.000 A 
ATOM      8  C   UNL     1       1.545   3.674  19.221  0.00  0.00    +0.000 A 
ATOM      9  C   UNL     1       2.590   4.192  18.410  0.00  0.00    +0.000 A 
ATOM     10  C   UNL     1       2.832   5.583  18.181  0.00  0.00    +0.000 A 
ATOM     11  C   UNL     1       2.032   6.607  18.742  0.00  0.00    +0.000 A 
ATOM     12  C   UNL     1       2.266   7.983  18.549  0.00  0.00    +0.000 A 
ATOM     13  C   UNL     1       3.346   8.335  17.740  0.00  0.00    +0.000 A 
ATOM     14  C   UNL     1       4.151   7.355  17.148  0.00  0.00    +0.000 A 
ATOM     15  C   UNL     1       3.918   5.980  17.356  0.00  0.00    +0.000 A 
ENDROOT
BRANCH  12  16
ATOM     16  C   UNL     1       1.375   8.995  19.159  0.00  0.00    +0.000 A 
ATOM     17  C   UNL     1       0.908  10.099  18.422  0.00  0.00    +0.000 A 
ATOM     18  C   UNL     1       0.133  11.098  19.016  0.00  0.00    +0.000 A 
ATOM     19  C   UNL     1      -0.200  11.013  20.365  0.00  0.00    +0.000 A 
ATOM     20  C   UNL     1       0.233   9.924  21.129  0.00  0.00    +0.000 A 
ATOM     21  C   UNL     1       1.004   8.919  20.514  0.00  0.00    +0.000 A 
BRANCH  20  22
ATOM     22  C   UNL     1      -0.082   9.824  22.601  0.00  0.00    +0.000 C 
ATOM     23  F   UNL     1       0.986   9.477  23.369  0.00  0.00    +0.000 F 
ATOM     24  F   UNL     1      -0.554  10.995  23.110  0.00  0.00    +0.000 F 
ATOM     25  F   UNL     1      -1.045   8.894  22.854  0.00  0.00    +0.000 F 
ENDBRANCH  20  22
ENDBRANCH  12  16
TORSDOF 2
ENDMDL
MODEL 7
REMARK VINA RESULT:      -8.8      3.966      7.325
REMARK  Name = 
REMARK  3 active torsions:
REMARK  status: ('A' for Active; 'I' for Inactive)
REMARK    1  A    between atoms: C_1  and  N_2
REMARK    2  A    between atoms: C_12  and  C_13
REMARK    3  A    between atoms: C_17  and  C_18
REMARK                            x       y       z     vdW  Elec       q    Type
REMARK                         _______ _______ _______ _____ _____    ______ ____
ROOT
ATOM      1  C   UNL     1       5.360   5.391  16.491  0.00  0.00    +0.000 C 
ATOM      2  N   UNL     1       4.498   5.214  17.680  0.00  0.00    +0.000 N 
ATOM      3  C   UNL     1       4.562   4.032  18.331  0.00  0.00    +0.000 A 
ATOM      4  C   UNL     1       3.795   3.761  19.455  0.00  0.00    +0.000 A 
ATOM      5  C   UNL     1       3.900   2.514  20.101  0.00  0.00    +0.000 A 
ATOM      6  C   UNL     1       3.140   2.227  21.230  0.00  0.00    +0.000 A 
ATOM      7  C   UNL     1       2.266   3.181  21.725  0.00  0.00    +0.000 A 
ATOM      8  C   UNL     1       2.156   4.419  21.089  0.00  0.00    +0.000 A 
ATOM      9  C   UNL     1       2.915   4.747  19.935  0.00  0.00    +0.000 A 
ATOM     10  C   UNL     1       2.849   5.997  19.242  0.00  0.00    +0.000 A 
ATOM     11  C   UNL     1       1.993   7.053  19.638  0.00  0.00    +0.000 A 
ATOM     12  C   UNL     1       1.927   8.300  18.986  0.00  0.00    +0.000 A 
ATOM     13  C   UNL     1       2.752   8.478  17.875  0.00  0.00    +0.000 A 
ATOM     14  C   UNL     1       3.598   7.454  17.435  0.00  0.00    +0.000 A 
ATOM     15  C   UNL     1       3.667   6.213  18.102  0.00  0.00    +0.000 A 
ENDROOT
BRANCH  12  16
ATOM     16  C   UNL     1       0.996   9.351  19.453  0.00  0.00    +0.000 A 
ATOM     17  C   UNL     1       0.833   9.629  20.822  0.00  0.00    +0.000 A 
ATOM     18  C   UNL     1      -0.104  10.563  21.271  0.00  0.00    +0.000 A 
ATOM     19  C   UNL     1      -0.898  11.249  20.356  0.00  0.00    +0.000 A 
ATOM     20  C   UNL     1      -0.757  11.012  18.986  0.00  0.00    +0.000 A 
ATOM     21  C   UNL     1       0.199  10.075  18.547  0.00  0.00    +0.000 A 
BRANCH  20  22
ATOM     22  C   UNL     1      -1.629  11.713  17.973  0.00  0.00    +0.000 C 
ATOM     23  F   UNL     1      -1.120  12.898  17.538  0.00  0.00    +0.000 F 
ATOM     24  F   UNL     1      -1.841  10.957  16.862  0.00  0.00    +0.000 F 
ATOM     25  F   UNL     1      -2.865  11.995  18.474  0.00  0.00    +0.000 F 
ENDBRANCH  20  22
ENDBRANCH  12  16
TORSDOF 2
ENDMDL
MODEL 8
REMARK VINA RESULT:      -8.7      3.590      7.891
REMARK  Name = 
REMARK  3 active torsions:
REMARK  status: ('A' for Active; 'I' for Inactive)
REMARK    1  A    between atoms: C_1  and  N_2
REMARK    2  A    between atoms: C_12  and  C_13
REMARK    3  A    between atoms: C_17  and  C_18
REMARK                            x       y       z     vdW  Elec       q    Type
REMARK                         _______ _______ _______ _____ _____    ______ ____
ROOT
ATOM      1  C   UNL     1       3.622   2.010  19.686  0.00  0.00    +0.000 C 
ATOM      2  N   UNL     1       3.852   3.202  18.839  0.00  0.00    +0.000 N 
ATOM      3  C   UNL     1       4.667   3.065  17.771  0.00  0.00    +0.000 A 
ATOM      4  C   UNL     1       4.952   4.119  16.914  0.00  0.00    +0.000 A 
ATOM      5  C   UNL     1       5.805   3.924  15.811  0.00  0.00    +0.000 A 
ATOM      6  C   UNL     1       6.099   4.968  14.941  0.00  0.00    +0.000 A 
ATOM      7  C   UNL     1       5.547   6.219  15.165  0.00  0.00    +0.000 A 
ATOM      8  C   UNL     1       4.701   6.420  16.258  0.00  0.00    +0.000 A 
ATOM      9  C   UNL     1       4.379   5.377  17.166  0.00  0.00    +0.000 A 
ATOM     10  C   UNL     1       3.518   5.520  18.300  0.00  0.00    +0.000 A 
ATOM     11  C   UNL     1       2.896   6.744  18.646  0.00  0.00    +0.000 A 
ATOM     12  C   UNL     1       2.027   6.902  19.744  0.00  0.00    +0.000 A 
ATOM     13  C   UNL     1       1.792   5.777  20.533  0.00  0.00    +0.000 A 
ATOM     14  C   UNL     1       2.403   4.552  20.241  0.00  0.00    +0.000 A 
ATOM     15  C   UNL     1       3.261   4.399  19.133  0.00  0.00    +0.000 A 
ENDROOT
BRANCH  12  16
ATOM     16  C   UNL     1       1.425   8.219  20.049  0.00  0.00    +0.000 A 
ATOM     17  C   UNL     1       1.497   9.286  19.135  0.00  0.00    +0.000 A 
ATOM     18  C   UNL     1       1.001  10.553  19.452  0.00  0.00    +0.000 A 
ATOM     19  C   UNL     1       0.414  10.782  20.693  0.00  0.00    +0.000 A 
ATOM     20  C   UNL     1       0.311   9.744  21.625  0.00  0.00    +0.000 A 
ATOM     21  C   UNL     1       0.805   8.469  21.287  0.00  0.00    +0.000 A 
BRANCH  20  22
ATOM     22  C   UNL     1      -0.288   9.972  22.991  0.00  0.00    +0.000 C 
ATOM     23  F   UNL     1      -1.463   9.316  23.192  0.00  0.00    +0.000 F 
ATOM     24  F   UNL     1       0.546   9.577  23.992  0.00  0.00    +0.000 F 
ATOM     25  F   UNL     1      -0.547  11.289  23.220  0.00  0.00    +0.000 F 
ENDBRANCH  20  22
ENDBRANCH  12  16
TORSDOF 2
ENDMDL
MODEL 9
REMARK VINA RESULT:      -8.7      3.722      7.859
REMARK  Name = 
REMARK  3 active torsions:
REMARK  status: ('A' for Active; 'I' for Inactive)
REMARK    1  A    between atoms: C_1  and  N_2
REMARK    2  A    between atoms: C_12  and  C_13
REMARK    3  A    between atoms: C_17  and  C_18
REMARK                            x       y       z     vdW  Elec       q    Type
REMARK                         _______ _______ _______ _____ _____    ______ ____
ROOT
ATOM      1  C   UNL     1       2.973   2.871  20.653  0.00  0.00    +0.000 C 
ATOM      2  N   UNL     1       3.300   3.914  19.655  0.00  0.00    +0.000 N 
ATOM      3  C   UNL     1       4.155   3.587  18.663  0.00  0.00    +0.000 A 
ATOM      4  C   UNL     1       4.531   4.489  17.677  0.00  0.00    +0.000 A 
ATOM      5  C   UNL     1       5.423   4.099  16.661  0.00  0.00    +0.000 A 
ATOM      6  C   UNL     1       5.808   4.990  15.665  0.00  0.00    +0.000 A 
ATOM      7  C   UNL     1       5.307   6.282  15.675  0.00  0.00    +0.000 A 
ATOM      8  C   UNL     1       4.423   6.677  16.681  0.00  0.00    +0.000 A 
ATOM      9  C   UNL     1       4.008   5.794  17.713  0.00  0.00    +0.000 A 
ATOM     10  C   UNL     1       3.104   6.138  18.767  0.00  0.00    +0.000 A 
ATOM     11  C   UNL     1       2.527   7.425  18.898  0.00  0.00    +0.000 A 
ATOM     12  C   UNL     1       1.617   7.779  19.914  0.00  0.00    +0.000 A 
ATOM     13  C   UNL     1       1.292   6.794  20.845  0.00  0.00    +0.000 A 
ATOM     14  C   UNL     1       1.855   5.515  20.767  0.00  0.00    +0.000 A 
ATOM     15  C   UNL     1       2.755   5.164  19.740  0.00  0.00    +0.000 A 
ENDROOT
BRANCH  12  16
ATOM     16  C   UNL     1       1.066   9.151  19.992  0.00  0.00    +0.000 A 
ATOM     17  C   UNL     1       1.312  10.097  18.979  0.00  0.00    +0.000 A 
ATOM     18  C   UNL     1       0.862  11.414  19.088  0.00  0.00    +0.000 A 
ATOM     19  C   UNL     1       0.148  11.817  20.212  0.00  0.00    +0.000 A 
ATOM     20  C   UNL     1      -0.129  10.904  21.234  0.00  0.00    +0.000 A 
ATOM     21  C   UNL     1       0.322   9.575  21.106  0.00  0.00    +0.000 A 
BRANCH  20  22
ATOM     22  C   UNL     1      -0.870  11.321  22.481  0.00  0.00    +0.000 C 
ATOM     23  F   UNL     1      -0.738  10.448  23.516  0.00  0.00    +0.000 F 
ATOM     24  F   UNL     1      -0.456  12.531  22.947  0.00  0.00    +0.000 F 
ATOM     25  F   UNL     1      -2.209  11.445  22.261  0.00  0.00    +0.000 F 
ENDBRANCH  20  22
ENDBRANCH  12  16
TORSDOF 2
ENDMDL
