MODEL 1
REMARK VINA RESULT:      -8.5      0.000      0.000
REMARK  Name = 
REMARK  13 active torsions:
REMARK  status: ('A' for Active; 'I' for Inactive)
REMARK    1  A    between atoms: C_1  and  C_2
REMARK    2  A    between atoms: C_2  and  N_3
REMARK    3  A    between atoms: N_3  and  C_4
REMARK    4  A    between atoms: C_4  and  C_5
REMARK    5  A    between atoms: C_9  and  C_10
REMARK    6  A    between atoms: C_15  and  C_16
REMARK    7  A    between atoms: N_17  and  C_18
REMARK    8  A    between atoms: C_18  and  C_19
REMARK    9  A    between atoms: C_25  and  O_26
REMARK   10  A    between atoms: O_26  and  C_27
REMARK   11  A    between atoms: C_27  and  C_28
REMARK   12  A    between atoms: C_28  and  C_29
REMARK   13  A    between atoms: C_28  and  C_30
REMARK                            x       y       z     vdW  Elec       q    Type
REMARK                         _______ _______ _______ _____ _____    ______ ____
ROOT
ATOM      1  C   UNL     1       8.040   8.742  17.936  0.00  0.00    +0.000 C 
ATOM      2  O   UNL     1       7.311   8.907  16.971  0.00  0.00    +0.000 OA
ATOM      3  N   UNL     1       8.291   7.540  18.582  0.00  0.00    +0.000 N 
ATOM      4  C   UNL     1       7.650   6.380  18.210  0.00  0.00    +0.000 A 
ATOM      5  C   UNL     1       7.345   5.929  16.912  0.00  0.00    +0.000 A 
ATOM      6  C   UNL     1       6.520   4.836  17.084  0.00  0.00    +0.000 A 
ATOM      7  C   UNL     1       5.850   3.992  16.068  0.00  0.00    +0.000 C 
ATOM      8  N   UNL     1       6.330   4.741  18.449  0.00  0.00    +0.000 N 
ATOM      9  N   UNL     1       7.208   5.525  19.136  0.00  0.00    +0.000 NA
ATOM     10  H   UNL     1       8.551   7.563  19.558  0.00  0.00    +0.000 HD
ENDROOT
BRANCH   1  15
ATOM     11  C   UNL     1       9.308  12.283  18.493  0.00  0.00    +0.000 A 
ATOM     12  C   UNL     1       9.845  12.152  19.783  0.00  0.00    +0.000 A 
ATOM     13  C   UNL     1       9.825  10.923  20.452  0.00  0.00    +0.000 A 
ATOM     14  C   UNL     1       9.236   9.813  19.849  0.00  0.00    +0.000 A 
ATOM     15  C   UNL     1       8.677   9.929  18.576  0.00  0.00    +0.000 A 
ATOM     16  C   UNL     1       8.728  11.151  17.889  0.00  0.00    +0.000 A 
BRANCH  11  17
ATOM     17  C   UNL     1       9.321  13.628  17.792  0.00  0.00    +0.000 C 
BRANCH  17  18
ATOM     18  N   UNL     1       8.009  13.965  17.230  0.00  0.00    +0.000 NA
ATOM     19  H   UNL     1       8.133  14.404  16.321  0.00  0.00    +0.000 HD
BRANCH  18  21
ATOM     20  C   UNL     1       5.770  14.674  17.881  0.00  0.00    +0.000 C 
ATOM     21  C   UNL     1       7.263  14.867  18.104  0.00  0.00    +0.000 C 
ENDBRANCH  18  21
ENDBRANCH  17  18
ENDBRANCH  11  17
ENDBRANCH   1  15
BRANCH   8  22
ATOM     22  C   UNL     1       5.211   4.090  19.165  0.00  0.00    +0.000 C 
BRANCH  22  23
ATOM     23  C   UNL     1       4.003   5.003  19.359  0.00  0.00    +0.000 A 
ATOM     24  C   UNL     1       3.868   6.169  18.567  0.00  0.00    +0.000 A 
ATOM     25  C   UNL     1       2.834   7.074  18.762  0.00  0.00    +0.000 A 
ATOM     26 CL   UNL     1       2.748   8.508  17.814  0.00  0.00    +0.000 Cl
ATOM     27  C   UNL     1       1.878   6.837  19.734  0.00  0.00    +0.000 A 
ATOM     28  C   UNL     1       1.952   5.665  20.489  0.00  0.00    +0.000 A 
ATOM     29  C   UNL     1       2.973   4.717  20.288  0.00  0.00    +0.000 A 
BRANCH  29  30
ATOM     30  O   UNL     1       2.992   3.506  20.959  0.00  0.00    +0.000 OA
BRANCH  30  31
ATOM     31  C   UNL     1       1.747   2.776  20.898  0.00  0.00    +0.000 C 
BRANCH  31  32
ATOM     32  C   UNL     1       1.564   1.968  19.603  0.00  0.00    +0.000 C 
ATOM     33  C   UNL     1       0.686   2.765  18.627  0.00  0.00    +0.000 C 
ATOM     34  C   UNL     1       2.901   1.640  18.948  0.00  0.00    +0.000 C 
ENDBRANCH  31  32
ENDBRANCH  30  31
ENDBRANCH  29  30
ENDBRANCH  22  23
ENDBRANCH   8  22
TORSDOF 9
ENDMDL
MODEL 2
REMARK VINA RESULT:      -8.4      0.859      1.456
REMARK  Name = 
REMARK  13 active torsions:
REMARK  status: ('A' for Active; 'I' for Inactive)
REMARK    1  A    between atoms: C_1  and  C_2
REMARK    2  A    between atoms: C_2  and  N_3
REMARK    3  A    between atoms: N_3  and  C_4
REMARK    4  A    between atoms: C_4  and  C_5
REMARK    5  A    between atoms: C_9  and  C_10
REMARK    6  A    between atoms: C_15  and  C_16
REMARK    7  A    between atoms: N_17  and  C_18
REMARK    8  A    between atoms: C_18  and  C_19
REMARK    9  A    between atoms: C_25  and  O_26
REMARK   10  A    between atoms: O_26  and  C_27
REMARK   11  A    between atoms: C_27  and  C_28
REMARK   12  A    between atoms: C_28  and  C_29
REMARK   13  A    between atoms: C_28  and  C_30
REMARK                            x       y       z     vdW  Elec       q    Type
REMARK                         _______ _______ _______ _____ _____    ______ ____
ROOT
ATOM      1  C   UNL     1       8.028   8.641  17.899  0.00  0.00    +0.000 C 
ATOM      2  O   UNL     1       7.333   8.779  16.905  0.00  0.00    +0.000 OA
ATOM      3  N   UNL     1       8.251   7.459  18.591  0.00  0.00    +0.000 N 
ATOM      4  C   UNL     1       7.617   6.291  18.233  0.00  0.00    +0.000 A 
ATOM      5  C   UNL     1       7.354   5.800  16.940  0.00  0.00    +0.000 A 
ATOM      6  C   UNL     1       6.518   4.716  17.118  0.00  0.00    +0.000 A 
ATOM      7  C   UNL     1       5.879   3.843  16.107  0.00  0.00    +0.000 C 
ATOM      8  N   UNL     1       6.281   4.665  18.478  0.00  0.00    +0.000 N 
ATOM      9  N   UNL     1       7.140   5.467  19.170  0.00  0.00    +0.000 NA
ATOM     10  H   UNL     1       8.477   7.513  19.574  0.00  0.00    +0.000 HD
ENDROOT
BRANCH   1  15
ATOM     11  C   UNL     1       9.172  12.226  18.446  0.00  0.00    +0.000 A 
ATOM     12  C   UNL     1       9.786  12.099  19.701  0.00  0.00    +0.000 A 
ATOM     13  C   UNL     1       9.858  10.861  20.348  0.00  0.00    +0.000 A 
ATOM     14  C   UNL     1       9.284   9.735  19.759  0.00  0.00    +0.000 A 
ATOM     15  C   UNL     1       8.649   9.845  18.523  0.00  0.00    +0.000 A 
ATOM     16  C   UNL     1       8.607  11.079  17.856  0.00  0.00    +0.000 A 
BRANCH  11  17
ATOM     17  C   UNL     1       9.086  13.581  17.769  0.00  0.00    +0.000 C 
BRANCH  17  18
ATOM     18  N   UNL     1      10.239  14.427  18.089  0.00  0.00    +0.000 NA
ATOM     19  H   UNL     1       9.917  15.365  18.317  0.00  0.00    +0.000 HD
BRANCH  18  21
ATOM     20  C   UNL     1      12.327  13.525  17.213  0.00  0.00    +0.000 C 
ATOM     21  C   UNL     1      11.181  14.499  16.974  0.00  0.00    +0.000 C 
ENDBRANCH  18  21
ENDBRANCH  17  18
ENDBRANCH  11  17
ENDBRANCH   1  15
BRANCH   8  22
ATOM     22  C   UNL     1       5.136   4.042  19.175  0.00  0.00    +0.000 C 
BRANCH  22  23
ATOM     23  C   UNL     1       3.954   4.989  19.368  0.00  0.00    +0.000 A 
ATOM     24  C   UNL     1       3.846   6.151  18.564  0.00  0.00    +0.000 A 
ATOM     25  C   UNL     1       2.839   7.086  18.756  0.00  0.00    +0.000 A 
ATOM     26 CL   UNL     1       2.786   8.512  17.794  0.00  0.00    +0.000 Cl
ATOM     27  C   UNL     1       1.883   6.886  19.737  0.00  0.00    +0.000 A 
ATOM     28  C   UNL     1       1.930   5.719  20.504  0.00  0.00    +0.000 A 
ATOM     29  C   UNL     1       2.923   4.741  20.307  0.00  0.00    +0.000 A 
BRANCH  29  30
ATOM     30  O   UNL     1       2.913   3.538  20.990  0.00  0.00    +0.000 OA
BRANCH  30  31
ATOM     31  C   UNL     1       1.648   2.843  20.946  0.00  0.00    +0.000 C 
BRANCH  31  32
ATOM     32  C   UNL     1       1.434   2.023  19.664  0.00  0.00    +0.000 C 
ATOM     33  C   UNL     1       0.605   2.847  18.667  0.00  0.00    +0.000 C 
ATOM     34  C   UNL     1       2.757   1.617  19.025  0.00  0.00    +0.000 C 
ENDBRANCH  31  32
ENDBRANCH  30  31
ENDBRANCH  29  30
ENDBRANCH  22  23
ENDBRANCH   8  22
TORSDOF 9
ENDMDL
MODEL 3
REMARK VINA RESULT:      -8.0      6.981     10.341
REMARK  Name = 
REMARK  13 active torsions:
REMARK  status: ('A' for Active; 'I' for Inactive)
REMARK    1  A    between atoms: C_1  and  C_2
REMARK    2  A    between atoms: C_2  and  N_3
REMARK    3  A    between atoms: N_3  and  C_4
REMARK    4  A    between atoms: C_4  and  C_5
REMARK    5  A    between atoms: C_9  and  C_10
REMARK    6  A    between atoms: C_15  and  C_16
REMARK    7  A    between atoms: N_17  and  C_18
REMARK    8  A    between atoms: C_18  and  C_19
REMARK    9  A    between atoms: C_25  and  O_26
REMARK   10  A    between atoms: O_26  and  C_27
REMARK   11  A    between atoms: C_27  and  C_28
REMARK   12  A    between atoms: C_28  and  C_29
REMARK   13  A    between atoms: C_28  and  C_30
REMARK                            x       y       z     vdW  Elec       q    Type
REMARK                         _______ _______ _______ _____ _____    ______ ____
ROOT
ATOM      1  C   UNL     1       0.350   9.259  20.623  0.00  0.00    +0.000 C 
ATOM      2  O   UNL     1      -0.454   8.621  21.285  0.00  0.00    +0.000 OA
ATOM      3  N   UNL     1       0.423  10.641  20.525  0.00  0.00    +0.000 N 
ATOM      4  C   UNL     1      -0.499  11.452  21.148  0.00  0.00    +0.000 A 
ATOM      5  C   UNL     1      -1.071  11.304  22.426  0.00  0.00    +0.000 A 
ATOM      6  C   UNL     1      -2.080  12.243  22.491  0.00  0.00    +0.000 A 
ATOM      7  C   UNL     1      -3.050  12.509  23.577  0.00  0.00    +0.000 C 
ATOM      8  N   UNL     1      -2.095  12.841  21.246  0.00  0.00    +0.000 N 
ATOM      9  N   UNL     1      -0.981  12.530  20.524  0.00  0.00    +0.000 NA
ATOM     10  H   UNL     1       0.815  11.043  19.685  0.00  0.00    +0.000 HD
ENDROOT
BRANCH   1  15
ATOM     11  C   UNL     1       2.740   6.596  19.338  0.00  0.00    +0.000 A 
ATOM     12  C   UNL     1       3.084   7.153  18.096  0.00  0.00    +0.000 A 
ATOM     13  C   UNL     1       2.573   8.391  17.694  0.00  0.00    +0.000 A 
ATOM     14  C   UNL     1       1.681   9.076  18.519  0.00  0.00    +0.000 A 
ATOM     15  C   UNL     1       1.310   8.528  19.747  0.00  0.00    +0.000 A 
ATOM     16  C   UNL     1       1.849   7.303  20.168  0.00  0.00    +0.000 A 
BRANCH  11  17
ATOM     17  C   UNL     1       3.289   5.242  19.748  0.00  0.00    +0.000 C 
BRANCH  17  18
ATOM     18  N   UNL     1       4.737   5.152  19.541  0.00  0.00    +0.000 NA
ATOM     19  H   UNL     1       5.060   5.981  19.047  0.00  0.00    +0.000 HD
BRANCH  18  21
ATOM     20  C   UNL     1       3.855   3.384  18.114  0.00  0.00    +0.000 C 
ATOM     21  C   UNL     1       5.099   3.962  18.774  0.00  0.00    +0.000 C 
ENDBRANCH  18  21
ENDBRANCH  17  18
ENDBRANCH  11  17
ENDBRANCH   1  15
BRANCH   8  22
ATOM     22  C   UNL     1      -3.217  13.552  20.596  0.00  0.00    +0.000 C 
BRANCH  22  23
ATOM     23  C   UNL     1      -4.410  12.650  20.289  0.00  0.00    +0.000 A 
ATOM     24  C   UNL     1      -5.532  12.650  21.154  0.00  0.00    +0.000 A 
ATOM     25  C   UNL     1      -6.604  11.790  20.967  0.00  0.00    +0.000 A 
ATOM     26 CL   UNL     1      -7.916  11.785  22.081  0.00  0.00    +0.000 Cl
ATOM     27  C   UNL     1      -6.614  10.916  19.894  0.00  0.00    +0.000 A 
ATOM     28  C   UNL     1      -5.549  10.937  18.991  0.00  0.00    +0.000 A 
ATOM     29  C   UNL     1      -4.465  11.823  19.141  0.00  0.00    +0.000 A 
BRANCH  29  30
ATOM     30  O   UNL     1      -3.461  11.921  18.194  0.00  0.00    +0.000 OA
BRANCH  30  31
ATOM     31  C   UNL     1      -3.819  11.400  16.896  0.00  0.00    +0.000 C 
BRANCH  31  32
ATOM     32  C   UNL     1      -3.119  10.078  16.542  0.00  0.00    +0.000 C 
ATOM     33  C   UNL     1      -2.948   9.985  15.018  0.00  0.00    +0.000 C 
ATOM     34  C   UNL     1      -1.760   9.958  17.223  0.00  0.00    +0.000 C 
ENDBRANCH  31  32
ENDBRANCH  30  31
ENDBRANCH  29  30
ENDBRANCH  22  23
ENDBRANCH   8  22
TORSDOF 9
ENDMDL
MODEL 4
REMARK VINA RESULT:      -7.7      5.182      9.045
REMARK  Name = 
REMARK  13 active torsions:
REMARK  status: ('A' for Active; 'I' for Inactive)
REMARK    1  A    between atoms: C_1  and  C_2
REMARK    2  A    between atoms: C_2  and  N_3
REMARK    3  A    between atoms: N_3  and  C_4
REMARK    4  A    between atoms: C_4  and  C_5
REMARK    5  A    between atoms: C_9  and  C_10
REMARK    6  A    between atoms: C_15  and  C_16
REMARK    7  A    between atoms: N_17  and  C_18
REMARK    8  A    between atoms: C_18  and  C_19
REMARK    9  A    between atoms: C_25  and  O_26
REMARK   10  A    between atoms: O_26  and  C_27
REMARK   11  A    between atoms: C_27  and  C_28
REMARK   12  A    between atoms: C_28  and  C_29
REMARK   13  A    between atoms: C_28  and  C_30
REMARK                            x       y       z     vdW  Elec       q    Type
REMARK                         _______ _______ _______ _____ _____    ______ ____
ROOT
ATOM      1  C   UNL     1       2.132   5.982  19.772  0.00  0.00    +0.000 C 
ATOM      2  O   UNL     1       1.418   5.439  20.601  0.00  0.00    +0.000 OA
ATOM      3  N   UNL     1       2.345   7.346  19.636  0.00  0.00    +0.000 N 
ATOM      4  C   UNL     1       1.678   8.256  20.425  0.00  0.00    +0.000 A 
ATOM      5  C   UNL     1       1.377   8.167  21.797  0.00  0.00    +0.000 A 
ATOM      6  C   UNL     1       0.522   9.219  22.057  0.00  0.00    +0.000 A 
ATOM      7  C   UNL     1      -0.158   9.590  23.319  0.00  0.00    +0.000 C 
ATOM      8  N   UNL     1       0.314   9.824  20.833  0.00  0.00    +0.000 N 
ATOM      9  N   UNL     1       1.205   9.388  19.898  0.00  0.00    +0.000 NA
ATOM     10  H   UNL     1       2.595   7.705  18.726  0.00  0.00    +0.000 HD
ENDROOT
BRANCH   1  15
ATOM     11  C   UNL     1       4.725   4.677  17.316  0.00  0.00    +0.000 A 
ATOM     12  C   UNL     1       4.032   3.577  16.789  0.00  0.00    +0.000 A 
ATOM     13  C   UNL     1       2.729   3.279  17.200  0.00  0.00    +0.000 A 
ATOM     14  C   UNL     1       2.111   4.064  18.173  0.00  0.00    +0.000 A 
ATOM     15  C   UNL     1       2.792   5.149  18.726  0.00  0.00    +0.000 A 
ATOM     16  C   UNL     1       4.086   5.470  18.289  0.00  0.00    +0.000 A 
BRANCH  11  17
ATOM     17  C   UNL     1       6.146   4.972  16.873  0.00  0.00    +0.000 C 
BRANCH  17  18
ATOM     18  N   UNL     1       6.192   5.528  15.517  0.00  0.00    +0.000 NA
ATOM     19  H   UNL     1       5.246   5.608  15.152  0.00  0.00    +0.000 HD
BRANCH  18  21
ATOM     20  C   UNL     1       6.058   3.921  13.688  0.00  0.00    +0.000 C 
ATOM     21  C   UNL     1       6.985   4.692  14.618  0.00  0.00    +0.000 C 
ENDBRANCH  18  21
ENDBRANCH  17  18
ENDBRANCH  11  17
ENDBRANCH   1  15
BRANCH   8  22
ATOM     22  C   UNL     1      -0.828  10.668  20.422  0.00  0.00    +0.000 C 
BRANCH  22  23
ATOM     23  C   UNL     1      -0.426  12.092  20.045  0.00  0.00    +0.000 A 
ATOM     24  C   UNL     1       0.377  12.854  20.930  0.00  0.00    +0.000 A 
ATOM     25  C   UNL     1       0.699  14.178  20.673  0.00  0.00    +0.000 A 
ATOM     26 CL   UNL     1       1.626  15.081  21.808  0.00  0.00    +0.000 Cl
ATOM     27  C   UNL     1       0.259  14.787  19.510  0.00  0.00    +0.000 A 
ATOM     28  C   UNL     1      -0.482  14.042  18.591  0.00  0.00    +0.000 A 
ATOM     29  C   UNL     1      -0.795  12.688  18.814  0.00  0.00    +0.000 A 
BRANCH  29  30
ATOM     30  O   UNL     1      -1.439  11.917  17.862  0.00  0.00    +0.000 OA
BRANCH  30  31
ATOM     31  C   UNL     1      -2.855  11.753  18.091  0.00  0.00    +0.000 C 
BRANCH  31  32
ATOM     32  C   UNL     1      -3.565  10.911  17.019  0.00  0.00    +0.000 C 
ATOM     33  C   UNL     1      -4.984  11.458  16.801  0.00  0.00    +0.000 C 
ATOM     34  C   UNL     1      -2.801  10.916  15.699  0.00  0.00    +0.000 C 
ENDBRANCH  31  32
ENDBRANCH  30  31
ENDBRANCH  29  30
ENDBRANCH  22  23
ENDBRANCH   8  22
TORSDOF 9
ENDMDL
MODEL 5
REMARK VINA RESULT:      -7.6      1.477      2.004
REMARK  Name = 
REMARK  13 active torsions:
REMARK  status: ('A' for Active; 'I' for Inactive)
REMARK    1  A    between atoms: C_1  and  C_2
REMARK    2  A    between atoms: C_2  and  N_3
REMARK    3  A    between atoms: N_3  and  C_4
REMARK    4  A    between atoms: C_4  and  C_5
REMARK    5  A    between atoms: C_9  and  C_10
REMARK    6  A    between atoms: C_15  and  C_16
REMARK    7  A    between atoms: N_17  and  C_18
REMARK    8  A    between atoms: C_18  and  C_19
REMARK    9  A    between atoms: C_25  and  O_26
REMARK   10  A    between atoms: O_26  and  C_27
REMARK   11  A    between atoms: C_27  and  C_28
REMARK   12  A    between atoms: C_28  and  C_29
REMARK   13  A    between atoms: C_28  and  C_30
REMARK                            x       y       z     vdW  Elec       q    Type
REMARK                         _______ _______ _______ _____ _____    ______ ____
ROOT
ATOM      1  C   UNL     1       8.387   9.328  18.146  0.00  0.00    +0.000 C 
ATOM      2  O   UNL     1       7.729   9.506  17.133  0.00  0.00    +0.000 OA
ATOM      3  N   UNL     1       8.585   8.120  18.798  0.00  0.00    +0.000 N 
ATOM      4  C   UNL     1       7.966   6.967  18.371  0.00  0.00    +0.000 A 
ATOM      5  C   UNL     1       7.752   6.528  17.050  0.00  0.00    +0.000 A 
ATOM      6  C   UNL     1       6.911   5.438  17.154  0.00  0.00    +0.000 A 
ATOM      7  C   UNL     1       6.311   4.606  16.086  0.00  0.00    +0.000 C 
ATOM      8  N   UNL     1       6.624   5.333  18.501  0.00  0.00    +0.000 N 
ATOM      9  N   UNL     1       7.456   6.106  19.255  0.00  0.00    +0.000 NA
ATOM     10  H   UNL     1       8.776   8.134  19.790  0.00  0.00    +0.000 HD
ENDROOT
BRANCH   1  15
ATOM     11  C   UNL     1       9.697  12.838  18.799  0.00  0.00    +0.000 A 
ATOM     12  C   UNL     1      10.073  12.713  20.145  0.00  0.00    +0.000 A 
ATOM     13  C   UNL     1       9.933  11.499  20.825  0.00  0.00    +0.000 A 
ATOM     14  C   UNL     1       9.383  10.396  20.172  0.00  0.00    +0.000 A 
ATOM     15  C   UNL     1       8.983  10.506  18.840  0.00  0.00    +0.000 A 
ATOM     16  C   UNL     1       9.155  11.714  18.146  0.00  0.00    +0.000 A 
BRANCH  11  17
ATOM     17  C   UNL     1       9.837  14.169  18.085  0.00  0.00    +0.000 C 
BRANCH  17  18
ATOM     18  N   UNL     1      11.139  14.792  18.339  0.00  0.00    +0.000 NA
ATOM     19  H   UNL     1      10.999  15.737  18.688  0.00  0.00    +0.000 HD
BRANCH  18  21
ATOM     20  C   UNL     1      12.333  13.427  16.710  0.00  0.00    +0.000 C 
ATOM     21  C   UNL     1      11.958  14.842  17.130  0.00  0.00    +0.000 C 
ENDBRANCH  18  21
ENDBRANCH  17  18
ENDBRANCH  11  17
ENDBRANCH   1  15
BRANCH   8  22
ATOM     22  C   UNL     1       5.455   4.682  19.130  0.00  0.00    +0.000 C 
BRANCH  22  23
ATOM     23  C   UNL     1       4.118   5.224  18.629  0.00  0.00    +0.000 A 
ATOM     24  C   UNL     1       3.950   6.618  18.440  0.00  0.00    +0.000 A 
ATOM     25  C   UNL     1       2.732   7.167  18.068  0.00  0.00    +0.000 A 
ATOM     26 CL   UNL     1       2.563   8.873  17.910  0.00  0.00    +0.000 Cl
ATOM     27  C   UNL     1       1.640   6.347  17.841  0.00  0.00    +0.000 A 
ATOM     28  C   UNL     1       1.793   4.964  17.961  0.00  0.00    +0.000 A 
ATOM     29  C   UNL     1       3.026   4.381  18.307  0.00  0.00    +0.000 A 
BRANCH  29  30
ATOM     30  O   UNL     1       3.210   3.009  18.325  0.00  0.00    +0.000 OA
BRANCH  30  31
ATOM     31  C   UNL     1       3.146   2.421  19.642  0.00  0.00    +0.000 C 
BRANCH  31  32
ATOM     32  C   UNL     1       1.728   2.011  20.071  0.00  0.00    +0.000 C 
ATOM     33  C   UNL     1       1.242   2.952  21.185  0.00  0.00    +0.000 C 
ATOM     34  C   UNL     1       0.751   2.046  18.901  0.00  0.00    +0.000 C 
ENDBRANCH  31  32
ENDBRANCH  30  31
ENDBRANCH  29  30
ENDBRANCH  22  23
ENDBRANCH   8  22
TORSDOF 9
ENDMDL
MODEL 6
REMARK VINA RESULT:      -7.6      7.702     11.163
REMARK  Name = 
REMARK  13 active torsions:
REMARK  status: ('A' for Active; 'I' for Inactive)
REMARK    1  A    between atoms: C_1  and  C_2
REMARK    2  A    between atoms: C_2  and  N_3
REMARK    3  A    between atoms: N_3  and  C_4
REMARK    4  A    between atoms: C_4  and  C_5
REMARK    5  A    between atoms: C_9  and  C_10
REMARK    6  A    between atoms: C_15  and  C_16
REMARK    7  A    between atoms: N_17  and  C_18
REMARK    8  A    between atoms: C_18  and  C_19
REMARK    9  A    between atoms: C_25  and  O_26
REMARK   10  A    between atoms: O_26  and  C_27
REMARK   11  A    between atoms: C_27  and  C_28
REMARK   12  A    between atoms: C_28  and  C_29
REMARK   13  A    between atoms: C_28  and  C_30
REMARK                            x       y       z     vdW  Elec       q    Type
REMARK                         _______ _______ _______ _____ _____    ______ ____
ROOT
ATOM      1  C   UNL     1       0.263   9.264  20.770  0.00  0.00    +0.000 C 
ATOM      2  O   UNL     1      -0.526   8.626  21.449  0.00  0.00    +0.000 OA
ATOM      3  N   UNL     1       0.313  10.645  20.646  0.00  0.00    +0.000 N 
ATOM      4  C   UNL     1      -0.617  11.453  21.261  0.00  0.00    +0.000 A 
ATOM      5  C   UNL     1      -1.178  11.318  22.546  0.00  0.00    +0.000 A 
ATOM      6  C   UNL     1      -2.202  12.242  22.601  0.00  0.00    +0.000 A 
ATOM      7  C   UNL     1      -3.169  12.512  23.690  0.00  0.00    +0.000 C 
ATOM      8  N   UNL     1      -2.235  12.818  21.346  0.00  0.00    +0.000 N 
ATOM      9  N   UNL     1      -1.122  12.511  20.622  0.00  0.00    +0.000 NA
ATOM     10  H   UNL     1       0.692  11.039  19.797  0.00  0.00    +0.000 HD
ENDROOT
BRANCH   1  15
ATOM     11  C   UNL     1       2.655   6.597  19.497  0.00  0.00    +0.000 A 
ATOM     12  C   UNL     1       3.013   7.158  18.261  0.00  0.00    +0.000 A 
ATOM     13  C   UNL     1       2.512   8.400  17.860  0.00  0.00    +0.000 A 
ATOM     14  C   UNL     1       1.615   9.086  18.679  0.00  0.00    +0.000 A 
ATOM     15  C   UNL     1       1.228   8.534  19.900  0.00  0.00    +0.000 A 
ATOM     16  C   UNL     1       1.758   7.304  20.321  0.00  0.00    +0.000 A 
BRANCH  11  17
ATOM     17  C   UNL     1       3.193   5.239  19.906  0.00  0.00    +0.000 C 
BRANCH  17  18
ATOM     18  N   UNL     1       2.625   4.786  21.180  0.00  0.00    +0.000 NA
ATOM     19  H   UNL     1       3.332   4.851  21.908  0.00  0.00    +0.000 HD
BRANCH  18  21
ATOM     20  C   UNL     1       0.903   3.354  20.217  0.00  0.00    +0.000 C 
ATOM     21  C   UNL     1       2.145   3.408  21.096  0.00  0.00    +0.000 C 
ENDBRANCH  18  21
ENDBRANCH  17  18
ENDBRANCH  11  17
ENDBRANCH   1  15
BRANCH   8  22
ATOM     22  C   UNL     1      -3.373  13.498  20.691  0.00  0.00    +0.000 C 
BRANCH  22  23
ATOM     23  C   UNL     1      -4.300  12.545  19.941  0.00  0.00    +0.000 A 
ATOM     24  C   UNL     1      -3.924  12.057  18.665  0.00  0.00    +0.000 A 
ATOM     25  C   UNL     1      -4.766  11.257  17.907  0.00  0.00    +0.000 A 
ATOM     26 CL   UNL     1      -4.288  10.740  16.336  0.00  0.00    +0.000 Cl
ATOM     27  C   UNL     1      -6.004  10.886  18.403  0.00  0.00    +0.000 A 
ATOM     28  C   UNL     1      -6.376  11.302  19.683  0.00  0.00    +0.000 A 
ATOM     29  C   UNL     1      -5.526  12.088  20.484  0.00  0.00    +0.000 A 
BRANCH  29  30
ATOM     30  O   UNL     1      -5.845  12.415  21.790  0.00  0.00    +0.000 OA
BRANCH  30  31
ATOM     31  C   UNL     1      -6.587  13.646  21.928  0.00  0.00    +0.000 C 
BRANCH  31  32
ATOM     32  C   UNL     1      -7.712  13.580  22.973  0.00  0.00    +0.000 C 
ATOM     33  C   UNL     1      -7.388  12.484  24.000  0.00  0.00    +0.000 C 
ATOM     34  C   UNL     1      -7.903  14.915  23.684  0.00  0.00    +0.000 C 
ENDBRANCH  31  32
ENDBRANCH  30  31
ENDBRANCH  29  30
ENDBRANCH  22  23
ENDBRANCH   8  22
TORSDOF 9
ENDMDL
MODEL 7
REMARK VINA RESULT:      -7.6      5.846      9.417
REMARK  Name = 
REMARK  13 active torsions:
REMARK  status: ('A' for Active; 'I' for Inactive)
REMARK    1  A    between atoms: C_1  and  C_2
REMARK    2  A    between atoms: C_2  and  N_3
REMARK    3  A    between atoms: N_3  and  C_4
REMARK    4  A    between atoms: C_4  and  C_5
REMARK    5  A    between atoms: C_9  and  C_10
REMARK    6  A    between atoms: C_15  and  C_16
REMARK    7  A    between atoms: N_17  and  C_18
REMARK    8  A    between atoms: C_18  and  C_19
REMARK    9  A    between atoms: C_25  and  O_26
REMARK   10  A    between atoms: O_26  and  C_27
REMARK   11  A    between atoms: C_27  and  C_28
REMARK   12  A    between atoms: C_28  and  C_29
REMARK   13  A    between atoms: C_28  and  C_30
REMARK                            x       y       z     vdW  Elec       q    Type
REMARK                         _______ _______ _______ _____ _____    ______ ____
ROOT
ATOM      1  C   UNL     1       2.049   6.191  19.882  0.00  0.00    +0.000 C 
ATOM      2  O   UNL     1       1.318   5.679  20.715  0.00  0.00    +0.000 OA
ATOM      3  N   UNL     1       2.217   7.549  19.657  0.00  0.00    +0.000 N 
ATOM      4  C   UNL     1       1.483   8.485  20.350  0.00  0.00    +0.000 A 
ATOM      5  C   UNL     1       1.122   8.480  21.711  0.00  0.00    +0.000 A 
ATOM      6  C   UNL     1       0.219   9.513  21.859  0.00  0.00    +0.000 A 
ATOM      7  C   UNL     1      -0.531   9.944  23.060  0.00  0.00    +0.000 C 
ATOM      8  N   UNL     1       0.045  10.023  20.586  0.00  0.00    +0.000 N 
ATOM      9  N   UNL     1       0.992   9.558  19.724  0.00  0.00    +0.000 NA
ATOM     10  H   UNL     1       2.495   7.854  18.735  0.00  0.00    +0.000 HD
ENDROOT
BRANCH   1  15
ATOM     11  C   UNL     1       4.891   4.554  17.957  0.00  0.00    +0.000 A 
ATOM     12  C   UNL     1       4.162   3.657  17.159  0.00  0.00    +0.000 A 
ATOM     13  C   UNL     1       2.766   3.606  17.221  0.00  0.00    +0.000 A 
ATOM     14  C   UNL     1       2.079   4.432  18.109  0.00  0.00    +0.000 A 
ATOM     15  C   UNL     1       2.786   5.314  18.927  0.00  0.00    +0.000 A 
ATOM     16  C   UNL     1       4.184   5.392  18.840  0.00  0.00    +0.000 A 
BRANCH  11  17
ATOM     17  C   UNL     1       6.406   4.581  17.891  0.00  0.00    +0.000 C 
BRANCH  17  18
ATOM     18  N   UNL     1       6.997   5.137  19.111  0.00  0.00    +0.000 NA
ATOM     19  H   UNL     1       6.262   5.530  19.694  0.00  0.00    +0.000 HD
BRANCH  18  21
ATOM     20  C   UNL     1       7.466   7.049  17.674  0.00  0.00    +0.000 C 
ATOM     21  C   UNL     1       7.980   6.175  18.810  0.00  0.00    +0.000 C 
ENDBRANCH  18  21
ENDBRANCH  17  18
ENDBRANCH  11  17
ENDBRANCH   1  15
BRANCH   8  22
ATOM     22  C   UNL     1      -1.108  10.790  20.068  0.00  0.00    +0.000 C 
BRANCH  22  23
ATOM     23  C   UNL     1      -0.986  12.295  20.293  0.00  0.00    +0.000 A 
ATOM     24  C   UNL     1      -0.113  13.059  19.481  0.00  0.00    +0.000 A 
ATOM     25  C   UNL     1       0.097  14.413  19.699  0.00  0.00    +0.000 A 
ATOM     26 CL   UNL     1       1.216  15.284  18.723  0.00  0.00    +0.000 Cl
ATOM     27  C   UNL     1      -0.577  15.065  20.716  0.00  0.00    +0.000 A 
ATOM     28  C   UNL     1      -1.491  14.350  21.493  0.00  0.00    +0.000 A 
ATOM     29  C   UNL     1      -1.744  12.983  21.271  0.00  0.00    +0.000 A 
BRANCH  29  30
ATOM     30  O   UNL     1      -2.723  12.296  21.969  0.00  0.00    +0.000 OA
BRANCH  30  31
ATOM     31  C   UNL     1      -4.037  12.888  21.882  0.00  0.00    +0.000 C 
BRANCH  31  32
ATOM     32  C   UNL     1      -4.781  12.949  23.225  0.00  0.00    +0.000 C 
ATOM     33  C   UNL     1      -4.032  13.893  24.178  0.00  0.00    +0.000 C 
ATOM     34  C   UNL     1      -6.221  13.422  23.053  0.00  0.00    +0.000 C 
ENDBRANCH  31  32
ENDBRANCH  30  31
ENDBRANCH  29  30
ENDBRANCH  22  23
ENDBRANCH   8  22
TORSDOF 9
ENDMDL
MODEL 8
REMARK VINA RESULT:      -7.5      5.339      9.243
REMARK  Name = 
REMARK  13 active torsions:
REMARK  status: ('A' for Active; 'I' for Inactive)
REMARK    1  A    between atoms: C_1  and  C_2
REMARK    2  A    between atoms: C_2  and  N_3
REMARK    3  A    between atoms: N_3  and  C_4
REMARK    4  A    between atoms: C_4  and  C_5
REMARK    5  A    between atoms: C_9  and  C_10
REMARK    6  A    between atoms: C_15  and  C_16
REMARK    7  A    between atoms: N_17  and  C_18
REMARK    8  A    between atoms: C_18  and  C_19
REMARK    9  A    between atoms: C_25  and  O_26
REMARK   10  A    between atoms: O_26  and  C_27
REMARK   11  A    between atoms: C_27  and  C_28
REMARK   12  A    between atoms: C_28  and  C_29
REMARK   13  A    between atoms: C_28  and  C_30
REMARK                            x       y       z     vdW  Elec       q    Type
REMARK                         _______ _______ _______ _____ _____    ______ ____
ROOT
ATOM      1  C   UNL     1       2.086   5.874  19.772  0.00  0.00    +0.000 C 
ATOM      2  O   UNL     1       1.332   5.438  20.628  0.00  0.00    +0.000 OA
ATOM      3  N   UNL     1       2.338   7.210  19.499  0.00  0.00    +0.000 N 
ATOM      4  C   UNL     1       1.672   8.214  20.165  0.00  0.00    +0.000 A 
ATOM      5  C   UNL     1       1.326   8.279  21.528  0.00  0.00    +0.000 A 
ATOM      6  C   UNL     1       0.492   9.372  21.648  0.00  0.00    +0.000 A 
ATOM      7  C   UNL     1      -0.217   9.891  22.840  0.00  0.00    +0.000 C 
ATOM      8  N   UNL     1       0.338   9.848  20.360  0.00  0.00    +0.000 N 
ATOM      9  N   UNL     1       1.245   9.295  19.507  0.00  0.00    +0.000 NA
ATOM     10  H   UNL     1       2.626   7.465  18.565  0.00  0.00    +0.000 HD
ENDROOT
BRANCH   1  15
ATOM     11  C   UNL     1       4.413   4.478  17.109  0.00  0.00    +0.000 A 
ATOM     12  C   UNL     1       4.022   3.130  17.122  0.00  0.00    +0.000 A 
ATOM     13  C   UNL     1       2.994   2.685  17.960  0.00  0.00    +0.000 A 
ATOM     14  C   UNL     1       2.364   3.581  18.824  0.00  0.00    +0.000 A 
ATOM     15  C   UNL     1       2.755   4.919  18.842  0.00  0.00    +0.000 A 
ATOM     16  C   UNL     1       3.761   5.375  17.976  0.00  0.00    +0.000 A 
BRANCH  11  17
ATOM     17  C   UNL     1       5.544   4.938  16.208  0.00  0.00    +0.000 C 
BRANCH  17  18
ATOM     18  N   UNL     1       6.521   5.758  16.930  0.00  0.00    +0.000 NA
ATOM     19  H   UNL     1       7.082   6.282  16.263  0.00  0.00    +0.000 HD
BRANCH  18  21
ATOM     20  C   UNL     1       7.708   5.679  19.058  0.00  0.00    +0.000 C 
ATOM     21  C   UNL     1       7.401   4.940  17.762  0.00  0.00    +0.000 C 
ENDBRANCH  18  21
ENDBRANCH  17  18
ENDBRANCH  11  17
ENDBRANCH   1  15
BRANCH   8  22
ATOM     22  C   UNL     1      -0.768  10.670  19.825  0.00  0.00    +0.000 C 
BRANCH  22  23
ATOM     23  C   UNL     1      -0.420  12.151  19.702  0.00  0.00    +0.000 A 
ATOM     24  C   UNL     1       0.699  12.549  18.930  0.00  0.00    +0.000 A 
ATOM     25  C   UNL     1       1.107  13.873  18.856  0.00  0.00    +0.000 A 
ATOM     26 CL   UNL     1       2.511  14.298  17.954  0.00  0.00    +0.000 Cl
ATOM     27  C   UNL     1       0.399  14.857  19.524  0.00  0.00    +0.000 A 
ATOM     28  C   UNL     1      -0.744  14.501  20.243  0.00  0.00    +0.000 A 
ATOM     29  C   UNL     1      -1.196  13.170  20.308  0.00  0.00    +0.000 A 
BRANCH  29  30
ATOM     30  O   UNL     1      -2.384  12.828  20.930  0.00  0.00    +0.000 OA
BRANCH  30  31
ATOM     31  C   UNL     1      -2.990  13.903  21.680  0.00  0.00    +0.000 C 
BRANCH  31  32
ATOM     32  C   UNL     1      -2.996  13.675  23.200  0.00  0.00    +0.000 C 
ATOM     33  C   UNL     1      -3.023  12.166  23.486  0.00  0.00    +0.000 C 
ATOM     34  C   UNL     1      -1.782  14.307  23.871  0.00  0.00    +0.000 C 
ENDBRANCH  31  32
ENDBRANCH  30  31
ENDBRANCH  29  30
ENDBRANCH  22  23
ENDBRANCH   8  22
TORSDOF 9
ENDMDL
MODEL 9
REMARK VINA RESULT:      -7.5      5.229      9.273
REMARK  Name = 
REMARK  13 active torsions:
REMARK  status: ('A' for Active; 'I' for Inactive)
REMARK    1  A    between atoms: C_1  and  C_2
REMARK    2  A    between atoms: C_2  and  N_3
REMARK    3  A    between atoms: N_3  and  C_4
REMARK    4  A    between atoms: C_4  and  C_5
REMARK    5  A    between atoms: C_9  and  C_10
REMARK    6  A    between atoms: C_15  and  C_16
REMARK    7  A    between atoms: N_17  and  C_18
REMARK    8  A    between atoms: C_18  and  C_19
REMARK    9  A    between atoms: C_25  and  O_26
REMARK   10  A    between atoms: O_26  and  C_27
REMARK   11  A    between atoms: C_27  and  C_28
REMARK   12  A    between atoms: C_28  and  C_29
REMARK   13  A    between atoms: C_28  and  C_30
REMARK                            x       y       z     vdW  Elec       q    Type
REMARK                         _______ _______ _______ _____ _____    ______ ____
ROOT
ATOM      1  C   UNL     1       2.043   5.560  19.889  0.00  0.00    +0.000 C 
ATOM      2  O   UNL     1       1.231   5.312  20.766  0.00  0.00    +0.000 OA
ATOM      3  N   UNL     1       2.401   6.820  19.431  0.00  0.00    +0.000 N 
ATOM      4  C   UNL     1       1.787   7.956  19.908  0.00  0.00    +0.000 A 
ATOM      5  C   UNL     1       1.399   8.250  21.229  0.00  0.00    +0.000 A 
ATOM      6  C   UNL     1       0.642   9.402  21.145  0.00  0.00    +0.000 A 
ATOM      7  C   UNL     1      -0.068  10.143  22.212  0.00  0.00    +0.000 C 
ATOM      8  N   UNL     1       0.568   9.685  19.794  0.00  0.00    +0.000 N 
ATOM      9  N   UNL     1       1.462   8.949  19.076  0.00  0.00    +0.000 NA
ATOM     10  H   UNL     1       2.738   6.909  18.483  0.00  0.00    +0.000 HD
ENDROOT
BRANCH   1  15
ATOM     11  C   UNL     1       4.204   3.641  17.417  0.00  0.00    +0.000 A 
ATOM     12  C   UNL     1       3.869   2.325  17.769  0.00  0.00    +0.000 A 
ATOM     13  C   UNL     1       2.931   2.061  18.773  0.00  0.00    +0.000 A 
ATOM     14  C   UNL     1       2.337   3.117  19.463  0.00  0.00    +0.000 A 
ATOM     15  C   UNL     1       2.673   4.433  19.144  0.00  0.00    +0.000 A 
ATOM     16  C   UNL     1       3.588   4.699  18.113  0.00  0.00    +0.000 A 
BRANCH  11  17
ATOM     17  C   UNL     1       5.239   3.907  16.341  0.00  0.00    +0.000 C 
BRANCH  17  18
ATOM     18  N   UNL     1       6.571   4.137  16.907  0.00  0.00    +0.000 NA
ATOM     19  H   UNL     1       6.522   4.079  17.921  0.00  0.00    +0.000 HD
BRANCH  18  21
ATOM     20  C   UNL     1       7.187   6.338  17.755  0.00  0.00    +0.000 C 
ATOM     21  C   UNL     1       7.101   5.445  16.525  0.00  0.00    +0.000 C 
ENDBRANCH  18  21
ENDBRANCH  17  18
ENDBRANCH  11  17
ENDBRANCH   1  15
BRANCH   8  22
ATOM     22  C   UNL     1      -0.457  10.487  19.092  0.00  0.00    +0.000 C 
BRANCH  22  23
ATOM     23  C   UNL     1      -0.209  11.991  19.171  0.00  0.00    +0.000 A 
ATOM     24  C   UNL     1       0.980  12.538  18.627  0.00  0.00    +0.000 A 
ATOM     25  C   UNL     1       1.291  13.884  18.747  0.00  0.00    +0.000 A 
ATOM     26 CL   UNL     1       2.777  14.489  18.123  0.00  0.00    +0.000 Cl
ATOM     27  C   UNL     1       0.416  14.745  19.388  0.00  0.00    +0.000 A 
ATOM     28  C   UNL     1      -0.791  14.245  19.879  0.00  0.00    +0.000 A 
ATOM     29  C   UNL     1      -1.144  12.889  19.742  0.00  0.00    +0.000 A 
BRANCH  29  30
ATOM     30  O   UNL     1      -2.382  12.409  20.133  0.00  0.00    +0.000 OA
BRANCH  30  31
ATOM     31  C   UNL     1      -2.884  12.995  21.355  0.00  0.00    +0.000 C 
BRANCH  31  32
ATOM     32  C   UNL     1      -4.372  13.375  21.296  0.00  0.00    +0.000 C 
ATOM     33  C   UNL     1      -5.040  12.630  20.130  0.00  0.00    +0.000 C 
ATOM     34  C   UNL     1      -5.091  13.046  22.600  0.00  0.00    +0.000 C 
ENDBRANCH  31  32
ENDBRANCH  30  31
ENDBRANCH  29  30
ENDBRANCH  22  23
ENDBRANCH   8  22
TORSDOF 9
ENDMDL
