MODEL 1
REMARK VINA RESULT:      -7.5      0.000      0.000
REMARK  Name = 
REMARK  7 active torsions:
REMARK  status: ('A' for Active; 'I' for Inactive)
REMARK    1  A    between atoms: C_1  and  C_2
REMARK    2  A    between atoms: C_2  and  C_3
REMARK    3  A    between atoms: C_2  and  C_4
REMARK    4  A    between atoms: C_4  and  N_5
REMARK    5  A    between atoms: C_6  and  C_8
REMARK    6  A    between atoms: N_10  and  C_11
REMARK    7  A    between atoms: C_11  and  C_12
REMARK                            x       y       z     vdW  Elec       q    Type
REMARK                         _______ _______ _______ _____ _____    ______ ____
ROOT
ATOM      1  C   UNL     1       6.769   4.812  16.215  0.00  0.00    +0.000 C 
ATOM      2  O   UNL     1       7.707   4.700  16.992  0.00  0.00    +0.000 OA
ATOM      3  N   UNL     1       5.444   4.947  16.551  0.00  0.00    +0.000 N 
ATOM      4  H   UNL     1       4.780   5.021  15.786  0.00  0.00    +0.000 HD
ENDROOT
BRANCH   1   6
ATOM      5  N   UNL     1       6.274   3.887  14.001  0.00  0.00    +0.000 N 
ATOM      6  C   UNL     1       7.026   4.815  14.689  0.00  0.00    +0.000 C 
ATOM      7  O   UNL     1       7.836   5.592  14.204  0.00  0.00    +0.000 OA
ATOM      8  H   UNL     1       5.684   3.282  14.563  0.00  0.00    +0.000 HD
BRANCH   5   9
ATOM      9  C   UNL     1       6.365   3.698  12.569  0.00  0.00    +0.000 C 
BRANCH   9  11
ATOM     10  C   UNL     1       4.262   3.164  11.257  0.00  0.00    +0.000 C 
ATOM     11  C   UNL     1       5.437   2.589  12.052  0.00  0.00    +0.000 C 
ATOM     12  C   UNL     1       6.218   1.608  11.175  0.00  0.00    +0.000 C 
ENDBRANCH   9  11
ENDBRANCH   5   9
ENDBRANCH   1   6
BRANCH   3  13
ATOM     13  C   UNL     1       4.977   4.978  17.914  0.00  0.00    +0.000 C 
BRANCH  13  14
ATOM     14  C   UNL     1       3.752   4.118  18.092  0.00  0.00    +0.000 A 
ATOM     15  C   UNL     1       2.473   4.687  18.023  0.00  0.00    +0.000 A 
ATOM     16  C   UNL     1       1.333   3.895  18.185  0.00  0.00    +0.000 A 
ATOM     17  C   UNL     1       1.463   2.528  18.425  0.00  0.00    +0.000 A 
ATOM     18  C   UNL     1       2.730   1.954  18.509  0.00  0.00    +0.000 A 
ATOM     19  C   UNL     1       3.870   2.744  18.348  0.00  0.00    +0.000 A 
ENDBRANCH  13  14
ENDBRANCH   3  13
TORSDOF 5
ENDMDL
MODEL 2
REMARK VINA RESULT:      -7.2      0.493      1.206
REMARK  Name = 
REMARK  7 active torsions:
REMARK  status: ('A' for Active; 'I' for Inactive)
REMARK    1  A    between atoms: C_1  and  C_2
REMARK    2  A    between atoms: C_2  and  C_3
REMARK    3  A    between atoms: C_2  and  C_4
REMARK    4  A    between atoms: C_4  and  N_5
REMARK    5  A    between atoms: C_6  and  C_8
REMARK    6  A    between atoms: N_10  and  C_11
REMARK    7  A    between atoms: C_11  and  C_12
REMARK                            x       y       z     vdW  Elec       q    Type
REMARK                         _______ _______ _______ _____ _____    ______ ____
ROOT
ATOM      1  C   UNL     1       6.555   4.880  16.035  0.00  0.00    +0.000 C 
ATOM      2  O   UNL     1       7.392   4.537  16.858  0.00  0.00    +0.000 OA
ATOM      3  N   UNL     1       5.296   5.358  16.303  0.00  0.00    +0.000 N 
ATOM      4  H   UNL     1       4.713   5.593  15.505  0.00  0.00    +0.000 HD
ENDROOT
BRANCH   1   6
ATOM      5  N   UNL     1       6.224   3.780  13.871  0.00  0.00    +0.000 N 
ATOM      6  C   UNL     1       6.881   4.801  14.523  0.00  0.00    +0.000 C 
ATOM      7  O   UNL     1       7.659   5.598  14.020  0.00  0.00    +0.000 OA
ATOM      8  H   UNL     1       5.649   3.173  14.449  0.00  0.00    +0.000 HD
BRANCH   5   9
ATOM      9  C   UNL     1       6.392   3.503  12.460  0.00  0.00    +0.000 C 
BRANCH   9  11
ATOM     10  C   UNL     1       4.311   3.121  11.062  0.00  0.00    +0.000 C 
ATOM     11  C   UNL     1       5.389   2.468  11.930  0.00  0.00    +0.000 C 
ATOM     12  C   UNL     1       6.116   1.392  11.120  0.00  0.00    +0.000 C 
ENDBRANCH   9  11
ENDBRANCH   5   9
ENDBRANCH   1   6
BRANCH   3  13
ATOM     13  C   UNL     1       4.785   5.523  17.640  0.00  0.00    +0.000 C 
BRANCH  13  14
ATOM     14  C   UNL     1       3.870   4.387  18.021  0.00  0.00    +0.000 A 
ATOM     15  C   UNL     1       4.364   3.296  18.750  0.00  0.00    +0.000 A 
ATOM     16  C   UNL     1       3.521   2.241  19.109  0.00  0.00    +0.000 A 
ATOM     17  C   UNL     1       2.178   2.264  18.735  0.00  0.00    +0.000 A 
ATOM     18  C   UNL     1       1.679   3.337  17.999  0.00  0.00    +0.000 A 
ATOM     19  C   UNL     1       2.521   4.392  17.639  0.00  0.00    +0.000 A 
ENDBRANCH  13  14
ENDBRANCH   3  13
TORSDOF 5
ENDMDL
MODEL 3
REMARK VINA RESULT:      -7.2      0.862      1.421
REMARK  Name = 
REMARK  7 active torsions:
REMARK  status: ('A' for Active; 'I' for Inactive)
REMARK    1  A    between atoms: C_1  and  C_2
REMARK    2  A    between atoms: C_2  and  C_3
REMARK    3  A    between atoms: C_2  and  C_4
REMARK    4  A    between atoms: C_4  and  N_5
REMARK    5  A    between atoms: C_6  and  C_8
REMARK    6  A    between atoms: N_10  and  C_11
REMARK    7  A    between atoms: C_11  and  C_12
REMARK                            x       y       z     vdW  Elec       q    Type
REMARK                         _______ _______ _______ _____ _____    ______ ____
ROOT
ATOM      1  C   UNL     1       5.985   5.199  16.133  0.00  0.00    +0.000 C 
ATOM      2  O   UNL     1       5.531   6.317  16.333  0.00  0.00    +0.000 OA
ATOM      3  N   UNL     1       5.970   4.144  17.012  0.00  0.00    +0.000 N 
ATOM      4  H   UNL     1       6.397   3.277  16.699  0.00  0.00    +0.000 HD
ENDROOT
BRANCH   1   6
ATOM      5  N   UNL     1       5.871   4.072  13.961  0.00  0.00    +0.000 N 
ATOM      6  C   UNL     1       6.649   4.866  14.775  0.00  0.00    +0.000 C 
ATOM      7  O   UNL     1       7.763   5.297  14.514  0.00  0.00    +0.000 OA
ATOM      8  H   UNL     1       4.988   3.757  14.351  0.00  0.00    +0.000 HD
BRANCH   5   9
ATOM      9  C   UNL     1       6.297   3.619  12.654  0.00  0.00    +0.000 C 
BRANCH   9  11
ATOM     10  C   UNL     1       4.262   3.194  11.202  0.00  0.00    +0.000 C 
ATOM     11  C   UNL     1       5.363   2.558  12.054  0.00  0.00    +0.000 C 
ATOM     12  C   UNL     1       6.161   1.567  11.204  0.00  0.00    +0.000 C 
ENDBRANCH   9  11
ENDBRANCH   5   9
ENDBRANCH   1   6
BRANCH   3  13
ATOM     13  C   UNL     1       5.394   4.226  18.330  0.00  0.00    +0.000 C 
BRANCH  13  14
ATOM     14  C   UNL     1       3.952   3.787  18.326  0.00  0.00    +0.000 A 
ATOM     15  C   UNL     1       3.609   2.487  18.720  0.00  0.00    +0.000 A 
ATOM     16  C   UNL     1       2.274   2.074  18.722  0.00  0.00    +0.000 A 
ATOM     17  C   UNL     1       1.271   2.956  18.322  0.00  0.00    +0.000 A 
ATOM     18  C   UNL     1       1.602   4.247  17.915  0.00  0.00    +0.000 A 
ATOM     19  C   UNL     1       2.936   4.661  17.913  0.00  0.00    +0.000 A 
ENDBRANCH  13  14
ENDBRANCH   3  13
TORSDOF 5
ENDMDL
MODEL 4
REMARK VINA RESULT:      -7.2      1.174      1.839
REMARK  Name = 
REMARK  7 active torsions:
REMARK  status: ('A' for Active; 'I' for Inactive)
REMARK    1  A    between atoms: C_1  and  C_2
REMARK    2  A    between atoms: C_2  and  C_3
REMARK    3  A    between atoms: C_2  and  C_4
REMARK    4  A    between atoms: C_4  and  N_5
REMARK    5  A    between atoms: C_6  and  C_8
REMARK    6  A    between atoms: N_10  and  C_11
REMARK    7  A    between atoms: C_11  and  C_12
REMARK                            x       y       z     vdW  Elec       q    Type
REMARK                         _______ _______ _______ _____ _____    ______ ____
ROOT
ATOM      1  C   UNL     1       7.135   5.116  15.757  0.00  0.00    +0.000 C 
ATOM      2  O   UNL     1       7.744   4.376  16.517  0.00  0.00    +0.000 OA
ATOM      3  N   UNL     1       6.303   6.148  16.117  0.00  0.00    +0.000 N 
ATOM      4  H   UNL     1       5.862   6.667  15.363  0.00  0.00    +0.000 HD
ENDROOT
BRANCH   1   6
ATOM      5  N   UNL     1       6.495   3.911  13.722  0.00  0.00    +0.000 N 
ATOM      6  C   UNL     1       7.271   4.932  14.226  0.00  0.00    +0.000 C 
ATOM      7  O   UNL     1       8.018   5.657  13.584  0.00  0.00    +0.000 OA
ATOM      8  H   UNL     1       5.967   3.370  14.401  0.00  0.00    +0.000 HD
BRANCH   5   9
ATOM      9  C   UNL     1       6.478   3.545  12.322  0.00  0.00    +0.000 C 
BRANCH   9  11
ATOM     10  C   UNL     1       4.217   3.172  11.238  0.00  0.00    +0.000 C 
ATOM     11  C   UNL     1       5.384   2.522  11.984  0.00  0.00    +0.000 C 
ATOM     12  C   UNL     1       5.963   1.385  11.138  0.00  0.00    +0.000 C 
ENDBRANCH   9  11
ENDBRANCH   5   9
ENDBRANCH   1   6
BRANCH   3  13
ATOM     13  C   UNL     1       6.038   6.504  17.487  0.00  0.00    +0.000 C 
BRANCH  13  14
ATOM     14  C   UNL     1       4.813   5.796  18.009  0.00  0.00    +0.000 A 
ATOM     15  C   UNL     1       4.946   4.661  18.820  0.00  0.00    +0.000 A 
ATOM     16  C   UNL     1       3.815   4.002  19.310  0.00  0.00    +0.000 A 
ATOM     17  C   UNL     1       2.542   4.468  18.986  0.00  0.00    +0.000 A 
ATOM     18  C   UNL     1       2.398   5.588  18.170  0.00  0.00    +0.000 A 
ATOM     19  C   UNL     1       3.527   6.247  17.679  0.00  0.00    +0.000 A 
ENDBRANCH  13  14
ENDBRANCH   3  13
TORSDOF 5
ENDMDL
MODEL 5
REMARK VINA RESULT:      -7.0      1.134      1.470
REMARK  Name = 
REMARK  7 active torsions:
REMARK  status: ('A' for Active; 'I' for Inactive)
REMARK    1  A    between atoms: C_1  and  C_2
REMARK    2  A    between atoms: C_2  and  C_3
REMARK    3  A    between atoms: C_2  and  C_4
REMARK    4  A    between atoms: C_4  and  N_5
REMARK    5  A    between atoms: C_6  and  C_8
REMARK    6  A    between atoms: N_10  and  C_11
REMARK    7  A    between atoms: C_11  and  C_12
REMARK                            x       y       z     vdW  Elec       q    Type
REMARK                         _______ _______ _______ _____ _____    ______ ____
ROOT
ATOM      1  C   UNL     1       6.238   4.390  16.583  0.00  0.00    +0.000 C 
ATOM      2  O   UNL     1       7.347   4.320  17.097  0.00  0.00    +0.000 OA
ATOM      3  N   UNL     1       5.034   4.200  17.215  0.00  0.00    +0.000 N 
ATOM      4  H   UNL     1       4.197   4.286  16.646  0.00  0.00    +0.000 HD
ENDROOT
BRANCH   1   6
ATOM      5  N   UNL     1       6.344   3.655  14.249  0.00  0.00    +0.000 N 
ATOM      6  C   UNL     1       6.105   4.729  15.079  0.00  0.00    +0.000 C 
ATOM      7  O   UNL     1       5.815   5.863  14.728  0.00  0.00    +0.000 OA
ATOM      8  H   UNL     1       6.625   2.790  14.703  0.00  0.00    +0.000 HD
BRANCH   5   9
ATOM      9  C   UNL     1       6.296   3.742  12.806  0.00  0.00    +0.000 C 
BRANCH   9  11
ATOM     10  C   UNL     1       4.260   3.312  11.357  0.00  0.00    +0.000 C 
ATOM     11  C   UNL     1       5.390   2.677  12.170  0.00  0.00    +0.000 C 
ATOM     12  C   UNL     1       6.211   1.751  11.271  0.00  0.00    +0.000 C 
ENDBRANCH   9  11
ENDBRANCH   5   9
ENDBRANCH   1   6
BRANCH   3  13
ATOM     13  C   UNL     1       4.921   3.885  18.616  0.00  0.00    +0.000 C 
BRANCH  13  14
ATOM     14  C   UNL     1       3.491   3.608  19.002  0.00  0.00    +0.000 A 
ATOM     15  C   UNL     1       2.796   2.540  18.416  0.00  0.00    +0.000 A 
ATOM     16  C   UNL     1       1.470   2.276  18.772  0.00  0.00    +0.000 A 
ATOM     17  C   UNL     1       0.826   3.081  19.710  0.00  0.00    +0.000 A 
ATOM     18  C   UNL     1       1.503   4.153  20.288  0.00  0.00    +0.000 A 
ATOM     19  C   UNL     1       2.827   4.419  19.934  0.00  0.00    +0.000 A 
ENDBRANCH  13  14
ENDBRANCH   3  13
TORSDOF 5
ENDMDL
MODEL 6
REMARK VINA RESULT:      -7.0      1.054      1.121
REMARK  Name = 
REMARK  7 active torsions:
REMARK  status: ('A' for Active; 'I' for Inactive)
REMARK    1  A    between atoms: C_1  and  C_2
REMARK    2  A    between atoms: C_2  and  C_3
REMARK    3  A    between atoms: C_2  and  C_4
REMARK    4  A    between atoms: C_4  and  N_5
REMARK    5  A    between atoms: C_6  and  C_8
REMARK    6  A    between atoms: N_10  and  C_11
REMARK    7  A    between atoms: C_11  and  C_12
REMARK                            x       y       z     vdW  Elec       q    Type
REMARK                         _______ _______ _______ _____ _____    ______ ____
ROOT
ATOM      1  C   UNL     1       5.798   5.639  15.707  0.00  0.00    +0.000 C 
ATOM      2  O   UNL     1       5.222   6.709  15.571  0.00  0.00    +0.000 OA
ATOM      3  N   UNL     1       5.821   4.863  16.840  0.00  0.00    +0.000 N 
ATOM      4  H   UNL     1       6.354   3.999  16.795  0.00  0.00    +0.000 HD
ENDROOT
BRANCH   1   6
ATOM      5  N   UNL     1       5.852   4.176  13.742  0.00  0.00    +0.000 N 
ATOM      6  C   UNL     1       6.594   5.035  14.524  0.00  0.00    +0.000 C 
ATOM      7  O   UNL     1       7.768   5.332  14.358  0.00  0.00    +0.000 OA
ATOM      8  H   UNL     1       4.900   3.997  14.049  0.00  0.00    +0.000 HD
BRANCH   5   9
ATOM      9  C   UNL     1       6.394   3.480  12.596  0.00  0.00    +0.000 C 
BRANCH   9  11
ATOM     10  C   UNL     1       4.305   3.158  11.196  0.00  0.00    +0.000 C 
ATOM     11  C   UNL     1       5.413   2.464  11.992  0.00  0.00    +0.000 C 
ATOM     12  C   UNL     1       6.156   1.481  11.086  0.00  0.00    +0.000 C 
ENDBRANCH   9  11
ENDBRANCH   5   9
ENDBRANCH   1   6
BRANCH   3  13
ATOM     13  C   UNL     1       5.141   5.227  18.056  0.00  0.00    +0.000 C 
BRANCH  13  14
ATOM     14  C   UNL     1       3.848   4.468  18.209  0.00  0.00    +0.000 A 
ATOM     15  C   UNL     1       2.896   4.877  19.153  0.00  0.00    +0.000 A 
ATOM     16  C   UNL     1       1.693   4.180  19.298  0.00  0.00    +0.000 A 
ATOM     17  C   UNL     1       1.436   3.063  18.505  0.00  0.00    +0.000 A 
ATOM     18  C   UNL     1       2.380   2.639  17.573  0.00  0.00    +0.000 A 
ATOM     19  C   UNL     1       3.583   3.334  17.427  0.00  0.00    +0.000 A 
ENDBRANCH  13  14
ENDBRANCH   3  13
TORSDOF 5
ENDMDL
MODEL 7
REMARK VINA RESULT:      -6.9      1.430      1.863
REMARK  Name = 
REMARK  7 active torsions:
REMARK  status: ('A' for Active; 'I' for Inactive)
REMARK    1  A    between atoms: C_1  and  C_2
REMARK    2  A    between atoms: C_2  and  C_3
REMARK    3  A    between atoms: C_2  and  C_4
REMARK    4  A    between atoms: C_4  and  N_5
REMARK    5  A    between atoms: C_6  and  C_8
REMARK    6  A    between atoms: N_10  and  C_11
REMARK    7  A    between atoms: C_11  and  C_12
REMARK                            x       y       z     vdW  Elec       q    Type
REMARK                         _______ _______ _______ _____ _____    ______ ____
ROOT
ATOM      1  C   UNL     1       5.234   6.049  15.701  0.00  0.00    +0.000 C 
ATOM      2  O   UNL     1       4.980   7.161  15.259  0.00  0.00    +0.000 OA
ATOM      3  N   UNL     1       4.702   5.480  16.832  0.00  0.00    +0.000 N 
ATOM      4  H   UNL     1       5.022   4.546  17.072  0.00  0.00    +0.000 HD
ENDROOT
BRANCH   1   6
ATOM      5  N   UNL     1       5.643   4.231  14.110  0.00  0.00    +0.000 N 
ATOM      6  C   UNL     1       6.241   5.135  14.961  0.00  0.00    +0.000 C 
ATOM      7  O   UNL     1       7.441   5.255  15.160  0.00  0.00    +0.000 OA
ATOM      8  H   UNL     1       4.627   4.229  14.099  0.00  0.00    +0.000 HD
BRANCH   5   9
ATOM      9  C   UNL     1       6.385   3.264  13.331  0.00  0.00    +0.000 C 
BRANCH   9  11
ATOM     10  C   UNL     1       6.209   1.763  11.295  0.00  0.00    +0.000 C 
ATOM     11  C   UNL     1       5.868   3.130  11.891  0.00  0.00    +0.000 C 
ATOM     12  C   UNL     1       4.353   3.344  11.849  0.00  0.00    +0.000 C 
ENDBRANCH   9  11
ENDBRANCH   5   9
ENDBRANCH   1   6
BRANCH   3  13
ATOM     13  C   UNL     1       3.738   6.147  17.670  0.00  0.00    +0.000 C 
BRANCH  13  14
ATOM     14  C   UNL     1       2.796   5.162  18.312  0.00  0.00    +0.000 A 
ATOM     15  C   UNL     1       2.257   5.424  19.580  0.00  0.00    +0.000 A 
ATOM     16  C   UNL     1       1.380   4.517  20.180  0.00  0.00    +0.000 A 
ATOM     17  C   UNL     1       1.040   3.336  19.521  0.00  0.00    +0.000 A 
ATOM     18  C   UNL     1       1.581   3.059  18.267  0.00  0.00    +0.000 A 
ATOM     19  C   UNL     1       2.458   3.964  17.666  0.00  0.00    +0.000 A 
ENDBRANCH  13  14
ENDBRANCH   3  13
TORSDOF 5
ENDMDL
MODEL 8
REMARK VINA RESULT:      -6.8      1.766      2.443
REMARK  Name = 
REMARK  7 active torsions:
REMARK  status: ('A' for Active; 'I' for Inactive)
REMARK    1  A    between atoms: C_1  and  C_2
REMARK    2  A    between atoms: C_2  and  C_3
REMARK    3  A    between atoms: C_2  and  C_4
REMARK    4  A    between atoms: C_4  and  N_5
REMARK    5  A    between atoms: C_6  and  C_8
REMARK    6  A    between atoms: N_10  and  C_11
REMARK    7  A    between atoms: C_11  and  C_12
REMARK                            x       y       z     vdW  Elec       q    Type
REMARK                         _______ _______ _______ _____ _____    ______ ____
ROOT
ATOM      1  C   UNL     1       6.407   5.103  18.529  0.00  0.00    +0.000 C 
ATOM      2  O   UNL     1       7.001   5.209  19.593  0.00  0.00    +0.000 OA
ATOM      3  N   UNL     1       5.058   5.267  18.328  0.00  0.00    +0.000 N 
ATOM      4  H   UNL     1       4.715   5.137  17.382  0.00  0.00    +0.000 HD
ENDROOT
BRANCH   1   6
ATOM      5  N   UNL     1       6.594   5.232  16.090  0.00  0.00    +0.000 N 
ATOM      6  C   UNL     1       7.190   4.759  17.239  0.00  0.00    +0.000 C 
ATOM      7  O   UNL     1       8.232   4.122  17.303  0.00  0.00    +0.000 OA
ATOM      8  H   UNL     1       5.700   5.701  16.207  0.00  0.00    +0.000 HD
BRANCH   5   9
ATOM      9  C   UNL     1       7.136   5.011  14.767  0.00  0.00    +0.000 C 
BRANCH   9  11
ATOM     10  C   UNL     1       4.880   4.127  14.020  0.00  0.00    +0.000 C 
ATOM     11  C   UNL     1       6.395   3.912  13.991  0.00  0.00    +0.000 C 
ATOM     12  C   UNL     1       6.879   3.868  12.540  0.00  0.00    +0.000 C 
ENDBRANCH   9  11
ENDBRANCH   5   9
ENDBRANCH   1   6
BRANCH   3  13
ATOM     13  C   UNL     1       4.140   5.599  19.388  0.00  0.00    +0.000 C 
BRANCH  13  14
ATOM     14  C   UNL     1       2.978   4.639  19.425  0.00  0.00    +0.000 A 
ATOM     15  C   UNL     1       2.684   3.841  18.311  0.00  0.00    +0.000 A 
ATOM     16  C   UNL     1       1.611   2.947  18.340  0.00  0.00    +0.000 A 
ATOM     17  C   UNL     1       0.816   2.850  19.481  0.00  0.00    +0.000 A 
ATOM     18  C   UNL     1       1.090   3.648  20.590  0.00  0.00    +0.000 A 
ATOM     19  C   UNL     1       2.163   4.542  20.562  0.00  0.00    +0.000 A 
ENDBRANCH  13  14
ENDBRANCH   3  13
TORSDOF 5
ENDMDL
MODEL 9
REMARK VINA RESULT:      -6.8      1.469      1.789
REMARK  Name = 
REMARK  7 active torsions:
REMARK  status: ('A' for Active; 'I' for Inactive)
REMARK    1  A    between atoms: C_1  and  C_2
REMARK    2  A    between atoms: C_2  and  C_3
REMARK    3  A    between atoms: C_2  and  C_4
REMARK    4  A    between atoms: C_4  and  N_5
REMARK    5  A    between atoms: C_6  and  C_8
REMARK    6  A    between atoms: N_10  and  C_11
REMARK    7  A    between atoms: C_11  and  C_12
REMARK                            x       y       z     vdW  Elec       q    Type
REMARK                         _______ _______ _______ _____ _____    ______ ____
ROOT
ATOM      1  C   UNL     1       5.255   5.546  15.666  0.00  0.00    +0.000 C 
ATOM      2  O   UNL     1       5.197   6.682  15.216  0.00  0.00    +0.000 OA
ATOM      3  N   UNL     1       4.721   5.112  16.855  0.00  0.00    +0.000 N 
ATOM      4  H   UNL     1       4.861   4.135  17.093  0.00  0.00    +0.000 HD
ENDROOT
BRANCH   1   6
ATOM      5  N   UNL     1       5.814   4.538  13.505  0.00  0.00    +0.000 N 
ATOM      6  C   UNL     1       5.981   4.435  14.869  0.00  0.00    +0.000 C 
ATOM      7  O   UNL     1       6.622   3.576  15.456  0.00  0.00    +0.000 OA
ATOM      8  H   UNL     1       5.206   5.284  13.181  0.00  0.00    +0.000 HD
BRANCH   5   9
ATOM      9  C   UNL     1       6.383   3.597  12.564  0.00  0.00    +0.000 C 
BRANCH   9  11
ATOM     10  C   UNL     1       4.258   3.229  11.230  0.00  0.00    +0.000 C 
ATOM     11  C   UNL     1       5.364   2.567  12.055  0.00  0.00    +0.000 C 
ATOM     12  C   UNL     1       6.064   1.500  11.211  0.00  0.00    +0.000 C 
ENDBRANCH   9  11
ENDBRANCH   5   9
ENDBRANCH   1   6
BRANCH   3  13
ATOM     13  C   UNL     1       3.995   5.974  17.752  0.00  0.00    +0.000 C 
BRANCH  13  14
ATOM     14  C   UNL     1       2.920   5.217  18.489  0.00  0.00    +0.000 A 
ATOM     15  C   UNL     1       2.612   5.542  19.818  0.00  0.00    +0.000 A 
ATOM     16  C   UNL     1       1.614   4.846  20.506  0.00  0.00    +0.000 A 
ATOM     17  C   UNL     1       0.921   3.815  19.874  0.00  0.00    +0.000 A 
ATOM     18  C   UNL     1       1.229   3.474  18.558  0.00  0.00    +0.000 A 
ATOM     19  C   UNL     1       2.226   4.168  17.869  0.00  0.00    +0.000 A 
ENDBRANCH  13  14
ENDBRANCH   3  13
TORSDOF 5
ENDMDL
