MODEL 1
REMARK VINA RESULT:      -8.9      0.000      0.000
REMARK  Name = 
REMARK  4 active torsions:
REMARK  status: ('A' for Active; 'I' for Inactive)
REMARK    1  A    between atoms: C_1  and  C_2
REMARK    2  A    between atoms: C_2  and  N_3
REMARK    3  A    between atoms: C_2  and  C_13
REMARK    4  A    between atoms: C_23  and  C_24
REMARK                            x       y       z     vdW  Elec       q    Type
REMARK                         _______ _______ _______ _____ _____    ______ ____
ROOT
ATOM      1  C   UNL     1       7.649   4.846  18.340  0.00  0.00    +0.000 C 
ATOM      2  C   UNL     1       6.242   4.746  17.741  0.00  0.00    +0.000 C 
ENDROOT
BRANCH   2   3
ATOM      3  C   UNL     1       5.321   3.939  18.729  0.00  0.00    +0.000 C 
ATOM      4  O   UNL     1       5.848   3.161  19.534  0.00  0.00    +0.000 OA
ATOM      5  N   UNL     1       3.942   4.199  18.737  0.00  0.00    +0.000 N 
ATOM      6  C   UNL     1       3.042   3.665  19.709  0.00  0.00    +0.000 A 
ATOM      7  C   UNL     1       3.306   2.984  20.889  0.00  0.00    +0.000 A 
ATOM      8  C   UNL     1       2.239   2.630  21.730  0.00  0.00    +0.000 A 
ATOM      9  C   UNL     1       0.919   2.956  21.393  0.00  0.00    +0.000 A 
ATOM     10  C   UNL     1       0.652   3.608  20.194  0.00  0.00    +0.000 A 
ATOM     11  C   UNL     1       1.720   3.938  19.367  0.00  0.00    +0.000 A 
ATOM     12  C   UNL     1       1.623   4.601  18.040  0.00  0.00    +0.000 C 
ATOM     13  C   UNL     1       3.108   4.846  17.672  0.00  0.00    +0.000 C 
ATOM     14  C   UNL     1       3.288   6.354  17.515  0.00  0.00    +0.000 C 
ENDBRANCH   2   3
BRANCH   2  15
ATOM     15  N   UNL     1       6.330   4.233  16.353  0.00  0.00    +0.000 N 
ATOM     16  C   UNL     1       6.838   4.996  15.311  0.00  0.00    +0.000 C 
ATOM     17  O   UNL     1       7.221   6.140  15.424  0.00  0.00    +0.000 OA
ATOM     18  N   UNL     1       6.855   4.308  14.109  0.00  0.00    +0.000 N 
ATOM     19  C   UNL     1       7.413   4.916  12.912  0.00  0.00    +0.000 C 
ATOM     20  C   UNL     1       7.227   3.852  11.846  0.00  0.00    +0.000 C 
ATOM     21  C   UNL     1       5.864   3.294  12.205  0.00  0.00    +0.000 C 
ATOM     22  F   UNL     1       5.698   2.043  11.733  0.00  0.00    +0.000 F 
ATOM     23  F   UNL     1       4.891   4.069  11.670  0.00  0.00    +0.000 F 
ATOM     24  C   UNL     1       5.820   3.346  13.728  0.00  0.00    +0.000 C 
ATOM     25  H   UNL     1       6.456   3.236  16.237  0.00  0.00    +0.000 HD
ENDBRANCH   2  15
TORSDOF 2
ENDMDL
MODEL 2
REMARK VINA RESULT:      -7.6      1.296      1.622
REMARK  Name = 
REMARK  4 active torsions:
REMARK  status: ('A' for Active; 'I' for Inactive)
REMARK    1  A    between atoms: C_1  and  C_2
REMARK    2  A    between atoms: C_2  and  N_3
REMARK    3  A    between atoms: C_2  and  C_13
REMARK    4  A    between atoms: C_23  and  C_24
REMARK                            x       y       z     vdW  Elec       q    Type
REMARK                         _______ _______ _______ _____ _____    ______ ____
ROOT
ATOM      1  C   UNL     1       7.499   6.032  18.156  0.00  0.00    +0.000 C 
ATOM      2  C   UNL     1       6.087   5.839  17.593  0.00  0.00    +0.000 C 
ENDROOT
BRANCH   2   3
ATOM      3  C   UNL     1       5.331   4.768  18.462  0.00  0.00    +0.000 C 
ATOM      4  O   UNL     1       5.990   3.889  19.031  0.00  0.00    +0.000 OA
ATOM      5  N   UNL     1       3.946   4.900  18.650  0.00  0.00    +0.000 N 
ATOM      6  C   UNL     1       3.192   4.100  19.561  0.00  0.00    +0.000 A 
ATOM      7  C   UNL     1       3.623   3.215  20.538  0.00  0.00    +0.000 A 
ATOM      8  C   UNL     1       2.677   2.603  21.376  0.00  0.00    +0.000 A 
ATOM      9  C   UNL     1       1.310   2.876  21.237  0.00  0.00    +0.000 A 
ATOM     10  C   UNL     1       0.875   3.738  20.235  0.00  0.00    +0.000 A 
ATOM     11  C   UNL     1       1.826   4.323  19.406  0.00  0.00    +0.000 A 
ATOM     12  C   UNL     1       1.545   5.236  18.266  0.00  0.00    +0.000 C 
ATOM     13  C   UNL     1       2.964   5.679  17.828  0.00  0.00    +0.000 C 
ATOM     14  C   UNL     1       3.027   7.198  17.984  0.00  0.00    +0.000 C 
ENDBRANCH   2   3
BRANCH   2  15
ATOM     15  N   UNL     1       6.167   5.570  16.137  0.00  0.00    +0.000 N 
ATOM     16  C   UNL     1       5.532   4.487  15.548  0.00  0.00    +0.000 C 
ATOM     17  O   UNL     1       4.892   3.656  16.153  0.00  0.00    +0.000 OA
ATOM     18  N   UNL     1       5.715   4.447  14.175  0.00  0.00    +0.000 N 
ATOM     19  C   UNL     1       5.072   3.422  13.369  0.00  0.00    +0.000 C 
ATOM     20  C   UNL     1       5.535   3.731  11.956  0.00  0.00    +0.000 C 
ATOM     21  C   UNL     1       6.976   4.137  12.188  0.00  0.00    +0.000 C 
ATOM     22  F   UNL     1       7.443   4.911  11.190  0.00  0.00    +0.000 F 
ATOM     23  F   UNL     1       7.761   3.035  12.257  0.00  0.00    +0.000 F 
ATOM     24  C   UNL     1       6.956   4.869  13.525  0.00  0.00    +0.000 C 
ATOM     25  H   UNL     1       6.279   6.369  15.526  0.00  0.00    +0.000 HD
ENDBRANCH   2  15
TORSDOF 2
ENDMDL
MODEL 3
REMARK VINA RESULT:      -7.2      7.164      9.525
REMARK  Name = 
REMARK  4 active torsions:
REMARK  status: ('A' for Active; 'I' for Inactive)
REMARK    1  A    between atoms: C_1  and  C_2
REMARK    2  A    between atoms: C_2  and  N_3
REMARK    3  A    between atoms: C_2  and  C_13
REMARK    4  A    between atoms: C_23  and  C_24
REMARK                            x       y       z     vdW  Elec       q    Type
REMARK                         _______ _______ _______ _____ _____    ______ ____
ROOT
ATOM      1  C   UNL     1       2.116  12.063  18.044  0.00  0.00    +0.000 C 
ATOM      2  C   UNL     1       1.222  10.997  18.685  0.00  0.00    +0.000 C 
ENDROOT
BRANCH   2   3
ATOM      3  C   UNL     1       1.757   9.572  18.287  0.00  0.00    +0.000 C 
ATOM      4  O   UNL     1       2.209   9.402  17.147  0.00  0.00    +0.000 OA
ATOM      5  N   UNL     1       1.801   8.566  19.264  0.00  0.00    +0.000 N 
ATOM      6  C   UNL     1       2.433   7.300  19.067  0.00  0.00    +0.000 A 
ATOM      7  C   UNL     1       3.253   6.863  18.037  0.00  0.00    +0.000 A 
ATOM      8  C   UNL     1       3.829   5.585  18.114  0.00  0.00    +0.000 A 
ATOM      9  C   UNL     1       3.586   4.751  19.213  0.00  0.00    +0.000 A 
ATOM     10  C   UNL     1       2.736   5.176  20.229  0.00  0.00    +0.000 A 
ATOM     11  C   UNL     1       2.164   6.439  20.130  0.00  0.00    +0.000 A 
ATOM     12  C   UNL     1       1.209   7.043  21.096  0.00  0.00    +0.000 C 
ATOM     13  C   UNL     1       1.044   8.486  20.555  0.00  0.00    +0.000 C 
ATOM     14  C   UNL     1       1.512   9.434  21.657  0.00  0.00    +0.000 C 
ENDBRANCH   2   3
BRANCH   2  15
ATOM     15  N   UNL     1      -0.197  11.282  18.362  0.00  0.00    +0.000 N 
ATOM     16  C   UNL     1      -1.137  11.569  19.341  0.00  0.00    +0.000 C 
ATOM     17  O   UNL     1      -0.905  11.584  20.529  0.00  0.00    +0.000 OA
ATOM     18  N   UNL     1      -2.390  11.834  18.812  0.00  0.00    +0.000 N 
ATOM     19  C   UNL     1      -3.495  12.220  19.675  0.00  0.00    +0.000 C 
ATOM     20  C   UNL     1      -4.657  12.401  18.715  0.00  0.00    +0.000 C 
ATOM     21  C   UNL     1      -4.431  11.261  17.744  0.00  0.00    +0.000 C 
ATOM     22  F   UNL     1      -5.016  11.496  16.553  0.00  0.00    +0.000 F 
ATOM     23  F   UNL     1      -4.957  10.117  18.242  0.00  0.00    +0.000 F 
ATOM     24  C   UNL     1      -2.914  11.152  17.628  0.00  0.00    +0.000 C 
ATOM     25  H   UNL     1      -0.389  11.708  17.465  0.00  0.00    +0.000 HD
ENDBRANCH   2  15
TORSDOF 2
ENDMDL
MODEL 4
REMARK VINA RESULT:      -7.0     10.089     12.983
REMARK  Name = 
REMARK  4 active torsions:
REMARK  status: ('A' for Active; 'I' for Inactive)
REMARK    1  A    between atoms: C_1  and  C_2
REMARK    2  A    between atoms: C_2  and  N_3
REMARK    3  A    between atoms: C_2  and  C_13
REMARK    4  A    between atoms: C_23  and  C_24
REMARK                            x       y       z     vdW  Elec       q    Type
REMARK                         _______ _______ _______ _____ _____    ______ ____
ROOT
ATOM      1  C   UNL     1      -0.826  13.170  22.696  0.00  0.00    +0.000 C 
ATOM      2  C   UNL     1      -1.664  12.030  22.107  0.00  0.00    +0.000 C 
ENDROOT
BRANCH   2   3
ATOM      3  C   UNL     1      -0.945  11.476  20.822  0.00  0.00    +0.000 C 
ATOM      4  O   UNL     1      -0.979  12.148  19.784  0.00  0.00    +0.000 OA
ATOM      5  N   UNL     1      -0.201  10.290  20.918  0.00  0.00    +0.000 N 
ATOM      6  C   UNL     1       0.637   9.795  19.874  0.00  0.00    +0.000 A 
ATOM      7  C   UNL     1       1.045  10.402  18.695  0.00  0.00    +0.000 A 
ATOM      8  C   UNL     1       1.953   9.734  17.857  0.00  0.00    +0.000 A 
ATOM      9  C   UNL     1       2.448   8.469  18.198  0.00  0.00    +0.000 A 
ATOM     10  C   UNL     1       2.013   7.846  19.363  0.00  0.00    +0.000 A 
ATOM     11  C   UNL     1       1.104   8.517  20.173  0.00  0.00    +0.000 A 
ATOM     12  C   UNL     1       0.505   7.995  21.429  0.00  0.00    +0.000 C 
ATOM     13  C   UNL     1      -0.292   9.215  21.959  0.00  0.00    +0.000 C 
ATOM     14  C   UNL     1       0.285   9.567  23.328  0.00  0.00    +0.000 C 
ENDBRANCH   2   3
BRANCH   2  15
ATOM     15  N   UNL     1      -3.065  12.485  21.934  0.00  0.00    +0.000 N 
ATOM     16  C   UNL     1      -3.993  12.435  22.964  0.00  0.00    +0.000 C 
ATOM     17  O   UNL     1      -3.766  11.997  24.070  0.00  0.00    +0.000 OA
ATOM     18  N   UNL     1      -5.229  12.938  22.590  0.00  0.00    +0.000 N 
ATOM     19  C   UNL     1      -6.315  13.032  23.551  0.00  0.00    +0.000 C 
ATOM     20  C   UNL     1      -7.463  13.613  22.744  0.00  0.00    +0.000 C 
ATOM     21  C   UNL     1      -7.291  12.903  21.416  0.00  0.00    +0.000 C 
ATOM     22  F   UNL     1      -7.859  13.591  20.406  0.00  0.00    +0.000 F 
ATOM     23  F   UNL     1      -7.878  11.684  21.463  0.00  0.00    +0.000 F 
ATOM     24  C   UNL     1      -5.782  12.770  21.246  0.00  0.00    +0.000 C 
ATOM     25  H   UNL     1      -3.231  13.221  21.261  0.00  0.00    +0.000 HD
ENDBRANCH   2  15
TORSDOF 2
ENDMDL
MODEL 5
REMARK VINA RESULT:      -7.0      7.505      9.643
REMARK  Name = 
REMARK  4 active torsions:
REMARK  status: ('A' for Active; 'I' for Inactive)
REMARK    1  A    between atoms: C_1  and  C_2
REMARK    2  A    between atoms: C_2  and  N_3
REMARK    3  A    between atoms: C_2  and  C_13
REMARK    4  A    between atoms: C_23  and  C_24
REMARK                            x       y       z     vdW  Elec       q    Type
REMARK                         _______ _______ _______ _____ _____    ______ ____
ROOT
ATOM      1  C   UNL     1      -0.576  10.854  22.642  0.00  0.00    +0.000 C 
ATOM      2  C   UNL     1       0.037  10.698  21.247  0.00  0.00    +0.000 C 
ENDROOT
BRANCH   2   3
ATOM      3  C   UNL     1       0.874   9.367  21.201  0.00  0.00    +0.000 C 
ATOM      4  O   UNL     1       1.082   8.757  22.257  0.00  0.00    +0.000 OA
ATOM      5  N   UNL     1       1.271   8.857  19.955  0.00  0.00    +0.000 N 
ATOM      6  C   UNL     1       1.870   7.572  19.781  0.00  0.00    +0.000 A 
ATOM      7  C   UNL     1       2.014   6.526  20.681  0.00  0.00    +0.000 A 
ATOM      8  C   UNL     1       2.569   5.314  20.241  0.00  0.00    +0.000 A 
ATOM      9  C   UNL     1       2.977   5.150  18.911  0.00  0.00    +0.000 A 
ATOM     10  C   UNL     1       2.864   6.210  18.018  0.00  0.00    +0.000 A 
ATOM     11  C   UNL     1       2.324   7.408  18.474  0.00  0.00    +0.000 A 
ATOM     12  C   UNL     1       2.161   8.651  17.676  0.00  0.00    +0.000 C 
ATOM     13  C   UNL     1       1.382   9.577  18.645  0.00  0.00    +0.000 C 
ATOM     14  C   UNL     1       0.059   9.925  17.966  0.00  0.00    +0.000 C 
ENDBRANCH   2   3
BRANCH   2  15
ATOM     15  N   UNL     1       0.756  11.942  20.880  0.00  0.00    +0.000 N 
ATOM     16  C   UNL     1       0.157  12.957  20.148  0.00  0.00    +0.000 C 
ATOM     17  O   UNL     1      -0.975  12.915  19.719  0.00  0.00    +0.000 OA
ATOM     18  N   UNL     1       1.001  14.037  19.948  0.00  0.00    +0.000 N 
ATOM     19  C   UNL     1       0.534  15.228  19.259  0.00  0.00    +0.000 C 
ATOM     20  C   UNL     1       1.749  16.139  19.247  0.00  0.00    +0.000 C 
ATOM     21  C   UNL     1       2.869  15.150  18.996  0.00  0.00    +0.000 C 
ATOM     22  F   UNL     1       4.056  15.622  19.426  0.00  0.00    +0.000 F 
ATOM     23  F   UNL     1       2.981  14.903  17.670  0.00  0.00    +0.000 F 
ATOM     24  C   UNL     1       2.443  13.892  19.745  0.00  0.00    +0.000 C 
ATOM     25  H   UNL     1       1.482  12.258  21.511  0.00  0.00    +0.000 HD
ENDBRANCH   2  15
TORSDOF 2
ENDMDL
MODEL 6
REMARK VINA RESULT:      -6.9      1.561      1.983
REMARK  Name = 
REMARK  4 active torsions:
REMARK  status: ('A' for Active; 'I' for Inactive)
REMARK    1  A    between atoms: C_1  and  C_2
REMARK    2  A    between atoms: C_2  and  N_3
REMARK    3  A    between atoms: C_2  and  C_13
REMARK    4  A    between atoms: C_23  and  C_24
REMARK                            x       y       z     vdW  Elec       q    Type
REMARK                         _______ _______ _______ _____ _____    ______ ____
ROOT
ATOM      1  C   UNL     1       7.617   4.358  17.607  0.00  0.00    +0.000 C 
ATOM      2  C   UNL     1       6.344   4.817  16.888  0.00  0.00    +0.000 C 
ENDROOT
BRANCH   2   3
ATOM      3  C   UNL     1       5.118   4.647  17.859  0.00  0.00    +0.000 C 
ATOM      4  O   UNL     1       4.933   3.549  18.399  0.00  0.00    +0.000 OA
ATOM      5  N   UNL     1       4.331   5.769  18.164  0.00  0.00    +0.000 N 
ATOM      6  C   UNL     1       3.315   5.773  19.167  0.00  0.00    +0.000 A 
ATOM      7  C   UNL     1       3.012   4.825  20.133  0.00  0.00    +0.000 A 
ATOM      8  C   UNL     1       2.006   5.101  21.073  0.00  0.00    +0.000 A 
ATOM      9  C   UNL     1       1.309   6.316  21.046  0.00  0.00    +0.000 A 
ATOM     10  C   UNL     1       1.590   7.252  20.056  0.00  0.00    +0.000 A 
ATOM     11  C   UNL     1       2.580   6.956  19.125  0.00  0.00    +0.000 A 
ATOM     12  C   UNL     1       2.987   7.815  17.982  0.00  0.00    +0.000 C 
ATOM     13  C   UNL     1       4.209   7.055  17.405  0.00  0.00    +0.000 C 
ATOM     14  C   UNL     1       5.408   7.997  17.499  0.00  0.00    +0.000 C 
ENDBRANCH   2   3
BRANCH   2  15
ATOM     15  N   UNL     1       6.244   4.136  15.574  0.00  0.00    +0.000 N 
ATOM     16  C   UNL     1       6.905   4.600  14.447  0.00  0.00    +0.000 C 
ATOM     17  O   UNL     1       7.588   5.601  14.416  0.00  0.00    +0.000 OA
ATOM     18  N   UNL     1       6.696   3.794  13.339  0.00  0.00    +0.000 N 
ATOM     19  C   UNL     1       7.359   4.079  12.077  0.00  0.00    +0.000 C 
ATOM     20  C   UNL     1       6.857   2.985  11.151  0.00  0.00    +0.000 C 
ATOM     21  C   UNL     1       5.407   2.868  11.575  0.00  0.00    +0.000 C 
ATOM     22  F   UNL     1       4.892   1.663  11.262  0.00  0.00    +0.000 F 
ATOM     23  F   UNL     1       4.663   3.809  10.946  0.00  0.00    +0.000 F 
ATOM     24  C   UNL     1       5.427   3.113  13.080  0.00  0.00    +0.000 C 
ATOM     25  H   UNL     1       6.091   3.136  15.584  0.00  0.00    +0.000 HD
ENDBRANCH   2  15
TORSDOF 2
ENDMDL
MODEL 7
REMARK VINA RESULT:      -6.7      1.823      2.561
REMARK  Name = 
REMARK  4 active torsions:
REMARK  status: ('A' for Active; 'I' for Inactive)
REMARK    1  A    between atoms: C_1  and  C_2
REMARK    2  A    between atoms: C_2  and  N_3
REMARK    3  A    between atoms: C_2  and  C_13
REMARK    4  A    between atoms: C_23  and  C_24
REMARK                            x       y       z     vdW  Elec       q    Type
REMARK                         _______ _______ _______ _____ _____    ______ ____
ROOT
ATOM      1  C   UNL     1       7.624   4.611  17.421  0.00  0.00    +0.000 C 
ATOM      2  C   UNL     1       6.712   5.512  16.582  0.00  0.00    +0.000 C 
ENDROOT
BRANCH   2   3
ATOM      3  C   UNL     1       5.649   6.186  17.525  0.00  0.00    +0.000 C 
ATOM      4  O   UNL     1       5.566   7.421  17.543  0.00  0.00    +0.000 OA
ATOM      5  N   UNL     1       4.760   5.368  18.240  0.00  0.00    +0.000 N 
ATOM      6  C   UNL     1       3.644   5.869  18.978  0.00  0.00    +0.000 A 
ATOM      7  C   UNL     1       3.095   7.142  19.009  0.00  0.00    +0.000 A 
ATOM      8  C   UNL     1       1.929   7.369  19.758  0.00  0.00    +0.000 A 
ATOM      9  C   UNL     1       1.319   6.328  20.471  0.00  0.00    +0.000 A 
ATOM     10  C   UNL     1       1.889   5.060  20.467  0.00  0.00    +0.000 A 
ATOM     11  C   UNL     1       3.051   4.858  19.730  0.00  0.00    +0.000 A 
ATOM     12  C   UNL     1       3.815   3.586  19.639  0.00  0.00    +0.000 C 
ATOM     13  C   UNL     1       4.897   3.915  18.579  0.00  0.00    +0.000 C 
ATOM     14  C   UNL     1       4.698   2.942  17.419  0.00  0.00    +0.000 C 
ENDBRANCH   2   3
BRANCH   2  15
ATOM     15  N   UNL     1       6.180   4.743  15.431  0.00  0.00    +0.000 N 
ATOM     16  C   UNL     1       6.876   4.618  14.237  0.00  0.00    +0.000 C 
ATOM     17  O   UNL     1       7.946   5.137  14.011  0.00  0.00    +0.000 OA
ATOM     18  N   UNL     1       6.206   3.832  13.313  0.00  0.00    +0.000 N 
ATOM     19  C   UNL     1       6.805   3.528  12.024  0.00  0.00    +0.000 C 
ATOM     20  C   UNL     1       5.760   2.670  11.333  0.00  0.00    +0.000 C 
ATOM     21  C   UNL     1       4.475   3.350  11.763  0.00  0.00    +0.000 C 
ATOM     22  F   UNL     1       3.422   2.513  11.695  0.00  0.00    +0.000 F 
ATOM     23  F   UNL     1       4.216   4.404  10.953  0.00  0.00    +0.000 F 
ATOM     24  C   UNL     1       4.749   3.819  13.187  0.00  0.00    +0.000 C 
ATOM     25  H   UNL     1       5.570   3.964  15.640  0.00  0.00    +0.000 HD
ENDBRANCH   2  15
TORSDOF 2
ENDMDL
MODEL 8
REMARK VINA RESULT:      -6.7      7.794      9.448
REMARK  Name = 
REMARK  4 active torsions:
REMARK  status: ('A' for Active; 'I' for Inactive)
REMARK    1  A    between atoms: C_1  and  C_2
REMARK    2  A    between atoms: C_2  and  N_3
REMARK    3  A    between atoms: C_2  and  C_13
REMARK    4  A    between atoms: C_23  and  C_24
REMARK                            x       y       z     vdW  Elec       q    Type
REMARK                         _______ _______ _______ _____ _____    ______ ____
ROOT
ATOM      1  C   UNL     1       1.605  11.947  18.734  0.00  0.00    +0.000 C 
ATOM      2  C   UNL     1       0.499  10.904  18.929  0.00  0.00    +0.000 C 
ENDROOT
BRANCH   2   3
ATOM      3  C   UNL     1      -0.623  11.514  19.848  0.00  0.00    +0.000 C 
ATOM      4  O   UNL     1      -0.308  11.957  20.959  0.00  0.00    +0.000 OA
ATOM      5  N   UNL     1      -1.927  11.630  19.341  0.00  0.00    +0.000 N 
ATOM      6  C   UNL     1      -2.976  12.330  20.012  0.00  0.00    +0.000 A 
ATOM      7  C   UNL     1      -2.927  13.158  21.124  0.00  0.00    +0.000 A 
ATOM      8  C   UNL     1      -4.098  13.807  21.548  0.00  0.00    +0.000 A 
ATOM      9  C   UNL     1      -5.307  13.629  20.864  0.00  0.00    +0.000 A 
ATOM     10  C   UNL     1      -5.363  12.772  19.770  0.00  0.00    +0.000 A 
ATOM     11  C   UNL     1      -4.197  12.127  19.372  0.00  0.00    +0.000 A 
ATOM     12  C   UNL     1      -4.076  11.155  18.255  0.00  0.00    +0.000 C 
ATOM     13  C   UNL     1      -2.549  10.899  18.190  0.00  0.00    +0.000 C 
ATOM     14  C   UNL     1      -2.081  11.329  16.801  0.00  0.00    +0.000 C 
ENDBRANCH   2   3
BRANCH   2  15
ATOM     15  N   UNL     1       1.098   9.625  19.380  0.00  0.00    +0.000 N 
ATOM     16  C   UNL     1       1.817   8.802  18.527  0.00  0.00    +0.000 C 
ATOM     17  O   UNL     1       1.996   9.024  17.350  0.00  0.00    +0.000 OA
ATOM     18  N   UNL     1       2.312   7.677  19.167  0.00  0.00    +0.000 N 
ATOM     19  C   UNL     1       3.148   6.724  18.455  0.00  0.00    +0.000 C 
ATOM     20  C   UNL     1       3.455   5.663  19.497  0.00  0.00    +0.000 C 
ATOM     21  C   UNL     1       2.131   5.561  20.228  0.00  0.00    +0.000 C 
ATOM     22  F   UNL     1       2.286   5.070  21.473  0.00  0.00    +0.000 F 
ATOM     23  F   UNL     1       1.296   4.731  19.559  0.00  0.00    +0.000 F 
ATOM     24  C   UNL     1       1.586   6.985  20.233  0.00  0.00    +0.000 C 
ATOM     25  H   UNL     1       1.379   9.565  20.350  0.00  0.00    +0.000 HD
ENDBRANCH   2  15
TORSDOF 2
ENDMDL
MODEL 9
REMARK VINA RESULT:      -6.6      9.638     12.219
REMARK  Name = 
REMARK  4 active torsions:
REMARK  status: ('A' for Active; 'I' for Inactive)
REMARK    1  A    between atoms: C_1  and  C_2
REMARK    2  A    between atoms: C_2  and  N_3
REMARK    3  A    between atoms: C_2  and  C_13
REMARK    4  A    between atoms: C_23  and  C_24
REMARK                            x       y       z     vdW  Elec       q    Type
REMARK                         _______ _______ _______ _____ _____    ______ ____
ROOT
ATOM      1  C   UNL     1      -0.916  14.158  19.486  0.00  0.00    +0.000 C 
ATOM      2  C   UNL     1      -1.516  12.839  19.983  0.00  0.00    +0.000 C 
ENDROOT
BRANCH   2   3
ATOM      3  C   UNL     1      -0.710  11.641  19.358  0.00  0.00    +0.000 C 
ATOM      4  O   UNL     1      -0.393  11.695  18.163  0.00  0.00    +0.000 OA
ATOM      5  N   UNL     1      -0.286  10.598  20.195  0.00  0.00    +0.000 N 
ATOM      6  C   UNL     1       0.602   9.560  19.778  0.00  0.00    +0.000 A 
ATOM      7  C   UNL     1       1.353   9.442  18.617  0.00  0.00    +0.000 A 
ATOM      8  C   UNL     1       2.229   8.354  18.474  0.00  0.00    +0.000 A 
ATOM      9  C   UNL     1       2.352   7.392  19.484  0.00  0.00    +0.000 A 
ATOM     10  C   UNL     1       1.574   7.492  20.633  0.00  0.00    +0.000 A 
ATOM     11  C   UNL     1       0.702   8.569  20.752  0.00  0.00    +0.000 A 
ATOM     12  C   UNL     1      -0.227   8.818  21.885  0.00  0.00    +0.000 C 
ATOM     13  C   UNL     1      -0.813  10.212  21.544  0.00  0.00    +0.000 C 
ATOM     14  C   UNL     1      -0.442  11.147  22.693  0.00  0.00    +0.000 C 
ENDBRANCH   2   3
BRANCH   2  15
ATOM     15  N   UNL     1      -2.980  12.842  19.748  0.00  0.00    +0.000 N 
ATOM     16  C   UNL     1      -3.898  12.850  20.788  0.00  0.00    +0.000 C 
ATOM     17  O   UNL     1      -3.603  12.823  21.962  0.00  0.00    +0.000 OA
ATOM     18  N   UNL     1      -5.209  12.883  20.339  0.00  0.00    +0.000 N 
ATOM     19  C   UNL     1      -6.315  12.962  21.279  0.00  0.00    +0.000 C 
ATOM     20  C   UNL     1      -7.545  12.966  20.390  0.00  0.00    +0.000 C 
ATOM     21  C   UNL     1      -7.147  11.975  19.314  0.00  0.00    +0.000 C 
ATOM     22  F   UNL     1      -7.840  12.172  18.175  0.00  0.00    +0.000 F 
ATOM     23  F   UNL     1      -7.395  10.712  19.734  0.00  0.00    +0.000 F 
ATOM     24  C   UNL     1      -5.651  12.198  19.124  0.00  0.00    +0.000 C 
ATOM     25  H   UNL     1      -3.310  13.285  18.900  0.00  0.00    +0.000 HD
ENDBRANCH   2  15
TORSDOF 2
ENDMDL
