MODEL 1
REMARK VINA RESULT:      -8.4      0.000      0.000
REMARK  Name = 
REMARK  1 active torsions:
REMARK  status: ('A' for Active; 'I' for Inactive)
REMARK    1  A    between atoms: C_1  and  C_2
REMARK                            x       y       z     vdW  Elec       q    Type
REMARK                         _______ _______ _______ _____ _____    ______ ____
ROOT
ATOM      1  C   UNL     1       3.188   6.977  19.346  0.00  0.00    +0.000 C 
ATOM      2  C   UNL     1       2.454   5.981  18.518  0.00  0.00    +0.000 C 
ATOM      3  C   UNL     1       1.859   4.809  18.829  0.00  0.00    +0.000 C 
ATOM      4  C   UNL     1       1.100   4.079  17.741  0.00  0.00    +0.000 C 
ATOM      5  N   UNL     1       1.490   2.690  17.679  0.00  0.00    +0.000 NA
ATOM      6  C   UNL     1       1.130   1.950  18.888  0.00  0.00    +0.000 C 
ATOM      7  C   UNL     1       0.980   2.841  20.142  0.00  0.00    +0.000 C 
ATOM      8  C   UNL     1       2.017   3.975  20.115  0.00  0.00    +0.000 C 
ATOM      9  C   UNL     1       3.376   3.245  20.239  0.00  0.00    +0.000 C 
ATOM     10  O   UNL     1       3.709   2.682  21.284  0.00  0.00    +0.000 OA
ATOM     11  C   UNL     1       4.256   3.312  19.100  0.00  0.00    +0.000 A 
ATOM     12  N   UNL     1       5.538   3.769  19.237  0.00  0.00    +0.000 N 
ATOM     13  C   UNL     1       5.952   4.313  18.050  0.00  0.00    +0.000 A 
ATOM     14  C   UNL     1       7.048   5.140  17.788  0.00  0.00    +0.000 A 
ATOM     15  C   UNL     1       7.203   5.605  16.484  0.00  0.00    +0.000 A 
ATOM     16  C   UNL     1       6.307   5.234  15.484  0.00  0.00    +0.000 A 
ATOM     17  C   UNL     1       5.227   4.381  15.763  0.00  0.00    +0.000 A 
ATOM     18  C   UNL     1       5.028   3.916  17.081  0.00  0.00    +0.000 A 
ATOM     19  C   UNL     1       3.999   3.141  17.743  0.00  0.00    +0.000 A 
ATOM     20  C   UNL     1       2.814   2.468  17.080  0.00  0.00    +0.000 C 
ATOM     21  H   UNL     1       5.983   3.937  20.129  0.00  0.00    +0.000 HD
ENDROOT
TORSDOF 0
ENDMDL
MODEL 2
REMARK VINA RESULT:      -7.6      1.965      5.166
REMARK  Name = 
REMARK  1 active torsions:
REMARK  status: ('A' for Active; 'I' for Inactive)
REMARK    1  A    between atoms: C_1  and  C_2
REMARK                            x       y       z     vdW  Elec       q    Type
REMARK                         _______ _______ _______ _____ _____    ______ ____
ROOT
ATOM      1  C   UNL     1       5.650   3.047  15.181  0.00  0.00    +0.000 C 
ATOM      2  C   UNL     1       5.196   4.447  15.406  0.00  0.00    +0.000 C 
ATOM      3  C   UNL     1       5.810   5.521  15.949  0.00  0.00    +0.000 C 
ATOM      4  C   UNL     1       5.081   6.848  15.934  0.00  0.00    +0.000 C 
ATOM      5  N   UNL     1       5.094   7.462  17.241  0.00  0.00    +0.000 NA
ATOM      6  C   UNL     1       6.441   7.829  17.676  0.00  0.00    +0.000 C 
ATOM      7  C   UNL     1       7.560   7.003  17.002  0.00  0.00    +0.000 C 
ATOM      8  C   UNL     1       7.098   5.553  16.794  0.00  0.00    +0.000 C 
ATOM      9  C   UNL     1       6.933   5.000  18.230  0.00  0.00    +0.000 C 
ATOM     10  O   UNL     1       7.909   4.807  18.959  0.00  0.00    +0.000 OA
ATOM     11  C   UNL     1       5.596   4.664  18.647  0.00  0.00    +0.000 A 
ATOM     12  N   UNL     1       5.310   3.415  19.127  0.00  0.00    +0.000 N 
ATOM     13  C   UNL     1       3.995   3.127  18.878  0.00  0.00    +0.000 A 
ATOM     14  C   UNL     1       3.332   1.897  18.923  0.00  0.00    +0.000 A 
ATOM     15  C   UNL     1       1.988   1.878  18.560  0.00  0.00    +0.000 A 
ATOM     16  C   UNL     1       1.334   3.051  18.190  0.00  0.00    +0.000 A 
ATOM     17  C   UNL     1       2.011   4.281  18.176  0.00  0.00    +0.000 A 
ATOM     18  C   UNL     1       3.381   4.327  18.512  0.00  0.00    +0.000 A 
ATOM     19  C   UNL     1       4.398   5.358  18.503  0.00  0.00    +0.000 A 
ATOM     20  C   UNL     1       4.185   6.829  18.207  0.00  0.00    +0.000 C 
ATOM     21  H   UNL     1       6.014   2.726  19.356  0.00  0.00    +0.000 HD
ENDROOT
TORSDOF 0
ENDMDL
MODEL 3
REMARK VINA RESULT:      -7.6      2.008      3.306
REMARK  Name = 
REMARK  1 active torsions:
REMARK  status: ('A' for Active; 'I' for Inactive)
REMARK    1  A    between atoms: C_1  and  C_2
REMARK                            x       y       z     vdW  Elec       q    Type
REMARK                         _______ _______ _______ _____ _____    ______ ____
ROOT
ATOM      1  C   UNL     1       4.242   1.009  18.548  0.00  0.00    +0.000 C 
ATOM      2  C   UNL     1       3.929   1.969  19.642  0.00  0.00    +0.000 C 
ATOM      3  C   UNL     1       2.810   2.661  19.946  0.00  0.00    +0.000 C 
ATOM      4  C   UNL     1       2.802   3.491  21.212  0.00  0.00    +0.000 C 
ATOM      5  N   UNL     1       2.329   4.831  20.952  0.00  0.00    +0.000 NA
ATOM      6  C   UNL     1       0.930   4.861  20.526  0.00  0.00    +0.000 C 
ATOM      7  C   UNL     1       0.445   3.539  19.887  0.00  0.00    +0.000 C 
ATOM      8  C   UNL     1       1.573   2.904  19.060  0.00  0.00    +0.000 C 
ATOM      9  C   UNL     1       1.804   3.906  17.904  0.00  0.00    +0.000 C 
ATOM     10  O   UNL     1       0.960   4.069  17.019  0.00  0.00    +0.000 OA
ATOM     11  C   UNL     1       3.072   4.588  17.878  0.00  0.00    +0.000 A 
ATOM     12  N   UNL     1       3.863   4.543  16.763  0.00  0.00    +0.000 N 
ATOM     13  C   UNL     1       5.173   4.690  17.134  0.00  0.00    +0.000 A 
ATOM     14  C   UNL     1       6.337   4.431  16.404  0.00  0.00    +0.000 A 
ATOM     15  C   UNL     1       7.556   4.612  17.053  0.00  0.00    +0.000 A 
ATOM     16  C   UNL     1       7.601   5.054  18.373  0.00  0.00    +0.000 A 
ATOM     17  C   UNL     1       6.421   5.333  19.081  0.00  0.00    +0.000 A 
ATOM     18  C   UNL     1       5.171   5.134  18.459  0.00  0.00    +0.000 A 
ATOM     19  C   UNL     1       3.792   5.207  18.896  0.00  0.00    +0.000 A 
ATOM     20  C   UNL     1       3.301   5.680  20.250  0.00  0.00    +0.000 C 
ATOM     21  H   UNL     1       3.559   4.177  15.871  0.00  0.00    +0.000 HD
ENDROOT
TORSDOF 0
ENDMDL
MODEL 4
REMARK VINA RESULT:      -7.3      1.872      5.120
REMARK  Name = 
REMARK  1 active torsions:
REMARK  status: ('A' for Active; 'I' for Inactive)
REMARK    1  A    between atoms: C_1  and  C_2
REMARK                            x       y       z     vdW  Elec       q    Type
REMARK                         _______ _______ _______ _____ _____    ______ ____
ROOT
ATOM      1  C   UNL     1       2.526   7.111  17.748  0.00  0.00    +0.000 C 
ATOM      2  C   UNL     1       3.766   6.694  18.458  0.00  0.00    +0.000 C 
ATOM      3  C   UNL     1       4.970   6.276  18.009  0.00  0.00    +0.000 C 
ATOM      4  C   UNL     1       6.065   6.020  19.022  0.00  0.00    +0.000 C 
ATOM      5  N   UNL     1       6.682   4.733  18.806  0.00  0.00    +0.000 NA
ATOM      6  C   UNL     1       7.388   4.655  17.528  0.00  0.00    +0.000 C 
ATOM      7  C   UNL     1       6.867   5.650  16.466  0.00  0.00    +0.000 C 
ATOM      8  C   UNL     1       5.343   5.808  16.589  0.00  0.00    +0.000 C 
ATOM      9  C   UNL     1       4.788   4.413  16.211  0.00  0.00    +0.000 C 
ATOM     10  O   UNL     1       4.863   3.985  15.057  0.00  0.00    +0.000 OA
ATOM     11  C   UNL     1       4.127   3.672  17.254  0.00  0.00    +0.000 A 
ATOM     12  N   UNL     1       2.855   3.204  17.075  0.00  0.00    +0.000 N 
ATOM     13  C   UNL     1       2.235   3.106  18.293  0.00  0.00    +0.000 A 
ATOM     14  C   UNL     1       0.877   2.954  18.588  0.00  0.00    +0.000 A 
ATOM     15  C   UNL     1       0.509   2.944  19.931  0.00  0.00    +0.000 A 
ATOM     16  C   UNL     1       1.469   3.059  20.933  0.00  0.00    +0.000 A 
ATOM     17  C   UNL     1       2.832   3.185  20.617  0.00  0.00    +0.000 A 
ATOM     18  C   UNL     1       3.232   3.226  19.264  0.00  0.00    +0.000 A 
ATOM     19  C   UNL     1       4.489   3.450  18.580  0.00  0.00    +0.000 A 
ATOM     20  C   UNL     1       5.852   3.595  19.227  0.00  0.00    +0.000 C 
ATOM     21  H   UNL     1       2.372   3.211  16.187  0.00  0.00    +0.000 HD
ENDROOT
TORSDOF 0
ENDMDL
MODEL 5
REMARK VINA RESULT:      -7.2      9.921     12.478
REMARK  Name = 
REMARK  1 active torsions:
REMARK  status: ('A' for Active; 'I' for Inactive)
REMARK    1  A    between atoms: C_1  and  C_2
REMARK                            x       y       z     vdW  Elec       q    Type
REMARK                         _______ _______ _______ _____ _____    ______ ____
ROOT
ATOM      1  C   UNL     1      12.333  13.213  16.235  0.00  0.00    +0.000 C 
ATOM      2  C   UNL     1      12.242  12.868  17.681  0.00  0.00    +0.000 C 
ATOM      3  C   UNL     1      11.381  12.090  18.372  0.00  0.00    +0.000 C 
ATOM      4  C   UNL     1      11.639  11.873  19.848  0.00  0.00    +0.000 C 
ATOM      5  N   UNL     1      10.446  12.113  20.625  0.00  0.00    +0.000 NA
ATOM      6  C   UNL     1       9.380  11.156  20.330  0.00  0.00    +0.000 C 
ATOM      7  C   UNL     1       9.489  10.515  18.928  0.00  0.00    +0.000 C 
ATOM      8  C   UNL     1      10.016  11.542  17.913  0.00  0.00    +0.000 C 
ATOM      9  C   UNL     1       8.895  12.606  17.837  0.00  0.00    +0.000 C 
ATOM     10  O   UNL     1       7.802  12.350  17.327  0.00  0.00    +0.000 OA
ATOM     11  C   UNL     1       9.212  13.922  18.330  0.00  0.00    +0.000 A 
ATOM     12  N   UNL     1       9.039  15.023  17.537  0.00  0.00    +0.000 N 
ATOM     13  C   UNL     1       9.921  15.998  17.920  0.00  0.00    +0.000 A 
ATOM     14  C   UNL     1      10.308  17.159  17.245  0.00  0.00    +0.000 A 
ATOM     15  C   UNL     1      11.281  17.956  17.844  0.00  0.00    +0.000 A 
ATOM     16  C   UNL     1      11.823  17.610  19.079  0.00  0.00    +0.000 A 
ATOM     17  C   UNL     1      11.403  16.452  19.753  0.00  0.00    +0.000 A 
ATOM     18  C   UNL     1      10.438  15.610  19.158  0.00  0.00    +0.000 A 
ATOM     19  C   UNL     1       9.864  14.323  19.493  0.00  0.00    +0.000 A 
ATOM     20  C   UNL     1      10.102  13.536  20.765  0.00  0.00    +0.000 C 
ATOM     21  H   UNL     1       8.555  15.006  16.649  0.00  0.00    +0.000 HD
ENDROOT
TORSDOF 0
ENDMDL
MODEL 6
REMARK VINA RESULT:      -7.1      1.789      2.576
REMARK  Name = 
REMARK  1 active torsions:
REMARK  status: ('A' for Active; 'I' for Inactive)
REMARK    1  A    between atoms: C_1  and  C_2
REMARK                            x       y       z     vdW  Elec       q    Type
REMARK                         _______ _______ _______ _____ _____    ______ ____
ROOT
ATOM      1  C   UNL     1       0.782   4.522  16.852  0.00  0.00    +0.000 C 
ATOM      2  C   UNL     1       1.528   3.449  17.565  0.00  0.00    +0.000 C 
ATOM      3  C   UNL     1       1.644   3.146  18.876  0.00  0.00    +0.000 C 
ATOM      4  C   UNL     1       2.418   1.902  19.259  0.00  0.00    +0.000 C 
ATOM      5  N   UNL     1       3.387   2.191  20.291  0.00  0.00    +0.000 NA
ATOM      6  C   UNL     1       2.764   2.595  21.551  0.00  0.00    +0.000 C 
ATOM      7  C   UNL     1       1.348   3.191  21.382  0.00  0.00    +0.000 C 
ATOM      8  C   UNL     1       1.270   4.019  20.090  0.00  0.00    +0.000 C 
ATOM      9  C   UNL     1       2.231   5.204  20.343  0.00  0.00    +0.000 C 
ATOM     10  O   UNL     1       1.965   6.080  21.170  0.00  0.00    +0.000 OA
ATOM     11  C   UNL     1       3.414   5.269  19.525  0.00  0.00    +0.000 A 
ATOM     12  N   UNL     1       3.700   6.394  18.802  0.00  0.00    +0.000 N 
ATOM     13  C   UNL     1       4.438   6.047  17.701  0.00  0.00    +0.000 A 
ATOM     14  C   UNL     1       4.715   6.789  16.549  0.00  0.00    +0.000 A 
ATOM     15  C   UNL     1       5.450   6.164  15.544  0.00  0.00    +0.000 A 
ATOM     16  C   UNL     1       5.905   4.857  15.703  0.00  0.00    +0.000 A 
ATOM     17  C   UNL     1       5.639   4.138  16.879  0.00  0.00    +0.000 A 
ATOM     18  C   UNL     1       4.873   4.735  17.903  0.00  0.00    +0.000 A 
ATOM     19  C   UNL     1       4.324   4.278  19.163  0.00  0.00    +0.000 A 
ATOM     20  C   UNL     1       4.564   2.930  19.813  0.00  0.00    +0.000 C 
ATOM     21  H   UNL     1       3.208   7.271  18.907  0.00  0.00    +0.000 HD
ENDROOT
TORSDOF 0
ENDMDL
MODEL 7
REMARK VINA RESULT:      -6.4     10.462     13.005
REMARK  Name = 
REMARK  1 active torsions:
REMARK  status: ('A' for Active; 'I' for Inactive)
REMARK    1  A    between atoms: C_1  and  C_2
REMARK                            x       y       z     vdW  Elec       q    Type
REMARK                         _______ _______ _______ _____ _____    ______ ____
ROOT
ATOM      1  C   UNL     1       6.830  14.558  17.778  0.00  0.00    +0.000 C 
ATOM      2  C   UNL     1       7.530  15.207  18.920  0.00  0.00    +0.000 C 
ATOM      3  C   UNL     1       8.464  16.182  18.972  0.00  0.00    +0.000 C 
ATOM      4  C   UNL     1       8.899  16.685  20.332  0.00  0.00    +0.000 C 
ATOM      5  N   UNL     1      10.339  16.714  20.439  0.00  0.00    +0.000 NA
ATOM      6  C   UNL     1      10.953  17.671  19.519  0.00  0.00    +0.000 C 
ATOM      7  C   UNL     1      10.084  17.990  18.281  0.00  0.00    +0.000 C 
ATOM      8  C   UNL     1       9.330  16.732  17.822  0.00  0.00    +0.000 C 
ATOM      9  C   UNL     1      10.450  15.772  17.353  0.00  0.00    +0.000 C 
ATOM     10  O   UNL     1      11.108  16.004  16.337  0.00  0.00    +0.000 OA
ATOM     11  C   UNL     1      10.639  14.569  18.122  0.00  0.00    +0.000 A 
ATOM     12  N   UNL     1      10.608  13.343  17.515  0.00  0.00    +0.000 N 
ATOM     13  C   UNL     1      10.199  12.402  18.422  0.00  0.00    +0.000 A 
ATOM     14  C   UNL     1       9.750  11.096  18.203  0.00  0.00    +0.000 A 
ATOM     15  C   UNL     1       9.333  10.366  19.314  0.00  0.00    +0.000 A 
ATOM     16  C   UNL     1       9.386  10.920  20.590  0.00  0.00    +0.000 A 
ATOM     17  C   UNL     1       9.864  12.225  20.792  0.00  0.00    +0.000 A 
ATOM     18  C   UNL     1      10.268  12.998  19.682  0.00  0.00    +0.000 A 
ATOM     19  C   UNL     1      10.696  14.370  19.498  0.00  0.00    +0.000 A 
ATOM     20  C   UNL     1      10.952  15.387  20.593  0.00  0.00    +0.000 C 
ATOM     21  H   UNL     1      10.605  13.211  16.512  0.00  0.00    +0.000 HD
ENDROOT
TORSDOF 0
ENDMDL
MODEL 8
REMARK VINA RESULT:      -6.4      2.030      3.339
REMARK  Name = 
REMARK  1 active torsions:
REMARK  status: ('A' for Active; 'I' for Inactive)
REMARK    1  A    between atoms: C_1  and  C_2
REMARK                            x       y       z     vdW  Elec       q    Type
REMARK                         _______ _______ _______ _____ _____    ______ ____
ROOT
ATOM      1  C   UNL     1       4.908   3.346  15.477  0.00  0.00    +0.000 C 
ATOM      2  C   UNL     1       4.758   2.814  16.859  0.00  0.00    +0.000 C 
ATOM      3  C   UNL     1       3.679   2.654  17.655  0.00  0.00    +0.000 C 
ATOM      4  C   UNL     1       3.870   1.977  18.996  0.00  0.00    +0.000 C 
ATOM      5  N   UNL     1       3.263   2.745  20.057  0.00  0.00    +0.000 NA
ATOM      6  C   UNL     1       1.808   2.827  19.932  0.00  0.00    +0.000 C 
ATOM      7  C   UNL     1       1.296   2.631  18.487  0.00  0.00    +0.000 C 
ATOM      8  C   UNL     1       2.274   3.264  17.485  0.00  0.00    +0.000 C 
ATOM      9  C   UNL     1       2.196   4.780  17.789  0.00  0.00    +0.000 C 
ATOM     10  O   UNL     1       1.182   5.433  17.534  0.00  0.00    +0.000 OA
ATOM     11  C   UNL     1       3.382   5.398  18.322  0.00  0.00    +0.000 A 
ATOM     12  N   UNL     1       3.933   6.490  17.710  0.00  0.00    +0.000 N 
ATOM     13  C   UNL     1       5.278   6.521  17.967  0.00  0.00    +0.000 A 
ATOM     14  C   UNL     1       6.284   7.262  17.340  0.00  0.00    +0.000 A 
ATOM     15  C   UNL     1       7.594   7.053  17.766  0.00  0.00    +0.000 A 
ATOM     16  C   UNL     1       7.875   6.155  18.792  0.00  0.00    +0.000 A 
ATOM     17  C   UNL     1       6.847   5.439  19.426  0.00  0.00    +0.000 A 
ATOM     18  C   UNL     1       5.513   5.609  18.998  0.00  0.00    +0.000 A 
ATOM     19  C   UNL     1       4.249   4.982  19.329  0.00  0.00    +0.000 A 
ATOM     20  C   UNL     1       4.012   3.957  20.420  0.00  0.00    +0.000 C 
ATOM     21  H   UNL     1       3.480   7.007  16.968  0.00  0.00    +0.000 HD
ENDROOT
TORSDOF 0
ENDMDL
MODEL 9
REMARK VINA RESULT:      -6.1     10.003     12.488
REMARK  Name = 
REMARK  1 active torsions:
REMARK  status: ('A' for Active; 'I' for Inactive)
REMARK    1  A    between atoms: C_1  and  C_2
REMARK                            x       y       z     vdW  Elec       q    Type
REMARK                         _______ _______ _______ _____ _____    ______ ____
ROOT
ATOM      1  C   UNL     1      12.275  14.529  17.316  0.00  0.00    +0.000 C 
ATOM      2  C   UNL     1      12.112  13.566  18.439  0.00  0.00    +0.000 C 
ATOM      3  C   UNL     1      11.296  12.502  18.607  0.00  0.00    +0.000 C 
ATOM      4  C   UNL     1      11.461  11.662  19.856  0.00  0.00    +0.000 C 
ATOM      5  N   UNL     1      10.191  11.444  20.507  0.00  0.00    +0.000 NA
ATOM      6  C   UNL     1       9.270  10.652  19.693  0.00  0.00    +0.000 C 
ATOM      7  C   UNL     1       9.562  10.720  18.177  0.00  0.00    +0.000 C 
ATOM      8  C   UNL     1      10.044  12.127  17.791  0.00  0.00    +0.000 C 
ATOM      9  C   UNL     1       8.816  13.031  18.055  0.00  0.00    +0.000 C 
ATOM     10  O   UNL     1       7.803  12.957  17.355  0.00  0.00    +0.000 OA
ATOM     11  C   UNL     1       8.939  14.003  19.111  0.00  0.00    +0.000 A 
ATOM     12  N   UNL     1       8.701  15.328  18.869  0.00  0.00    +0.000 N 
ATOM     13  C   UNL     1       9.431  16.084  19.747  0.00  0.00    +0.000 A 
ATOM     14  C   UNL     1       9.732  17.449  19.705  0.00  0.00    +0.000 A 
ATOM     15  C   UNL     1      10.556  17.956  20.707  0.00  0.00    +0.000 A 
ATOM     16  C   UNL     1      11.037  17.129  21.719  0.00  0.00    +0.000 A 
ATOM     17  C   UNL     1      10.702  15.766  21.758  0.00  0.00    +0.000 A 
ATOM     18  C   UNL     1       9.892  15.218  20.741  0.00  0.00    +0.000 A 
ATOM     19  C   UNL     1       9.446  13.882  20.402  0.00  0.00    +0.000 A 
ATOM     20  C   UNL     1       9.674  12.624  21.216  0.00  0.00    +0.000 C 
ATOM     21  H   UNL     1       8.293  15.679  18.013  0.00  0.00    +0.000 HD
ENDROOT
TORSDOF 0
ENDMDL
