MODEL 1
REMARK VINA RESULT:      -6.6      0.000      0.000
REMARK  Name = 
REMARK  18 active torsions:
REMARK  status: ('A' for Active; 'I' for Inactive)
REMARK    1  A    between atoms: C_1  and  C_2
REMARK    2  A    between atoms: C_2  and  C_3
REMARK    3  A    between atoms: C_3  and  P_4
REMARK    4  A    between atoms: P_4  and  N_6
REMARK    5  A    between atoms: P_4  and  O_14
REMARK    6  A    between atoms: N_6  and  C_7
REMARK    7  A    between atoms: C_7  and  C_8
REMARK    8  A    between atoms: C_7  and  C_9
REMARK    9  A    between atoms: C_9  and  O_11
REMARK   10  A    between atoms: O_11  and  C_12
REMARK   11  A    between atoms: C_12  and  C_13
REMARK   12  A    between atoms: O_14  and  C_15
REMARK   13  A    between atoms: C_16  and  C_17
REMARK   14  A    between atoms: C_17  and  C_18
REMARK   15  A    between atoms: C_17  and  C_19
REMARK   16  A    between atoms: C_23  and  C_24
REMARK   17  A    between atoms: C_24  and  C_25
REMARK   18  A    between atoms: C_24  and  C_26
REMARK                            x       y       z     vdW  Elec       q    Type
REMARK                         _______ _______ _______ _____ _____    ______ ____
ROOT
ATOM      1  P   UNL     1       5.446   6.570  17.423  0.00  0.00    +0.000 P 
ATOM      2  O   UNL     1       4.892   7.996  17.309  0.00  0.00    +0.000 OA
ENDROOT
BRANCH   1   3
ATOM      3  N   UNL     1       5.825   5.957  15.833  0.00  0.00    +0.000 NA
ATOM      4  H   UNL     1       6.230   6.731  15.344  0.00  0.00    +0.000 HD
BRANCH   3   5
ATOM      5  C   UNL     1       6.703   4.808  15.485  0.00  0.00    +0.000 C 
ATOM      6  C   UNL     1       5.958   3.491  15.626  0.00  0.00    +0.000 C 
BRANCH   5   7
ATOM      7  C   UNL     1       7.141   4.864  13.979  0.00  0.00    +0.000 C 
ATOM      8  O   UNL     1       8.010   5.588  13.520  0.00  0.00    +0.000 OA
BRANCH   7   9
ATOM      9  O   UNL     1       6.405   3.973  13.230  0.00  0.00    +0.000 OA
BRANCH   9  10
ATOM     10  C   UNL     1       6.848   3.651  11.892  0.00  0.00    +0.000 C 
ATOM     11  C   UNL     1       6.532   2.201  11.558  0.00  0.00    +0.000 C 
ENDBRANCH   9  10
ENDBRANCH   7   9
ENDBRANCH   5   7
ENDBRANCH   3   5
ENDBRANCH   1   3
BRANCH   1  12
ATOM     12  C   UNL     1       7.136   7.267  17.507  0.00  0.00    +0.000 C 
BRANCH  12  14
ATOM     13  C   UNL     1       7.657   5.611  19.395  0.00  0.00    +0.000 C 
ATOM     14  C   UNL     1       8.053   6.876  18.663  0.00  0.00    +0.000 C 
ENDBRANCH  12  14
ENDBRANCH   1  12
BRANCH   1  15
ATOM     15  O   UNL     1       3.849   5.911  17.342  0.00  0.00    +0.000 OA
BRANCH  15  16
ATOM     16  C   UNL     1       3.072   5.779  18.536  0.00  0.00    +0.000 A 
ATOM     17  C   UNL     1       3.096   4.445  19.053  0.00  0.00    +0.000 A 
ATOM     18  C   UNL     1       2.469   4.135  20.298  0.00  0.00    +0.000 A 
ATOM     19  C   UNL     1       1.846   5.086  21.064  0.00  0.00    +0.000 A 
ATOM     20  C   UNL     1       1.792   6.365  20.578  0.00  0.00    +0.000 A 
ATOM     21  C   UNL     1       2.340   6.766  19.311  0.00  0.00    +0.000 A 
BRANCH  17  22
ATOM     22  C   UNL     1       3.655   3.205  18.366  0.00  0.00    +0.000 C 
ATOM     23  C   UNL     1       4.310   2.290  19.401  0.00  0.00    +0.000 C 
ATOM     24  C   UNL     1       2.719   2.456  17.430  0.00  0.00    +0.000 C 
ENDBRANCH  17  22
BRANCH  21  25
ATOM     25  C   UNL     1       2.021   8.268  19.170  0.00  0.00    +0.000 C 
ATOM     26  C   UNL     1       1.731   8.654  17.712  0.00  0.00    +0.000 C 
ATOM     27  C   UNL     1       1.215   8.961  20.257  0.00  0.00    +0.000 C 
ENDBRANCH  21  25
ENDBRANCH  15  16
ENDBRANCH   1  15
TORSDOF 11
ENDMDL
MODEL 2
REMARK VINA RESULT:      -6.3      0.990      1.327
REMARK  Name = 
REMARK  18 active torsions:
REMARK  status: ('A' for Active; 'I' for Inactive)
REMARK    1  A    between atoms: C_1  and  C_2
REMARK    2  A    between atoms: C_2  and  C_3
REMARK    3  A    between atoms: C_3  and  P_4
REMARK    4  A    between atoms: P_4  and  N_6
REMARK    5  A    between atoms: P_4  and  O_14
REMARK    6  A    between atoms: N_6  and  C_7
REMARK    7  A    between atoms: C_7  and  C_8
REMARK    8  A    between atoms: C_7  and  C_9
REMARK    9  A    between atoms: C_9  and  O_11
REMARK   10  A    between atoms: O_11  and  C_12
REMARK   11  A    between atoms: C_12  and  C_13
REMARK   12  A    between atoms: O_14  and  C_15
REMARK   13  A    between atoms: C_16  and  C_17
REMARK   14  A    between atoms: C_17  and  C_18
REMARK   15  A    between atoms: C_17  and  C_19
REMARK   16  A    between atoms: C_23  and  C_24
REMARK   17  A    between atoms: C_24  and  C_25
REMARK   18  A    between atoms: C_24  and  C_26
REMARK                            x       y       z     vdW  Elec       q    Type
REMARK                         _______ _______ _______ _____ _____    ______ ____
ROOT
ATOM      1  P   UNL     1       5.389   6.367  17.228  0.00  0.00    +0.000 P 
ATOM      2  O   UNL     1       4.922   6.749  15.817  0.00  0.00    +0.000 OA
ENDROOT
BRANCH   1   3
ATOM      3  N   UNL     1       6.540   5.058  17.133  0.00  0.00    +0.000 NA
ATOM      4  H   UNL     1       6.357   4.491  17.937  0.00  0.00    +0.000 HD
BRANCH   3   5
ATOM      5  C   UNL     1       6.715   4.077  16.029  0.00  0.00    +0.000 C 
ATOM      6  C   UNL     1       5.443   3.280  15.803  0.00  0.00    +0.000 C 
BRANCH   5   7
ATOM      7  C   UNL     1       6.987   4.800  14.663  0.00  0.00    +0.000 C 
ATOM      8  O   UNL     1       7.899   5.581  14.444  0.00  0.00    +0.000 OA
BRANCH   7   9
ATOM      9  O   UNL     1       6.045   4.432  13.729  0.00  0.00    +0.000 OA
BRANCH   9  10
ATOM     10  C   UNL     1       6.469   3.686  12.564  0.00  0.00    +0.000 C 
ATOM     11  C   UNL     1       5.267   3.116  11.828  0.00  0.00    +0.000 C 
ENDBRANCH   9  10
ENDBRANCH   7   9
ENDBRANCH   5   7
ENDBRANCH   3   5
ENDBRANCH   1   3
BRANCH   1  12
ATOM     12  C   UNL     1       6.779   7.544  17.052  0.00  0.00    +0.000 C 
BRANCH  12  14
ATOM     13  C   UNL     1       8.492   8.921  18.372  0.00  0.00    +0.000 C 
ATOM     14  C   UNL     1       7.886   7.561  18.103  0.00  0.00    +0.000 C 
ENDBRANCH  12  14
ENDBRANCH   1  12
BRANCH   1  15
ATOM     15  O   UNL     1       4.074   5.254  17.393  0.00  0.00    +0.000 OA
BRANCH  15  16
ATOM     16  C   UNL     1       3.249   5.296  18.560  0.00  0.00    +0.000 A 
ATOM     17  C   UNL     1       3.319   4.083  19.317  0.00  0.00    +0.000 A 
ATOM     18  C   UNL     1       2.649   3.969  20.573  0.00  0.00    +0.000 A 
ATOM     19  C   UNL     1       1.940   5.004  21.125  0.00  0.00    +0.000 A 
ATOM     20  C   UNL     1       1.842   6.166  20.408  0.00  0.00    +0.000 A 
ATOM     21  C   UNL     1       2.428   6.361  19.110  0.00  0.00    +0.000 A 
BRANCH  17  22
ATOM     22  C   UNL     1       3.976   2.775  18.893  0.00  0.00    +0.000 C 
ATOM     23  C   UNL     1       4.615   2.099  20.108  0.00  0.00    +0.000 C 
ATOM     24  C   UNL     1       3.134   1.818  18.065  0.00  0.00    +0.000 C 
ENDBRANCH  17  22
BRANCH  21  25
ATOM     25  C   UNL     1       2.036   7.789  18.680  0.00  0.00    +0.000 C 
ATOM     26  C   UNL     1       1.566   8.635  19.872  0.00  0.00    +0.000 C 
ATOM     27  C   UNL     1       2.842   8.486  17.596  0.00  0.00    +0.000 C 
ENDBRANCH  21  25
ENDBRANCH  15  16
ENDBRANCH   1  15
TORSDOF 11
ENDMDL
MODEL 3
REMARK VINA RESULT:      -6.2      0.617      3.385
REMARK  Name = 
REMARK  18 active torsions:
REMARK  status: ('A' for Active; 'I' for Inactive)
REMARK    1  A    between atoms: C_1  and  C_2
REMARK    2  A    between atoms: C_2  and  C_3
REMARK    3  A    between atoms: C_3  and  P_4
REMARK    4  A    between atoms: P_4  and  N_6
REMARK    5  A    between atoms: P_4  and  O_14
REMARK    6  A    between atoms: N_6  and  C_7
REMARK    7  A    between atoms: C_7  and  C_8
REMARK    8  A    between atoms: C_7  and  C_9
REMARK    9  A    between atoms: C_9  and  O_11
REMARK   10  A    between atoms: O_11  and  C_12
REMARK   11  A    between atoms: C_12  and  C_13
REMARK   12  A    between atoms: O_14  and  C_15
REMARK   13  A    between atoms: C_16  and  C_17
REMARK   14  A    between atoms: C_17  and  C_18
REMARK   15  A    between atoms: C_17  and  C_19
REMARK   16  A    between atoms: C_23  and  C_24
REMARK   17  A    between atoms: C_24  and  C_25
REMARK   18  A    between atoms: C_24  and  C_26
REMARK                            x       y       z     vdW  Elec       q    Type
REMARK                         _______ _______ _______ _____ _____    ______ ____
ROOT
ATOM      1  P   UNL     1       5.350   6.491  17.466  0.00  0.00    +0.000 P 
ATOM      2  O   UNL     1       4.982   7.965  17.253  0.00  0.00    +0.000 OA
ENDROOT
BRANCH   1   3
ATOM      3  N   UNL     1       5.571   5.710  15.921  0.00  0.00    +0.000 NA
ATOM      4  H   UNL     1       5.825   6.446  15.291  0.00  0.00    +0.000 HD
BRANCH   3   5
ATOM      5  C   UNL     1       6.508   4.605  15.584  0.00  0.00    +0.000 C 
ATOM      6  C   UNL     1       5.883   3.253  15.880  0.00  0.00    +0.000 C 
BRANCH   5   7
ATOM      7  C   UNL     1       6.824   4.576  14.048  0.00  0.00    +0.000 C 
ATOM      8  O   UNL     1       7.476   5.411  13.442  0.00  0.00    +0.000 OA
BRANCH   7   9
ATOM      9  O   UNL     1       6.258   3.466  13.461  0.00  0.00    +0.000 OA
BRANCH   9  10
ATOM     10  C   UNL     1       6.104   3.437  12.023  0.00  0.00    +0.000 C 
ATOM     11  C   UNL     1       4.640   3.272  11.646  0.00  0.00    +0.000 C 
ENDBRANCH   9  10
ENDBRANCH   7   9
ENDBRANCH   5   7
ENDBRANCH   3   5
ENDBRANCH   1   3
BRANCH   1  12
ATOM     12  C   UNL     1       7.119   6.960  17.432  0.00  0.00    +0.000 C 
BRANCH  12  14
ATOM     13  C   UNL     1       7.492   5.552  19.542  0.00  0.00    +0.000 C 
ATOM     14  C   UNL     1       8.000   6.657  18.641  0.00  0.00    +0.000 C 
ENDBRANCH  12  14
ENDBRANCH   1  12
BRANCH   1  15
ATOM     15  O   UNL     1       3.679   6.047  17.498  0.00  0.00    +0.000 OA
BRANCH  15  16
ATOM     16  C   UNL     1       3.116   5.477  18.683  0.00  0.00    +0.000 A 
ATOM     17  C   UNL     1       2.319   6.417  19.410  0.00  0.00    +0.000 A 
ATOM     18  C   UNL     1       1.584   6.009  20.565  0.00  0.00    +0.000 A 
ATOM     19  C   UNL     1       1.581   4.713  21.015  0.00  0.00    +0.000 A 
ATOM     20  C   UNL     1       2.355   3.803  20.347  0.00  0.00    +0.000 A 
ATOM     21  C   UNL     1       3.175   4.125  19.212  0.00  0.00    +0.000 A 
BRANCH  17  22
ATOM     22  C   UNL     1       2.212   7.916  19.160  0.00  0.00    +0.000 C 
ATOM     23  C   UNL     1       1.636   8.170  17.766  0.00  0.00    +0.000 C 
ATOM     24  C   UNL     1       1.531   8.747  20.237  0.00  0.00    +0.000 C 
ENDBRANCH  17  22
BRANCH  21  25
ATOM     25  C   UNL     1       3.882   2.813  18.816  0.00  0.00    +0.000 C 
ATOM     26  C   UNL     1       4.616   2.179  20.006  0.00  0.00    +0.000 C 
ATOM     27  C   UNL     1       3.211   1.878  17.823  0.00  0.00    +0.000 C 
ENDBRANCH  21  25
ENDBRANCH  15  16
ENDBRANCH   1  15
TORSDOF 11
ENDMDL
MODEL 4
REMARK VINA RESULT:      -6.0      1.898      4.443
REMARK  Name = 
REMARK  18 active torsions:
REMARK  status: ('A' for Active; 'I' for Inactive)
REMARK    1  A    between atoms: C_1  and  C_2
REMARK    2  A    between atoms: C_2  and  C_3
REMARK    3  A    between atoms: C_3  and  P_4
REMARK    4  A    between atoms: P_4  and  N_6
REMARK    5  A    between atoms: P_4  and  O_14
REMARK    6  A    between atoms: N_6  and  C_7
REMARK    7  A    between atoms: C_7  and  C_8
REMARK    8  A    between atoms: C_7  and  C_9
REMARK    9  A    between atoms: C_9  and  O_11
REMARK   10  A    between atoms: O_11  and  C_12
REMARK   11  A    between atoms: C_12  and  C_13
REMARK   12  A    between atoms: O_14  and  C_15
REMARK   13  A    between atoms: C_16  and  C_17
REMARK   14  A    between atoms: C_17  and  C_18
REMARK   15  A    between atoms: C_17  and  C_19
REMARK   16  A    between atoms: C_23  and  C_24
REMARK   17  A    between atoms: C_24  and  C_25
REMARK   18  A    between atoms: C_24  and  C_26
REMARK                            x       y       z     vdW  Elec       q    Type
REMARK                         _______ _______ _______ _____ _____    ______ ____
ROOT
ATOM      1  P   UNL     1       5.172   5.028  17.256  0.00  0.00    +0.000 P 
ATOM      2  O   UNL     1       5.211   3.500  17.121  0.00  0.00    +0.000 OA
ENDROOT
BRANCH   1   3
ATOM      3  N   UNL     1       6.789   5.640  17.494  0.00  0.00    +0.000 NA
ATOM      4  H   UNL     1       7.016   6.115  16.642  0.00  0.00    +0.000 HD
BRANCH   3   5
ATOM      5  C   UNL     1       7.268   6.559  18.561  0.00  0.00    +0.000 C 
ATOM      6  C   UNL     1       8.344   5.899  19.405  0.00  0.00    +0.000 C 
BRANCH   5   7
ATOM      7  C   UNL     1       7.956   7.830  17.949  0.00  0.00    +0.000 C 
ATOM      8  O   UNL     1       7.823   8.225  16.802  0.00  0.00    +0.000 OA
BRANCH   7   9
ATOM      9  O   UNL     1       8.743   8.451  18.893  0.00  0.00    +0.000 OA
BRANCH   9  10
ATOM     10  C   UNL     1       9.073   9.849  18.718  0.00  0.00    +0.000 C 
ATOM     11  C   UNL     1       9.242  10.531  20.067  0.00  0.00    +0.000 C 
ENDBRANCH   9  10
ENDBRANCH   7   9
ENDBRANCH   5   7
ENDBRANCH   3   5
ENDBRANCH   1   3
BRANCH   1  12
ATOM     12  C   UNL     1       5.434   5.163  15.450  0.00  0.00    +0.000 C 
BRANCH  12  14
ATOM     13  C   UNL     1       6.504   4.274  13.296  0.00  0.00    +0.000 C 
ATOM     14  C   UNL     1       5.970   3.961  14.677  0.00  0.00    +0.000 C 
ENDBRANCH  12  14
ENDBRANCH   1  12
BRANCH   1  15
ATOM     15  O   UNL     1       4.924   4.901  18.964  0.00  0.00    +0.000 OA
BRANCH  15  16
ATOM     16  C   UNL     1       3.600   4.748  19.481  0.00  0.00    +0.000 A 
ATOM     17  C   UNL     1       3.308   3.392  19.833  0.00  0.00    +0.000 A 
ATOM     18  C   UNL     1       2.074   3.053  20.468  0.00  0.00    +0.000 A 
ATOM     19  C   UNL     1       1.132   3.995  20.794  0.00  0.00    +0.000 A 
ATOM     20  C   UNL     1       1.381   5.295  20.446  0.00  0.00    +0.000 A 
ATOM     21  C   UNL     1       2.563   5.730  19.754  0.00  0.00    +0.000 A 
BRANCH  17  22
ATOM     22  C   UNL     1       4.150   2.162  19.517  0.00  0.00    +0.000 C 
ATOM     23  C   UNL     1       4.709   1.570  20.812  0.00  0.00    +0.000 C 
ATOM     24  C   UNL     1       3.522   1.111  18.616  0.00  0.00    +0.000 C 
ENDBRANCH  17  22
BRANCH  21  25
ATOM     25  C   UNL     1       2.398   7.249  19.548  0.00  0.00    +0.000 C 
ATOM     26  C   UNL     1       2.332   7.619  18.060  0.00  0.00    +0.000 C 
ATOM     27  C   UNL     1       1.524   8.037  20.510  0.00  0.00    +0.000 C 
ENDBRANCH  21  25
ENDBRANCH  15  16
ENDBRANCH   1  15
TORSDOF 11
ENDMDL
MODEL 5
REMARK VINA RESULT:      -5.9      0.800      1.075
REMARK  Name = 
REMARK  18 active torsions:
REMARK  status: ('A' for Active; 'I' for Inactive)
REMARK    1  A    between atoms: C_1  and  C_2
REMARK    2  A    between atoms: C_2  and  C_3
REMARK    3  A    between atoms: C_3  and  P_4
REMARK    4  A    between atoms: P_4  and  N_6
REMARK    5  A    between atoms: P_4  and  O_14
REMARK    6  A    between atoms: N_6  and  C_7
REMARK    7  A    between atoms: C_7  and  C_8
REMARK    8  A    between atoms: C_7  and  C_9
REMARK    9  A    between atoms: C_9  and  O_11
REMARK   10  A    between atoms: O_11  and  C_12
REMARK   11  A    between atoms: C_12  and  C_13
REMARK   12  A    between atoms: O_14  and  C_15
REMARK   13  A    between atoms: C_16  and  C_17
REMARK   14  A    between atoms: C_17  and  C_18
REMARK   15  A    between atoms: C_17  and  C_19
REMARK   16  A    between atoms: C_23  and  C_24
REMARK   17  A    between atoms: C_24  and  C_25
REMARK   18  A    between atoms: C_24  and  C_26
REMARK                            x       y       z     vdW  Elec       q    Type
REMARK                         _______ _______ _______ _____ _____    ______ ____
ROOT
ATOM      1  P   UNL     1       5.525   6.481  17.292  0.00  0.00    +0.000 P 
ATOM      2  O   UNL     1       5.020   7.918  17.475  0.00  0.00    +0.000 OA
ENDROOT
BRANCH   1   3
ATOM      3  N   UNL     1       5.758   6.151  15.595  0.00  0.00    +0.000 NA
ATOM      4  H   UNL     1       6.152   6.990  15.217  0.00  0.00    +0.000 HD
BRANCH   3   5
ATOM      5  C   UNL     1       6.566   5.063  14.981  0.00  0.00    +0.000 C 
ATOM      6  C   UNL     1       7.187   4.178  16.047  0.00  0.00    +0.000 C 
BRANCH   5   7
ATOM      7  C   UNL     1       5.668   4.100  14.128  0.00  0.00    +0.000 C 
ATOM      8  O   UNL     1       4.627   3.584  14.503  0.00  0.00    +0.000 OA
BRANCH   7   9
ATOM      9  O   UNL     1       6.217   3.909  12.880  0.00  0.00    +0.000 OA
BRANCH   9  10
ATOM     10  C   UNL     1       5.707   2.841  12.047  0.00  0.00    +0.000 C 
ATOM     11  C   UNL     1       4.425   3.272  11.352  0.00  0.00    +0.000 C 
ENDBRANCH   9  10
ENDBRANCH   7   9
ENDBRANCH   5   7
ENDBRANCH   3   5
ENDBRANCH   1   3
BRANCH   1  12
ATOM     12  C   UNL     1       7.242   7.110  17.361  0.00  0.00    +0.000 C 
BRANCH  12  14
ATOM     13  C   UNL     1       7.876   5.655  19.375  0.00  0.00    +0.000 C 
ATOM     14  C   UNL     1       8.040   6.976  18.655  0.00  0.00    +0.000 C 
ENDBRANCH  12  14
ENDBRANCH   1  12
BRANCH   1  15
ATOM     15  O   UNL     1       3.901   5.888  17.228  0.00  0.00    +0.000 OA
BRANCH  15  16
ATOM     16  C   UNL     1       3.148   5.742  18.434  0.00  0.00    +0.000 A 
ATOM     17  C   UNL     1       3.203   4.409  18.950  0.00  0.00    +0.000 A 
ATOM     18  C   UNL     1       2.603   4.088  20.206  0.00  0.00    +0.000 A 
ATOM     19  C   UNL     1       1.977   5.028  20.983  0.00  0.00    +0.000 A 
ATOM     20  C   UNL     1       1.893   6.305  20.498  0.00  0.00    +0.000 A 
ATOM     21  C   UNL     1       2.412   6.716  19.223  0.00  0.00    +0.000 A 
BRANCH  17  22
ATOM     22  C   UNL     1       3.772   3.179  18.252  0.00  0.00    +0.000 C 
ATOM     23  C   UNL     1       4.491   2.292  19.270  0.00  0.00    +0.000 C 
ATOM     24  C   UNL     1       2.824   2.395  17.358  0.00  0.00    +0.000 C 
ENDBRANCH  17  22
BRANCH  21  25
ATOM     25  C   UNL     1       2.065   8.213  19.087  0.00  0.00    +0.000 C 
ATOM     26  C   UNL     1       1.798   8.606  17.628  0.00  0.00    +0.000 C 
ATOM     27  C   UNL     1       1.222   8.879  20.163  0.00  0.00    +0.000 C 
ENDBRANCH  21  25
ENDBRANCH  15  16
ENDBRANCH   1  15
TORSDOF 11
ENDMDL
MODEL 6
REMARK VINA RESULT:      -5.8      1.041      1.666
REMARK  Name = 
REMARK  18 active torsions:
REMARK  status: ('A' for Active; 'I' for Inactive)
REMARK    1  A    between atoms: C_1  and  C_2
REMARK    2  A    between atoms: C_2  and  C_3
REMARK    3  A    between atoms: C_3  and  P_4
REMARK    4  A    between atoms: P_4  and  N_6
REMARK    5  A    between atoms: P_4  and  O_14
REMARK    6  A    between atoms: N_6  and  C_7
REMARK    7  A    between atoms: C_7  and  C_8
REMARK    8  A    between atoms: C_7  and  C_9
REMARK    9  A    between atoms: C_9  and  O_11
REMARK   10  A    between atoms: O_11  and  C_12
REMARK   11  A    between atoms: C_12  and  C_13
REMARK   12  A    between atoms: O_14  and  C_15
REMARK   13  A    between atoms: C_16  and  C_17
REMARK   14  A    between atoms: C_17  and  C_18
REMARK   15  A    between atoms: C_17  and  C_19
REMARK   16  A    between atoms: C_23  and  C_24
REMARK   17  A    between atoms: C_24  and  C_25
REMARK   18  A    between atoms: C_24  and  C_26
REMARK                            x       y       z     vdW  Elec       q    Type
REMARK                         _______ _______ _______ _____ _____    ______ ____
ROOT
ATOM      1  P   UNL     1       5.819   6.055  17.910  0.00  0.00    +0.000 P 
ATOM      2  O   UNL     1       5.411   7.385  17.263  0.00  0.00    +0.000 OA
ENDROOT
BRANCH   1   3
ATOM      3  N   UNL     1       6.512   5.001  16.704  0.00  0.00    +0.000 NA
ATOM      4  H   UNL     1       6.163   4.089  16.923  0.00  0.00    +0.000 HD
BRANCH   3   5
ATOM      5  C   UNL     1       6.379   5.096  15.226  0.00  0.00    +0.000 C 
ATOM      6  C   UNL     1       7.695   5.499  14.585  0.00  0.00    +0.000 C 
BRANCH   5   7
ATOM      7  C   UNL     1       6.033   3.701  14.596  0.00  0.00    +0.000 C 
ATOM      8  O   UNL     1       5.525   2.762  15.188  0.00  0.00    +0.000 OA
BRANCH   7   9
ATOM      9  O   UNL     1       6.385   3.674  13.265  0.00  0.00    +0.000 OA
BRANCH   9  10
ATOM     10  C   UNL     1       5.365   3.400  12.277  0.00  0.00    +0.000 C 
ATOM     11  C   UNL     1       5.664   2.102  11.545  0.00  0.00    +0.000 C 
ENDBRANCH   9  10
ENDBRANCH   7   9
ENDBRANCH   5   7
ENDBRANCH   3   5
ENDBRANCH   1   3
BRANCH   1  12
ATOM     12  C   UNL     1       7.489   6.746  18.202  0.00  0.00    +0.000 C 
BRANCH  12  14
ATOM     13  C   UNL     1       8.417   9.131  18.362  0.00  0.00    +0.000 C 
ATOM     14  C   UNL     1       7.915   8.015  17.470  0.00  0.00    +0.000 C 
ENDBRANCH  12  14
ENDBRANCH   1  12
BRANCH   1  15
ATOM     15  O   UNL     1       4.241   5.402  17.634  0.00  0.00    +0.000 OA
BRANCH  15  16
ATOM     16  C   UNL     1       3.315   5.297  18.718  0.00  0.00    +0.000 A 
ATOM     17  C   UNL     1       3.389   4.027  19.373  0.00  0.00    +0.000 A 
ATOM     18  C   UNL     1       2.618   3.767  20.547  0.00  0.00    +0.000 A 
ATOM     19  C   UNL     1       1.803   4.711  21.115  0.00  0.00    +0.000 A 
ATOM     20  C   UNL     1       1.700   5.926  20.492  0.00  0.00    +0.000 A 
ATOM     21  C   UNL     1       2.387   6.266  19.277  0.00  0.00    +0.000 A 
BRANCH  17  22
ATOM     22  C   UNL     1       4.157   2.798  18.904  0.00  0.00    +0.000 C 
ATOM     23  C   UNL     1       4.689   2.027  20.114  0.00  0.00    +0.000 C 
ATOM     24  C   UNL     1       3.465   1.897  17.893  0.00  0.00    +0.000 C 
ENDBRANCH  17  22
BRANCH  21  25
ATOM     25  C   UNL     1       1.950   7.705  18.934  0.00  0.00    +0.000 C 
ATOM     26  C   UNL     1       1.632   8.520  20.195  0.00  0.00    +0.000 C 
ATOM     27  C   UNL     1       2.621   8.428  17.777  0.00  0.00    +0.000 C 
ENDBRANCH  21  25
ENDBRANCH  15  16
ENDBRANCH   1  15
TORSDOF 11
ENDMDL
MODEL 7
REMARK VINA RESULT:      -5.7      3.119      7.614
REMARK  Name = 
REMARK  18 active torsions:
REMARK  status: ('A' for Active; 'I' for Inactive)
REMARK    1  A    between atoms: C_1  and  C_2
REMARK    2  A    between atoms: C_2  and  C_3
REMARK    3  A    between atoms: C_3  and  P_4
REMARK    4  A    between atoms: P_4  and  N_6
REMARK    5  A    between atoms: P_4  and  O_14
REMARK    6  A    between atoms: N_6  and  C_7
REMARK    7  A    between atoms: C_7  and  C_8
REMARK    8  A    between atoms: C_7  and  C_9
REMARK    9  A    between atoms: C_9  and  O_11
REMARK   10  A    between atoms: O_11  and  C_12
REMARK   11  A    between atoms: C_12  and  C_13
REMARK   12  A    between atoms: O_14  and  C_15
REMARK   13  A    between atoms: C_16  and  C_17
REMARK   14  A    between atoms: C_17  and  C_18
REMARK   15  A    between atoms: C_17  and  C_19
REMARK   16  A    between atoms: C_23  and  C_24
REMARK   17  A    between atoms: C_24  and  C_25
REMARK   18  A    between atoms: C_24  and  C_26
REMARK                            x       y       z     vdW  Elec       q    Type
REMARK                         _______ _______ _______ _____ _____    ______ ____
ROOT
ATOM      1  P   UNL     1       2.360   7.360  18.915  0.00  0.00    +0.000 P 
ATOM      2  O   UNL     1       3.591   8.078  18.347  0.00  0.00    +0.000 OA
ENDROOT
BRANCH   1   3
ATOM      3  N   UNL     1       1.987   7.993  20.498  0.00  0.00    +0.000 NA
ATOM      4  H   UNL     1       2.780   8.551  20.749  0.00  0.00    +0.000 HD
BRANCH   3   5
ATOM      5  C   UNL     1       0.818   8.822  20.897  0.00  0.00    +0.000 C 
ATOM      6  C   UNL     1      -0.295   7.957  21.461  0.00  0.00    +0.000 C 
BRANCH   5   7
ATOM      7  C   UNL     1       1.191   9.809  22.058  0.00  0.00    +0.000 C 
ATOM      8  O   UNL     1       1.776   9.506  23.086  0.00  0.00    +0.000 OA
BRANCH   7   9
ATOM      9  O   UNL     1       0.764  11.084  21.761  0.00  0.00    +0.000 OA
BRANCH   9  10
ATOM     10  C   UNL     1      -0.563  11.489  22.168  0.00  0.00    +0.000 C 
ATOM     11  C   UNL     1      -1.381  11.929  20.964  0.00  0.00    +0.000 C 
ENDBRANCH   9  10
ENDBRANCH   7   9
ENDBRANCH   5   7
ENDBRANCH   3   5
ENDBRANCH   1   3
BRANCH   1  12
ATOM     12  C   UNL     1       1.303   8.668  18.193  0.00  0.00    +0.000 C 
BRANCH  12  14
ATOM     13  C   UNL     1       1.560  11.206  18.453  0.00  0.00    +0.000 C 
ATOM     14  C   UNL     1       1.943   9.957  17.687  0.00  0.00    +0.000 C 
ENDBRANCH  12  14
ENDBRANCH   1  12
BRANCH   1  15
ATOM     15  O   UNL     1       3.359   6.124  19.598  0.00  0.00    +0.000 OA
BRANCH  15  16
ATOM     16  C   UNL     1       3.639   4.940  18.848  0.00  0.00    +0.000 A 
ATOM     17  C   UNL     1       2.880   3.816  19.306  0.00  0.00    +0.000 A 
ATOM     18  C   UNL     1       2.939   2.567  18.616  0.00  0.00    +0.000 A 
ATOM     19  C   UNL     1       3.690   2.388  17.483  0.00  0.00    +0.000 A 
ATOM     20  C   UNL     1       4.441   3.443  17.040  0.00  0.00    +0.000 A 
ATOM     21  C   UNL     1       4.497   4.721  17.695  0.00  0.00    +0.000 A 
BRANCH  17  22
ATOM     22  C   UNL     1       2.033   3.737  20.570  0.00  0.00    +0.000 C 
ATOM     23  C   UNL     1       0.554   3.625  20.197  0.00  0.00    +0.000 C 
ATOM     24  C   UNL     1       2.453   2.716  21.617  0.00  0.00    +0.000 C 
ENDBRANCH  17  22
BRANCH  21  25
ATOM     25  C   UNL     1       5.481   5.575  16.871  0.00  0.00    +0.000 C 
ATOM     26  C   UNL     1       6.882   5.595  17.500  0.00  0.00    +0.000 C 
ATOM     27  C   UNL     1       5.389   5.559  15.355  0.00  0.00    +0.000 C 
ENDBRANCH  21  25
ENDBRANCH  15  16
ENDBRANCH   1  15
TORSDOF 11
ENDMDL
MODEL 8
REMARK VINA RESULT:      -5.6      3.466      8.162
REMARK  Name = 
REMARK  18 active torsions:
REMARK  status: ('A' for Active; 'I' for Inactive)
REMARK    1  A    between atoms: C_1  and  C_2
REMARK    2  A    between atoms: C_2  and  C_3
REMARK    3  A    between atoms: C_3  and  P_4
REMARK    4  A    between atoms: P_4  and  N_6
REMARK    5  A    between atoms: P_4  and  O_14
REMARK    6  A    between atoms: N_6  and  C_7
REMARK    7  A    between atoms: C_7  and  C_8
REMARK    8  A    between atoms: C_7  and  C_9
REMARK    9  A    between atoms: C_9  and  O_11
REMARK   10  A    between atoms: O_11  and  C_12
REMARK   11  A    between atoms: C_12  and  C_13
REMARK   12  A    between atoms: O_14  and  C_15
REMARK   13  A    between atoms: C_16  and  C_17
REMARK   14  A    between atoms: C_17  and  C_18
REMARK   15  A    between atoms: C_17  and  C_19
REMARK   16  A    between atoms: C_23  and  C_24
REMARK   17  A    between atoms: C_24  and  C_25
REMARK   18  A    between atoms: C_24  and  C_26
REMARK                            x       y       z     vdW  Elec       q    Type
REMARK                         _______ _______ _______ _____ _____    ______ ____
ROOT
ATOM      1  P   UNL     1       1.790   8.232  18.772  0.00  0.00    +0.000 P 
ATOM      2  O   UNL     1       3.030   8.907  18.172  0.00  0.00    +0.000 OA
ENDROOT
BRANCH   1   3
ATOM      3  N   UNL     1       1.487   8.869  20.368  0.00  0.00    +0.000 NA
ATOM      4  H   UNL     1       2.206   9.550  20.518  0.00  0.00    +0.000 HD
BRANCH   3   5
ATOM      5  C   UNL     1       0.252   9.531  20.866  0.00  0.00    +0.000 C 
ATOM      6  C   UNL     1      -0.391   8.719  21.976  0.00  0.00    +0.000 C 
BRANCH   5   7
ATOM      7  C   UNL     1       0.575  10.922  21.517  0.00  0.00    +0.000 C 
ATOM      8  O   UNL     1       1.368  11.741  21.083  0.00  0.00    +0.000 OA
BRANCH   7   9
ATOM      9  O   UNL     1      -0.166  11.099  22.664  0.00  0.00    +0.000 OA
BRANCH   9  10
ATOM     10  C   UNL     1      -1.000  12.275  22.783  0.00  0.00    +0.000 C 
ATOM     11  C   UNL     1      -2.401  11.894  23.236  0.00  0.00    +0.000 C 
ENDBRANCH   9  10
ENDBRANCH   7   9
ENDBRANCH   5   7
ENDBRANCH   3   5
ENDBRANCH   1   3
BRANCH   1  12
ATOM     12  C   UNL     1       0.762   9.581  18.086  0.00  0.00    +0.000 C 
BRANCH  12  14
ATOM     13  C   UNL     1      -1.673  10.270  17.671  0.00  0.00    +0.000 C 
ATOM     14  C   UNL     1      -0.580   9.248  17.440  0.00  0.00    +0.000 C 
ENDBRANCH  12  14
ENDBRANCH   1  12
BRANCH   1  15
ATOM     15  O   UNL     1       2.763   6.956  19.421  0.00  0.00    +0.000 OA
BRANCH  15  16
ATOM     16  C   UNL     1       3.135   5.853  18.591  0.00  0.00    +0.000 A 
ATOM     17  C   UNL     1       2.394   4.669  18.900  0.00  0.00    +0.000 A 
ATOM     18  C   UNL     1       2.544   3.488  18.111  0.00  0.00    +0.000 A 
ATOM     19  C   UNL     1       3.370   3.435  17.018  0.00  0.00    +0.000 A 
ATOM     20  C   UNL     1       4.105   4.550  16.717  0.00  0.00    +0.000 A 
ATOM     21  C   UNL     1       4.070   5.766  17.482  0.00  0.00    +0.000 A 
BRANCH  17  22
ATOM     22  C   UNL     1       1.474   4.449  20.095  0.00  0.00    +0.000 C 
ATOM     23  C   UNL     1       0.530   3.278  19.814  0.00  0.00    +0.000 C 
ATOM     24  C   UNL     1       2.132   4.356  21.463  0.00  0.00    +0.000 C 
ENDBRANCH  17  22
BRANCH  21  25
ATOM     25  C   UNL     1       5.070   6.723  16.801  0.00  0.00    +0.000 C 
ATOM     26  C   UNL     1       6.363   6.870  17.615  0.00  0.00    +0.000 C 
ATOM     27  C   UNL     1       5.187   6.717  15.286  0.00  0.00    +0.000 C 
ENDBRANCH  21  25
ENDBRANCH  15  16
ENDBRANCH   1  15
TORSDOF 11
ENDMDL
MODEL 9
REMARK VINA RESULT:      -5.6      1.905      4.329
REMARK  Name = 
REMARK  18 active torsions:
REMARK  status: ('A' for Active; 'I' for Inactive)
REMARK    1  A    between atoms: C_1  and  C_2
REMARK    2  A    between atoms: C_2  and  C_3
REMARK    3  A    between atoms: C_3  and  P_4
REMARK    4  A    between atoms: P_4  and  N_6
REMARK    5  A    between atoms: P_4  and  O_14
REMARK    6  A    between atoms: N_6  and  C_7
REMARK    7  A    between atoms: C_7  and  C_8
REMARK    8  A    between atoms: C_7  and  C_9
REMARK    9  A    between atoms: C_9  and  O_11
REMARK   10  A    between atoms: O_11  and  C_12
REMARK   11  A    between atoms: C_12  and  C_13
REMARK   12  A    between atoms: O_14  and  C_15
REMARK   13  A    between atoms: C_16  and  C_17
REMARK   14  A    between atoms: C_17  and  C_18
REMARK   15  A    between atoms: C_17  and  C_19
REMARK   16  A    between atoms: C_23  and  C_24
REMARK   17  A    between atoms: C_24  and  C_25
REMARK   18  A    between atoms: C_24  and  C_26
REMARK                            x       y       z     vdW  Elec       q    Type
REMARK                         _______ _______ _______ _____ _____    ______ ____
ROOT
ATOM      1  P   UNL     1       5.101   4.805  16.840  0.00  0.00    +0.000 P 
ATOM      2  O   UNL     1       5.128   3.276  16.719  0.00  0.00    +0.000 OA
ENDROOT
BRANCH   1   3
ATOM      3  N   UNL     1       6.733   5.422  16.882  0.00  0.00    +0.000 NA
ATOM      4  H   UNL     1       7.088   5.285  15.955  0.00  0.00    +0.000 HD
BRANCH   3   5
ATOM      5  C   UNL     1       7.181   6.793  17.242  0.00  0.00    +0.000 C 
ATOM      6  C   UNL     1       5.995   7.728  17.405  0.00  0.00    +0.000 C 
BRANCH   5   7
ATOM      7  C   UNL     1       7.901   6.808  18.636  0.00  0.00    +0.000 C 
ATOM      8  O   UNL     1       7.770   5.966  19.511  0.00  0.00    +0.000 OA
BRANCH   7   9
ATOM      9  O   UNL     1       8.713   7.915  18.747  0.00  0.00    +0.000 OA
BRANCH   9  10
ATOM     10  C   UNL     1       8.334   9.131  18.062  0.00  0.00    +0.000 C 
ATOM     11  C   UNL     1       9.084  10.323  18.636  0.00  0.00    +0.000 C 
ENDBRANCH   9  10
ENDBRANCH   7   9
ENDBRANCH   5   7
ENDBRANCH   3   5
ENDBRANCH   1   3
BRANCH   1  12
ATOM     12  C   UNL     1       5.152   4.919  15.014  0.00  0.00    +0.000 C 
BRANCH  12  14
ATOM     13  C   UNL     1       5.872   3.653  12.904  0.00  0.00    +0.000 C 
ATOM     14  C   UNL     1       6.272   4.220  14.249  0.00  0.00    +0.000 C 
ENDBRANCH  12  14
ENDBRANCH   1  12
BRANCH   1  15
ATOM     15  O   UNL     1       5.053   4.698  18.566  0.00  0.00    +0.000 OA
BRANCH  15  16
ATOM     16  C   UNL     1       3.794   4.625  19.239  0.00  0.00    +0.000 A 
ATOM     17  C   UNL     1       3.542   3.323  19.777  0.00  0.00    +0.000 A 
ATOM     18  C   UNL     1       2.385   3.076  20.578  0.00  0.00    +0.000 A 
ATOM     19  C   UNL     1       1.486   4.062  20.893  0.00  0.00    +0.000 A 
ATOM     20  C   UNL     1       1.696   5.310  20.371  0.00  0.00    +0.000 A 
ATOM     21  C   UNL     1       2.794   5.645  19.507  0.00  0.00    +0.000 A 
BRANCH  17  22
ATOM     22  C   UNL     1       4.343   2.053  19.516  0.00  0.00    +0.000 C 
ATOM     23  C   UNL     1       4.868   1.491  20.838  0.00  0.00    +0.000 C 
ATOM     24  C   UNL     1       3.687   0.991  18.647  0.00  0.00    +0.000 C 
ENDBRANCH  17  22
BRANCH  21  25
ATOM     25  C   UNL     1       2.608   7.133  19.146  0.00  0.00    +0.000 C 
ATOM     26  C   UNL     1       2.341   7.326  17.646  0.00  0.00    +0.000 C 
ATOM     27  C   UNL     1       1.878   8.047  20.116  0.00  0.00    +0.000 C 
ENDBRANCH  21  25
ENDBRANCH  15  16
ENDBRANCH   1  15
TORSDOF 11
ENDMDL
