MODEL 1
REMARK VINA RESULT:      -7.0      0.000      0.000
REMARK  Name = 
REMARK  8 active torsions:
REMARK  status: ('A' for Active; 'I' for Inactive)
REMARK    1  A    between atoms: C_1  and  C_2
REMARK    2  A    between atoms: C_2  and  O_3
REMARK    3  A    between atoms: O_3  and  C_4
REMARK    4  A    between atoms: C_4  and  C_6
REMARK    5  A    between atoms: C_7  and  N_8
REMARK    6  A    between atoms: N_8  and  C_9
REMARK    7  A    between atoms: C_18  and  C_19
REMARK    8  A    between atoms: C_22  and  C_23
REMARK                            x       y       z     vdW  Elec       q    Type
REMARK                         _______ _______ _______ _____ _____    ______ ____
ROOT
ATOM      1  C   UNL     1       1.565   8.186  20.422  0.00  0.00    +0.000 C 
ATOM      2  C   UNL     1       1.793   8.759  19.219  0.00  0.00    +0.000 C 
ATOM      3  S   UNL     1       2.277   7.627  17.957  0.00  0.00    +0.000 S 
ATOM      4  C   UNL     1       2.754   6.490  19.151  0.00  0.00    +0.000 C 
ATOM      5  C   UNL     1       3.707   5.558  19.002  0.00  0.00    +0.000 C 
ATOM      6  C   UNL     1       2.076   6.795  20.441  0.00  0.00    +0.000 C 
ATOM      7  O   UNL     1       2.013   6.021  21.381  0.00  0.00    +0.000 OA
ENDROOT
BRANCH   5   8
ATOM      8  C   UNL     1       4.486   5.401  17.764  0.00  0.00    +0.000 A 
ATOM      9  C   UNL     1       4.249   4.309  16.918  0.00  0.00    +0.000 A 
ATOM     10  C   UNL     1       5.027   4.118  15.771  0.00  0.00    +0.000 A 
ATOM     11  C   UNL     1       6.053   5.014  15.453  0.00  0.00    +0.000 A 
ATOM     12  C   UNL     1       6.885   4.835  14.216  0.00  0.00    +0.000 C 
ATOM     13  C   UNL     1       6.293   6.099  16.305  0.00  0.00    +0.000 A 
ATOM     14  C   UNL     1       5.520   6.289  17.455  0.00  0.00    +0.000 A 
ENDBRANCH   5   8
BRANCH   1  15
ATOM     15  C   UNL     1       1.111   8.914  21.623  0.00  0.00    +0.000 C 
ATOM     16  O   UNL     1       1.807   9.194  22.583  0.00  0.00    +0.000 OA
BRANCH  15  17
ATOM     17  O   UNL     1      -0.212   9.227  21.498  0.00  0.00    +0.000 OA
BRANCH  17  19
ATOM     18  C   UNL     1      -1.041  11.422  22.128  0.00  0.00    +0.000 C 
ATOM     19  C   UNL     1      -0.811   9.986  22.562  0.00  0.00    +0.000 C 
ENDBRANCH  17  19
ENDBRANCH  15  17
ENDBRANCH   1  15
BRANCH   2  20
ATOM     20  N   UNL     1       1.744  10.119  18.933  0.00  0.00    +0.000 N 
ATOM     21  H   UNL     1       2.436  10.384  18.228  0.00  0.00    +0.000 HD
BRANCH  20  22
ATOM     22  C   UNL     1       0.504  10.744  18.595  0.00  0.00    +0.000 A 
ATOM     23  C   UNL     1       0.383  12.126  18.789  0.00  0.00    +0.000 A 
ATOM     24  C   UNL     1      -0.820  12.787  18.521  0.00  0.00    +0.000 A 
ATOM     25  C   UNL     1      -1.922  12.072  18.058  0.00  0.00    +0.000 A 
ATOM     26  C   UNL     1      -1.816  10.701  17.867  0.00  0.00    +0.000 A 
ATOM     27 CL   UNL     1      -3.172   9.804  17.293  0.00  0.00    +0.000 Cl
ATOM     28  C   UNL     1      -0.619  10.037  18.135  0.00  0.00    +0.000 A 
ENDBRANCH  20  22
ENDBRANCH   2  20
TORSDOF 6
ENDMDL
MODEL 2
REMARK VINA RESULT:      -6.9      2.521      4.107
REMARK  Name = 
REMARK  8 active torsions:
REMARK  status: ('A' for Active; 'I' for Inactive)
REMARK    1  A    between atoms: C_1  and  C_2
REMARK    2  A    between atoms: C_2  and  O_3
REMARK    3  A    between atoms: O_3  and  C_4
REMARK    4  A    between atoms: C_4  and  C_6
REMARK    5  A    between atoms: C_7  and  N_8
REMARK    6  A    between atoms: N_8  and  C_9
REMARK    7  A    between atoms: C_18  and  C_19
REMARK    8  A    between atoms: C_22  and  C_23
REMARK                            x       y       z     vdW  Elec       q    Type
REMARK                         _______ _______ _______ _____ _____    ______ ____
ROOT
ATOM      1  C   UNL     1      -0.705  11.310  21.568  0.00  0.00    +0.000 C 
ATOM      2  C   UNL     1      -0.852  10.995  20.262  0.00  0.00    +0.000 C 
ATOM      3  S   UNL     1      -0.581   9.291  19.893  0.00  0.00    +0.000 S 
ATOM      4  C   UNL     1       0.305   9.111  21.351  0.00  0.00    +0.000 C 
ATOM      5  C   UNL     1       1.286   8.221  21.562  0.00  0.00    +0.000 C 
ATOM      6  C   UNL     1      -0.056  10.199  22.301  0.00  0.00    +0.000 C 
ATOM      7  O   UNL     1       0.208  10.183  23.493  0.00  0.00    +0.000 OA
ENDROOT
BRANCH   5   8
ATOM      8  C   UNL     1       1.740   7.273  20.532  0.00  0.00    +0.000 A 
ATOM      9  C   UNL     1       2.271   7.747  19.325  0.00  0.00    +0.000 A 
ATOM     10  C   UNL     1       2.648   6.854  18.316  0.00  0.00    +0.000 A 
ATOM     11  C   UNL     1       2.496   5.476  18.496  0.00  0.00    +0.000 A 
ATOM     12  C   UNL     1       2.912   4.503  17.431  0.00  0.00    +0.000 C 
ATOM     13  C   UNL     1       1.956   5.005  19.700  0.00  0.00    +0.000 A 
ATOM     14  C   UNL     1       1.575   5.896  20.708  0.00  0.00    +0.000 A 
ENDBRANCH   5   8
BRANCH   1  15
ATOM     15  C   UNL     1      -0.919  12.657  22.132  0.00  0.00    +0.000 C 
ATOM     16  O   UNL     1      -0.062  13.344  22.660  0.00  0.00    +0.000 OA
BRANCH  15  17
ATOM     17  O   UNL     1      -2.226  13.019  21.975  0.00  0.00    +0.000 OA
BRANCH  17  19
ATOM     18  C   UNL     1      -4.567  12.933  22.620  0.00  0.00    +0.000 C 
ATOM     19  C   UNL     1      -3.128  12.709  23.050  0.00  0.00    +0.000 C 
ENDBRANCH  17  19
ENDBRANCH  15  17
ENDBRANCH   1  15
BRANCH   2  20
ATOM     20  N   UNL     1      -1.123  11.881  19.226  0.00  0.00    +0.000 N 
ATOM     21  H   UNL     1      -0.303  12.034  18.633  0.00  0.00    +0.000 HD
BRANCH  20  22
ATOM     22  C   UNL     1      -2.255  11.682  18.377  0.00  0.00    +0.000 A 
ATOM     23  C   UNL     1      -3.532  11.901  18.910  0.00  0.00    +0.000 A 
ATOM     24  C   UNL     1      -4.679  11.678  18.143  0.00  0.00    +0.000 A 
ATOM     25  C   UNL     1      -4.565  11.228  16.830  0.00  0.00    +0.000 A 
ATOM     26  C   UNL     1      -3.306  11.001  16.292  0.00  0.00    +0.000 A 
ATOM     27 CL   UNL     1      -3.150  10.444  14.667  0.00  0.00    +0.000 Cl
ATOM     28  C   UNL     1      -2.158  11.219  17.054  0.00  0.00    +0.000 A 
ENDBRANCH  20  22
ENDBRANCH   2  20
TORSDOF 6
ENDMDL
MODEL 3
REMARK VINA RESULT:      -6.7      2.422      3.872
REMARK  Name = 
REMARK  8 active torsions:
REMARK  status: ('A' for Active; 'I' for Inactive)
REMARK    1  A    between atoms: C_1  and  C_2
REMARK    2  A    between atoms: C_2  and  O_3
REMARK    3  A    between atoms: O_3  and  C_4
REMARK    4  A    between atoms: C_4  and  C_6
REMARK    5  A    between atoms: C_7  and  N_8
REMARK    6  A    between atoms: N_8  and  C_9
REMARK    7  A    between atoms: C_18  and  C_19
REMARK    8  A    between atoms: C_22  and  C_23
REMARK                            x       y       z     vdW  Elec       q    Type
REMARK                         _______ _______ _______ _____ _____    ______ ____
ROOT
ATOM      1  C   UNL     1      -0.445  11.181  21.630  0.00  0.00    +0.000 C 
ATOM      2  C   UNL     1      -0.659  10.912  20.323  0.00  0.00    +0.000 C 
ATOM      3  S   UNL     1      -0.473   9.212  19.892  0.00  0.00    +0.000 S 
ATOM      4  C   UNL     1       0.467   8.952  21.304  0.00  0.00    +0.000 C 
ATOM      5  C   UNL     1       1.419   8.018  21.445  0.00  0.00    +0.000 C 
ATOM      6  C   UNL     1       0.190  10.023  22.301  0.00  0.00    +0.000 C 
ATOM      7  O   UNL     1       0.503   9.959  23.479  0.00  0.00    +0.000 OA
ENDROOT
BRANCH   5   8
ATOM      8  C   UNL     1       1.791   7.086  20.369  0.00  0.00    +0.000 A 
ATOM      9  C   UNL     1       1.685   5.703  20.570  0.00  0.00    +0.000 A 
ATOM     10  C   UNL     1       2.094   4.809  19.575  0.00  0.00    +0.000 A 
ATOM     11  C   UNL     1       2.616   5.282  18.367  0.00  0.00    +0.000 A 
ATOM     12  C   UNL     1       3.042   4.337  17.281  0.00  0.00    +0.000 C 
ATOM     13  C   UNL     1       2.728   6.665  18.173  0.00  0.00    +0.000 A 
ATOM     14  C   UNL     1       2.324   7.561  19.168  0.00  0.00    +0.000 A 
ENDBRANCH   5   8
BRANCH   1  15
ATOM     15  C   UNL     1      -0.580  12.516  22.243  0.00  0.00    +0.000 C 
ATOM     16  O   UNL     1       0.182  13.452  22.071  0.00  0.00    +0.000 OA
BRANCH  15  17
ATOM     17  O   UNL     1      -1.691  12.548  23.035  0.00  0.00    +0.000 OA
BRANCH  17  19
ATOM     18  C   UNL     1      -3.384  14.111  22.264  0.00  0.00    +0.000 C 
ATOM     19  C   UNL     1      -2.289  13.833  23.278  0.00  0.00    +0.000 C 
ENDBRANCH  17  19
ENDBRANCH  15  17
ENDBRANCH   1  15
BRANCH   2  20
ATOM     20  N   UNL     1      -0.938  11.841  19.326  0.00  0.00    +0.000 N 
ATOM     21  H   UNL     1      -0.138  11.982  18.704  0.00  0.00    +0.000 HD
BRANCH  20  22
ATOM     22  C   UNL     1      -2.110  11.711  18.520  0.00  0.00    +0.000 A 
ATOM     23  C   UNL     1      -3.352  11.995  19.104  0.00  0.00    +0.000 A 
ATOM     24  C   UNL     1      -4.539  11.842  18.380  0.00  0.00    +0.000 A 
ATOM     25  C   UNL     1      -4.500  11.397  17.060  0.00  0.00    +0.000 A 
ATOM     26  C   UNL     1      -3.276  11.107  16.473  0.00  0.00    +0.000 A 
ATOM     27 CL   UNL     1      -3.213  10.556  14.840  0.00  0.00    +0.000 Cl
ATOM     28  C   UNL     1      -2.089  11.256  17.191  0.00  0.00    +0.000 A 
ENDBRANCH  20  22
ENDBRANCH   2  20
TORSDOF 6
ENDMDL
MODEL 4
REMARK VINA RESULT:      -6.6      2.436      3.935
REMARK  Name = 
REMARK  8 active torsions:
REMARK  status: ('A' for Active; 'I' for Inactive)
REMARK    1  A    between atoms: C_1  and  C_2
REMARK    2  A    between atoms: C_2  and  O_3
REMARK    3  A    between atoms: O_3  and  C_4
REMARK    4  A    between atoms: C_4  and  C_6
REMARK    5  A    between atoms: C_7  and  N_8
REMARK    6  A    between atoms: N_8  and  C_9
REMARK    7  A    between atoms: C_18  and  C_19
REMARK    8  A    between atoms: C_22  and  C_23
REMARK                            x       y       z     vdW  Elec       q    Type
REMARK                         _______ _______ _______ _____ _____    ______ ____
ROOT
ATOM      1  C   UNL     1      -0.326  11.175  21.571  0.00  0.00    +0.000 C 
ATOM      2  C   UNL     1      -0.574  10.881  20.275  0.00  0.00    +0.000 C 
ATOM      3  S   UNL     1      -0.422   9.170  19.878  0.00  0.00    +0.000 S 
ATOM      4  C   UNL     1       0.545   8.926  21.275  0.00  0.00    +0.000 C 
ATOM      5  C   UNL     1       1.487   7.982  21.416  0.00  0.00    +0.000 C 
ATOM      6  C   UNL     1       0.307  10.023  22.254  0.00  0.00    +0.000 C 
ATOM      7  O   UNL     1       0.645   9.981  23.425  0.00  0.00    +0.000 OA
ENDROOT
BRANCH   5   8
ATOM      8  C   UNL     1       1.820   7.020  20.353  0.00  0.00    +0.000 A 
ATOM      9  C   UNL     1       1.602   5.650  20.551  0.00  0.00    +0.000 A 
ATOM     10  C   UNL     1       1.973   4.724  19.570  0.00  0.00    +0.000 A 
ATOM     11  C   UNL     1       2.570   5.152  18.380  0.00  0.00    +0.000 A 
ATOM     12  C   UNL     1       2.957   4.174  17.309  0.00  0.00    +0.000 C 
ATOM     13  C   UNL     1       2.794   6.522  18.189  0.00  0.00    +0.000 A 
ATOM     14  C   UNL     1       2.428   7.449  19.170  0.00  0.00    +0.000 A 
ENDBRANCH   5   8
BRANCH   1  15
ATOM     15  C   UNL     1      -0.429  12.526  22.156  0.00  0.00    +0.000 C 
ATOM     16  O   UNL     1      -1.284  12.890  22.944  0.00  0.00    +0.000 OA
BRANCH  15  17
ATOM     17  O   UNL     1       0.583  13.311  21.681  0.00  0.00    +0.000 OA
BRANCH  17  19
ATOM     18  C   UNL     1       1.032  15.603  22.350  0.00  0.00    +0.000 C 
ATOM     19  C   UNL     1       0.273  14.688  21.407  0.00  0.00    +0.000 C 
ENDBRANCH  17  19
ENDBRANCH  15  17
ENDBRANCH   1  15
BRANCH   2  20
ATOM     20  N   UNL     1      -0.861  11.792  19.264  0.00  0.00    +0.000 N 
ATOM     21  H   UNL     1      -0.068  11.918  18.631  0.00  0.00    +0.000 HD
BRANCH  20  22
ATOM     22  C   UNL     1      -2.044  11.649  18.474  0.00  0.00    +0.000 A 
ATOM     23  C   UNL     1      -3.279  11.938  19.069  0.00  0.00    +0.000 A 
ATOM     24  C   UNL     1      -4.474  11.774  18.361  0.00  0.00    +0.000 A 
ATOM     25  C   UNL     1      -4.450  11.314  17.047  0.00  0.00    +0.000 A 
ATOM     26  C   UNL     1      -3.232  11.018  16.449  0.00  0.00    +0.000 A 
ATOM     27 CL   UNL     1      -3.188  10.448  14.821  0.00  0.00    +0.000 Cl
ATOM     28  C   UNL     1      -2.038  11.178  17.151  0.00  0.00    +0.000 A 
ENDBRANCH  20  22
ENDBRANCH   2  20
TORSDOF 6
ENDMDL
MODEL 5
REMARK VINA RESULT:      -6.6      2.525      4.038
REMARK  Name = 
REMARK  8 active torsions:
REMARK  status: ('A' for Active; 'I' for Inactive)
REMARK    1  A    between atoms: C_1  and  C_2
REMARK    2  A    between atoms: C_2  and  O_3
REMARK    3  A    between atoms: O_3  and  C_4
REMARK    4  A    between atoms: C_4  and  C_6
REMARK    5  A    between atoms: C_7  and  N_8
REMARK    6  A    between atoms: N_8  and  C_9
REMARK    7  A    between atoms: C_18  and  C_19
REMARK    8  A    between atoms: C_22  and  C_23
REMARK                            x       y       z     vdW  Elec       q    Type
REMARK                         _______ _______ _______ _____ _____    ______ ____
ROOT
ATOM      1  C   UNL     1      -0.616  11.382  21.303  0.00  0.00    +0.000 C 
ATOM      2  C   UNL     1      -0.815  11.007  20.020  0.00  0.00    +0.000 C 
ATOM      3  S   UNL     1      -0.574   9.286  19.722  0.00  0.00    +0.000 S 
ATOM      4  C   UNL     1       0.365   9.164  21.154  0.00  0.00    +0.000 C 
ATOM      5  C   UNL     1       1.345   8.274  21.369  0.00  0.00    +0.000 C 
ATOM      6  C   UNL     1       0.051  10.299  22.064  0.00  0.00    +0.000 C 
ATOM      7  O   UNL     1       0.359  10.336  23.244  0.00  0.00    +0.000 OA
ENDROOT
BRANCH   5   8
ATOM      8  C   UNL     1       1.751   7.274  20.369  0.00  0.00    +0.000 A 
ATOM      9  C   UNL     1       1.643   5.907  20.659  0.00  0.00    +0.000 A 
ATOM     10  C   UNL     1       2.084   4.950  19.739  0.00  0.00    +0.000 A 
ATOM     11  C   UNL     1       2.640   5.344  18.517  0.00  0.00    +0.000 A 
ATOM     12  C   UNL     1       3.101   4.330  17.510  0.00  0.00    +0.000 C 
ATOM     13  C   UNL     1       2.754   6.711  18.234  0.00  0.00    +0.000 A 
ATOM     14  C   UNL     1       2.319   7.670  19.155  0.00  0.00    +0.000 A 
ENDBRANCH   5   8
BRANCH   1  15
ATOM     15  C   UNL     1      -0.796  12.756  21.811  0.00  0.00    +0.000 C 
ATOM     16  O   UNL     1       0.079  13.445  22.305  0.00  0.00    +0.000 OA
BRANCH  15  17
ATOM     17  O   UNL     1      -2.095  13.142  21.645  0.00  0.00    +0.000 OA
BRANCH  17  19
ATOM     18  C   UNL     1      -3.218  12.229  23.597  0.00  0.00    +0.000 C 
ATOM     19  C   UNL     1      -2.836  13.481  22.829  0.00  0.00    +0.000 C 
ENDBRANCH  17  19
ENDBRANCH  15  17
ENDBRANCH   1  15
BRANCH   2  20
ATOM     20  N   UNL     1      -1.117  11.847  18.954  0.00  0.00    +0.000 N 
ATOM     21  H   UNL     1      -0.317  11.967  18.327  0.00  0.00    +0.000 HD
BRANCH  20  22
ATOM     22  C   UNL     1      -2.279  11.616  18.155  0.00  0.00    +0.000 A 
ATOM     23  C   UNL     1      -2.101  11.250  16.814  0.00  0.00    +0.000 A 
ATOM     24  C   UNL     1      -3.198  11.055  15.970  0.00  0.00    +0.000 A 
ATOM     25  C   UNL     1      -4.492  11.229  16.455  0.00  0.00    +0.000 A 
ATOM     26  C   UNL     1      -4.681  11.598  17.780  0.00  0.00    +0.000 A 
ATOM     27 CL   UNL     1      -6.279  11.815  18.394  0.00  0.00    +0.000 Cl
ATOM     28  C   UNL     1      -3.590  11.795  18.626  0.00  0.00    +0.000 A 
ENDBRANCH  20  22
ENDBRANCH   2  20
TORSDOF 6
ENDMDL
MODEL 6
REMARK VINA RESULT:      -6.6      1.100      1.702
REMARK  Name = 
REMARK  8 active torsions:
REMARK  status: ('A' for Active; 'I' for Inactive)
REMARK    1  A    between atoms: C_1  and  C_2
REMARK    2  A    between atoms: C_2  and  O_3
REMARK    3  A    between atoms: O_3  and  C_4
REMARK    4  A    between atoms: C_4  and  C_6
REMARK    5  A    between atoms: C_7  and  N_8
REMARK    6  A    between atoms: N_8  and  C_9
REMARK    7  A    between atoms: C_18  and  C_19
REMARK    8  A    between atoms: C_22  and  C_23
REMARK                            x       y       z     vdW  Elec       q    Type
REMARK                         _______ _______ _______ _____ _____    ______ ____
ROOT
ATOM      1  C   UNL     1       1.646   8.021  20.386  0.00  0.00    +0.000 C 
ATOM      2  C   UNL     1       1.917   8.589  19.191  0.00  0.00    +0.000 C 
ATOM      3  S   UNL     1       2.413   7.447  17.941  0.00  0.00    +0.000 S 
ATOM      4  C   UNL     1       2.838   6.303  19.149  0.00  0.00    +0.000 C 
ATOM      5  C   UNL     1       3.777   5.353  19.026  0.00  0.00    +0.000 C 
ATOM      6  C   UNL     1       2.130   6.621  20.419  0.00  0.00    +0.000 C 
ATOM      7  O   UNL     1       2.029   5.849  21.358  0.00  0.00    +0.000 OA
ENDROOT
BRANCH   5   8
ATOM      8  C   UNL     1       4.586   5.182  17.809  0.00  0.00    +0.000 A 
ATOM      9  C   UNL     1       5.682   6.021  17.569  0.00  0.00    +0.000 A 
ATOM     10  C   UNL     1       6.419   5.906  16.386  0.00  0.00    +0.000 A 
ATOM     11  C   UNL     1       6.071   4.953  15.424  0.00  0.00    +0.000 A 
ATOM     12  C   UNL     1       6.862   4.802  14.157  0.00  0.00    +0.000 C 
ATOM     13  C   UNL     1       4.969   4.121  15.662  0.00  0.00    +0.000 A 
ATOM     14  C   UNL     1       4.228   4.237  16.843  0.00  0.00    +0.000 A 
ENDBRANCH   5   8
BRANCH   1  15
ATOM     15  C   UNL     1       1.173   8.758  21.574  0.00  0.00    +0.000 C 
ATOM     16  O   UNL     1       1.888   9.247  22.432  0.00  0.00    +0.000 OA
BRANCH  15  17
ATOM     17  O   UNL     1      -0.192   8.810  21.571  0.00  0.00    +0.000 OA
BRANCH  17  19
ATOM     18  C   UNL     1      -0.987  10.873  22.577  0.00  0.00    +0.000 C 
ATOM     19  C   UNL     1      -0.831   9.371  22.729  0.00  0.00    +0.000 C 
ENDBRANCH  17  19
ENDBRANCH  15  17
ENDBRANCH   1  15
BRANCH   2  20
ATOM     20  N   UNL     1       1.900   9.949  18.902  0.00  0.00    +0.000 N 
ATOM     21  H   UNL     1       2.469  10.171  18.081  0.00  0.00    +0.000 HD
BRANCH  20  22
ATOM     22  C   UNL     1       0.660  10.651  18.787  0.00  0.00    +0.000 A 
ATOM     23  C   UNL     1      -0.392  10.031  18.099  0.00  0.00    +0.000 A 
ATOM     24  C   UNL     1      -1.613  10.686  17.913  0.00  0.00    +0.000 A 
ATOM     25  C   UNL     1      -1.799  11.973  18.411  0.00  0.00    +0.000 A 
ATOM     26  C   UNL     1      -0.762  12.600  19.089  0.00  0.00    +0.000 A 
ATOM     27 CL   UNL     1      -0.979  14.194  19.711  0.00  0.00    +0.000 Cl
ATOM     28  C   UNL     1       0.459  11.953  19.275  0.00  0.00    +0.000 A 
ENDBRANCH  20  22
ENDBRANCH   2  20
TORSDOF 6
ENDMDL
MODEL 7
REMARK VINA RESULT:      -6.5      2.532      4.019
REMARK  Name = 
REMARK  8 active torsions:
REMARK  status: ('A' for Active; 'I' for Inactive)
REMARK    1  A    between atoms: C_1  and  C_2
REMARK    2  A    between atoms: C_2  and  O_3
REMARK    3  A    between atoms: O_3  and  C_4
REMARK    4  A    between atoms: C_4  and  C_6
REMARK    5  A    between atoms: C_7  and  N_8
REMARK    6  A    between atoms: N_8  and  C_9
REMARK    7  A    between atoms: C_18  and  C_19
REMARK    8  A    between atoms: C_22  and  C_23
REMARK                            x       y       z     vdW  Elec       q    Type
REMARK                         _______ _______ _______ _____ _____    ______ ____
ROOT
ATOM      1  C   UNL     1      -0.448  11.267  21.188  0.00  0.00    +0.000 C 
ATOM      2  C   UNL     1      -0.656  10.860  19.917  0.00  0.00    +0.000 C 
ATOM      3  S   UNL     1      -0.431   9.129  19.665  0.00  0.00    +0.000 S 
ATOM      4  C   UNL     1       0.514   9.038  21.094  0.00  0.00    +0.000 C 
ATOM      5  C   UNL     1       1.488   8.146  21.329  0.00  0.00    +0.000 C 
ATOM      6  C   UNL     1       0.214  10.200  21.975  0.00  0.00    +0.000 C 
ATOM      7  O   UNL     1       0.528  10.266  23.152  0.00  0.00    +0.000 OA
ENDROOT
BRANCH   5   8
ATOM      8  C   UNL     1       1.881   7.116  20.354  0.00  0.00    +0.000 A 
ATOM      9  C   UNL     1       2.457   7.487  19.132  0.00  0.00    +0.000 A 
ATOM     10  C   UNL     1       2.776   6.519  18.175  0.00  0.00    +0.000 A 
ATOM     11  C   UNL     1       2.522   5.166  18.422  0.00  0.00    +0.000 A 
ATOM     12  C   UNL     1       2.875   4.112  17.413  0.00  0.00    +0.000 C 
ATOM     13  C   UNL     1       1.937   4.799  19.641  0.00  0.00    +0.000 A 
ATOM     14  C   UNL     1       1.613   5.766  20.598  0.00  0.00    +0.000 A 
ENDBRANCH   5   8
BRANCH   1  15
ATOM     15  C   UNL     1      -0.614  12.656  21.660  0.00  0.00    +0.000 C 
ATOM     16  O   UNL     1       0.270  13.351  22.131  0.00  0.00    +0.000 OA
BRANCH  15  17
ATOM     17  O   UNL     1      -1.911  13.048  21.489  0.00  0.00    +0.000 OA
BRANCH  17  19
ATOM     18  C   UNL     1      -4.207  12.751  22.224  0.00  0.00    +0.000 C 
ATOM     19  C   UNL     1      -2.769  12.998  22.641  0.00  0.00    +0.000 C 
ENDBRANCH  17  19
ENDBRANCH  15  17
ENDBRANCH   1  15
BRANCH   2  20
ATOM     20  N   UNL     1      -0.956  11.673  18.830  0.00  0.00    +0.000 N 
ATOM     21  H   UNL     1      -0.198  11.684  18.143  0.00  0.00    +0.000 HD
BRANCH  20  22
ATOM     22  C   UNL     1      -2.191  11.519  18.127  0.00  0.00    +0.000 A 
ATOM     23  C   UNL     1      -2.144  11.150  16.776  0.00  0.00    +0.000 A 
ATOM     24  C   UNL     1      -3.316  11.028  16.023  0.00  0.00    +0.000 A 
ATOM     25  C   UNL     1      -4.553  11.277  16.612  0.00  0.00    +0.000 A 
ATOM     26  C   UNL     1      -4.612  11.649  17.948  0.00  0.00    +0.000 A 
ATOM     27 CL   UNL     1      -6.138  11.960  18.689  0.00  0.00    +0.000 Cl
ATOM     28  C   UNL     1      -3.446  11.774  18.703  0.00  0.00    +0.000 A 
ENDBRANCH  20  22
ENDBRANCH   2  20
TORSDOF 6
ENDMDL
MODEL 8
REMARK VINA RESULT:      -6.5      3.896      6.327
REMARK  Name = 
REMARK  8 active torsions:
REMARK  status: ('A' for Active; 'I' for Inactive)
REMARK    1  A    between atoms: C_1  and  C_2
REMARK    2  A    between atoms: C_2  and  O_3
REMARK    3  A    between atoms: O_3  and  C_4
REMARK    4  A    between atoms: C_4  and  C_6
REMARK    5  A    between atoms: C_7  and  N_8
REMARK    6  A    between atoms: N_8  and  C_9
REMARK    7  A    between atoms: C_18  and  C_19
REMARK    8  A    between atoms: C_22  and  C_23
REMARK                            x       y       z     vdW  Elec       q    Type
REMARK                         _______ _______ _______ _____ _____    ______ ____
ROOT
ATOM      1  C   UNL     1       5.547   4.947  17.952  0.00  0.00    +0.000 C 
ATOM      2  C   UNL     1       4.938   6.045  17.453  0.00  0.00    +0.000 C 
ATOM      3  S   UNL     1       6.043   7.339  16.991  0.00  0.00    +0.000 S 
ATOM      4  C   UNL     1       7.257   6.671  18.004  0.00  0.00    +0.000 C 
ATOM      5  C   UNL     1       8.241   7.361  18.601  0.00  0.00    +0.000 C 
ATOM      6  C   UNL     1       6.966   5.234  18.264  0.00  0.00    +0.000 C 
ATOM      7  O   UNL     1       7.774   4.444  18.722  0.00  0.00    +0.000 OA
ENDROOT
BRANCH   5   8
ATOM      8  C   UNL     1       8.393   8.818  18.463  0.00  0.00    +0.000 A 
ATOM      9  C   UNL     1       7.731   9.499  17.433  0.00  0.00    +0.000 A 
ATOM     10  C   UNL     1       7.919  10.874  17.256  0.00  0.00    +0.000 A 
ATOM     11  C   UNL     1       8.772  11.588  18.103  0.00  0.00    +0.000 A 
ATOM     12  C   UNL     1       8.971  13.067  17.940  0.00  0.00    +0.000 C 
ATOM     13  C   UNL     1       9.439  10.902  19.127  0.00  0.00    +0.000 A 
ATOM     14  C   UNL     1       9.256   9.527  19.302  0.00  0.00    +0.000 A 
ENDBRANCH   5   8
BRANCH   1  15
ATOM     15  C   UNL     1       4.844   3.718  18.370  0.00  0.00    +0.000 C 
ATOM     16  O   UNL     1       4.981   3.157  19.443  0.00  0.00    +0.000 OA
BRANCH  15  17
ATOM     17  O   UNL     1       4.013   3.300  17.369  0.00  0.00    +0.000 OA
BRANCH  17  19
ATOM     18  C   UNL     1       1.695   3.247  18.095  0.00  0.00    +0.000 C 
ATOM     19  C   UNL     1       2.926   2.434  17.736  0.00  0.00    +0.000 C 
ENDBRANCH  17  19
ENDBRANCH  15  17
ENDBRANCH   1  15
BRANCH   2  20
ATOM     20  N   UNL     1       3.567   6.249  17.344  0.00  0.00    +0.000 N 
ATOM     21  H   UNL     1       3.057   5.366  17.260  0.00  0.00    +0.000 HD
BRANCH  20  22
ATOM     22  C   UNL     1       2.878   7.072  18.289  0.00  0.00    +0.000 A 
ATOM     23  C   UNL     1       2.622   6.549  19.563  0.00  0.00    +0.000 A 
ATOM     24  C   UNL     1       1.913   7.288  20.515  0.00  0.00    +0.000 A 
ATOM     25  C   UNL     1       1.445   8.562  20.203  0.00  0.00    +0.000 A 
ATOM     26  C   UNL     1       1.688   9.089  18.942  0.00  0.00    +0.000 A 
ATOM     27 CL   UNL     1       1.115  10.666  18.543  0.00  0.00    +0.000 Cl
ATOM     28  C   UNL     1       2.393   8.355  17.988  0.00  0.00    +0.000 A 
ENDBRANCH  20  22
ENDBRANCH   2  20
TORSDOF 6
ENDMDL
MODEL 9
REMARK VINA RESULT:      -6.4      2.455      3.975
REMARK  Name = 
REMARK  8 active torsions:
REMARK  status: ('A' for Active; 'I' for Inactive)
REMARK    1  A    between atoms: C_1  and  C_2
REMARK    2  A    between atoms: C_2  and  O_3
REMARK    3  A    between atoms: O_3  and  C_4
REMARK    4  A    between atoms: C_4  and  C_6
REMARK    5  A    between atoms: C_7  and  N_8
REMARK    6  A    between atoms: N_8  and  C_9
REMARK    7  A    between atoms: C_18  and  C_19
REMARK    8  A    between atoms: C_22  and  C_23
REMARK                            x       y       z     vdW  Elec       q    Type
REMARK                         _______ _______ _______ _____ _____    ______ ____
ROOT
ATOM      1  C   UNL     1      -0.209  11.167  21.236  0.00  0.00    +0.000 C 
ATOM      2  C   UNL     1      -0.450  10.788  19.961  0.00  0.00    +0.000 C 
ATOM      3  S   UNL     1      -0.313   9.051  19.684  0.00  0.00    +0.000 S 
ATOM      4  C   UNL     1       0.640   8.895  21.103  0.00  0.00    +0.000 C 
ATOM      5  C   UNL     1       1.571   7.953  21.316  0.00  0.00    +0.000 C 
ATOM      6  C   UNL     1       0.406  10.059  22.002  0.00  0.00    +0.000 C 
ATOM      7  O   UNL     1       0.734  10.094  23.176  0.00  0.00    +0.000 OA
ENDROOT
BRANCH   5   8
ATOM      8  C   UNL     1       1.902   6.917  20.325  0.00  0.00    +0.000 A 
ATOM      9  C   UNL     1       2.512   7.273  19.114  0.00  0.00    +0.000 A 
ATOM     10  C   UNL     1       2.774   6.304  18.140  0.00  0.00    +0.000 A 
ATOM     11  C   UNL     1       2.429   4.967  18.360  0.00  0.00    +0.000 A 
ATOM     12  C   UNL     1       2.720   3.911  17.333  0.00  0.00    +0.000 C 
ATOM     13  C   UNL     1       1.812   4.616  19.567  0.00  0.00    +0.000 A 
ATOM     14  C   UNL     1       1.545   5.584  20.541  0.00  0.00    +0.000 A 
ENDBRANCH   5   8
BRANCH   1  15
ATOM     15  C   UNL     1      -0.302  12.556  21.726  0.00  0.00    +0.000 C 
ATOM     16  O   UNL     1      -0.928  12.918  22.707  0.00  0.00    +0.000 OA
BRANCH  15  17
ATOM     17  O   UNL     1       0.423  13.381  20.914  0.00  0.00    +0.000 OA
BRANCH  17  19
ATOM     18  C   UNL     1       0.908  15.750  21.140  0.00  0.00    +0.000 C 
ATOM     19  C   UNL     1       1.285  14.339  21.550  0.00  0.00    +0.000 C 
ENDBRANCH  17  19
ENDBRANCH  15  17
ENDBRANCH   1  15
BRANCH   2  20
ATOM     20  N   UNL     1      -0.719  11.630  18.888  0.00  0.00    +0.000 N 
ATOM     21  H   UNL     1       0.034  11.615  18.196  0.00  0.00    +0.000 HD
BRANCH  20  22
ATOM     22  C   UNL     1      -1.964  11.542  18.192  0.00  0.00    +0.000 A 
ATOM     23  C   UNL     1      -3.136  11.883  18.882  0.00  0.00    +0.000 A 
ATOM     24  C   UNL     1      -4.388  11.773  18.269  0.00  0.00    +0.000 A 
ATOM     25  C   UNL     1      -4.487  11.318  16.957  0.00  0.00    +0.000 A 
ATOM     26  C   UNL     1      -3.333  10.972  16.265  0.00  0.00    +0.000 A 
ATOM     27 CL   UNL     1      -3.441  10.406  14.639  0.00  0.00    +0.000 Cl
ATOM     28  C   UNL     1      -2.082  11.076  16.872  0.00  0.00    +0.000 A 
ENDBRANCH  20  22
ENDBRANCH   2  20
TORSDOF 6
ENDMDL
