MODEL 1
REMARK VINA RESULT:      -7.9      0.000      0.000
REMARK  Name = 
REMARK  9 active torsions:
REMARK  status: ('A' for Active; 'I' for Inactive)
REMARK    1  A    between atoms: C_1  and  C_2
REMARK    2  A    between atoms: C_7  and  C_8
REMARK    3  A    between atoms: C_11  and  O_12
REMARK    4  A    between atoms: O_12  and  C_13
REMARK    5  A    between atoms: C_13  and  C_14
REMARK    6  A    between atoms: C_14  and  C_15
REMARK    7  A    between atoms: C_15  and  N_16
REMARK    8  A    between atoms: N_19  and  C_20
REMARK    9  A    between atoms: C_28  and  C_29
REMARK                            x       y       z     vdW  Elec       q    Type
REMARK                         _______ _______ _______ _____ _____    ______ ____
ROOT
ATOM      1  C   UNL     1       1.557   8.190  20.262  0.00  0.00    +0.000 A 
ATOM      2  C   UNL     1       1.249   8.226  21.634  0.00  0.00    +0.000 A 
ATOM      3  C   UNL     1       0.792   9.400  22.237  0.00  0.00    +0.000 A 
ATOM      4  C   UNL     1       0.594  10.549  21.474  0.00  0.00    +0.000 A 
ATOM      5  C   UNL     1       0.902  10.533  20.117  0.00  0.00    +0.000 A 
ATOM      6  C   UNL     1       1.374   9.367  19.511  0.00  0.00    +0.000 A 
ATOM      7 CL   UNL     1       1.693   9.470  17.808  0.00  0.00    +0.000 Cl
ENDROOT
BRANCH   1  14
ATOM      8  C   UNL     1       3.626   1.352  18.354  0.00  0.00    +0.000 C 
ATOM      9  C   UNL     1       3.480   2.854  18.384  0.00  0.00    +0.000 A 
ATOM     10  C   UNL     1       4.195   3.623  17.450  0.00  0.00    +0.000 A 
ATOM     11  C   UNL     1       4.106   5.021  17.416  0.00  0.00    +0.000 A 
ATOM     12  C   UNL     1       3.278   5.598  18.372  0.00  0.00    +0.000 A 
ATOM     13  N   UNL     1       2.969   6.905  18.649  0.00  0.00    +0.000 N 
ATOM     14  C   UNL     1       2.083   6.946  19.698  0.00  0.00    +0.000 A 
ATOM     15  N   UNL     1       1.821   5.723  20.115  0.00  0.00    +0.000 NA
ATOM     16  C   UNL     1       2.549   4.879  19.306  0.00  0.00    +0.000 A 
ATOM     17  C   UNL     1       2.638   3.475  19.340  0.00  0.00    +0.000 A 
ATOM     18  C   UNL     1       1.877   2.675  20.357  0.00  0.00    +0.000 C 
ATOM     19  H   UNL     1       3.308   7.711  18.146  0.00  0.00    +0.000 HD
ENDBRANCH   1  14
BRANCH   4  20
ATOM     20  O   UNL     1       0.110  11.631  22.159  0.00  0.00    +0.000 OA
BRANCH  20  21
ATOM     21  C   UNL     1      -0.414  12.687  21.346  0.00  0.00    +0.000 C 
BRANCH  21  22
ATOM     22  C   UNL     1      -1.926  12.528  21.195  0.00  0.00    +0.000 C 
BRANCH  22  23
ATOM     23  C   UNL     1      -2.396  12.798  19.758  0.00  0.00    +0.000 C 
BRANCH  23  24
ATOM     24  N   UNL     1      -2.674  11.581  18.979  0.00  0.00    +0.000 NA
ATOM     25  C   UNL     1      -1.600  11.336  17.990  0.00  0.00    +0.000 C 
ATOM     26  C   UNL     1      -1.852  10.050  17.161  0.00  0.00    +0.000 C 
ATOM     27  N   UNL     1      -3.168   9.977  16.494  0.00  0.00    +0.000 NA
ATOM     28  C   UNL     1      -3.241  10.861  15.334  0.00  0.00    +0.000 C 
ATOM     29  C   UNL     1      -4.218  10.300  17.479  0.00  0.00    +0.000 C 
ATOM     30  C   UNL     1      -3.974  11.600  18.282  0.00  0.00    +0.000 C 
ENDBRANCH  23  24
ENDBRANCH  22  23
ENDBRANCH  21  22
ENDBRANCH  20  21
ENDBRANCH   4  20
TORSDOF 6
ENDMDL
MODEL 2
REMARK VINA RESULT:      -7.9      2.480      3.283
REMARK  Name = 
REMARK  9 active torsions:
REMARK  status: ('A' for Active; 'I' for Inactive)
REMARK    1  A    between atoms: C_1  and  C_2
REMARK    2  A    between atoms: C_7  and  C_8
REMARK    3  A    between atoms: C_11  and  O_12
REMARK    4  A    between atoms: O_12  and  C_13
REMARK    5  A    between atoms: C_13  and  C_14
REMARK    6  A    between atoms: C_14  and  C_15
REMARK    7  A    between atoms: C_15  and  N_16
REMARK    8  A    between atoms: N_19  and  C_20
REMARK    9  A    between atoms: C_28  and  C_29
REMARK                            x       y       z     vdW  Elec       q    Type
REMARK                         _______ _______ _______ _____ _____    ______ ____
ROOT
ATOM      1  C   UNL     1       1.458   8.241  20.374  0.00  0.00    +0.000 A 
ATOM      2  C   UNL     1       1.295   8.318  21.769  0.00  0.00    +0.000 A 
ATOM      3  C   UNL     1       0.839   9.490  22.375  0.00  0.00    +0.000 A 
ATOM      4  C   UNL     1       0.496  10.594  21.598  0.00  0.00    +0.000 A 
ATOM      5  C   UNL     1       0.661  10.539  20.216  0.00  0.00    +0.000 A 
ATOM      6  C   UNL     1       1.132   9.375  19.605  0.00  0.00    +0.000 A 
ATOM      7 CL   UNL     1       1.263   9.425  17.876  0.00  0.00    +0.000 Cl
ENDROOT
BRANCH   1  14
ATOM      8  C   UNL     1       3.589   1.432  18.432  0.00  0.00    +0.000 C 
ATOM      9  C   UNL     1       3.422   2.932  18.463  0.00  0.00    +0.000 A 
ATOM     10  C   UNL     1       4.107   3.710  17.515  0.00  0.00    +0.000 A 
ATOM     11  C   UNL     1       3.997   5.106  17.481  0.00  0.00    +0.000 A 
ATOM     12  C   UNL     1       3.179   5.672  18.453  0.00  0.00    +0.000 A 
ATOM     13  N   UNL     1       2.857   6.975  18.734  0.00  0.00    +0.000 N 
ATOM     14  C   UNL     1       1.991   7.004  19.800  0.00  0.00    +0.000 A 
ATOM     15  N   UNL     1       1.755   5.778  20.224  0.00  0.00    +0.000 NA
ATOM     16  C   UNL     1       2.480   4.944  19.402  0.00  0.00    +0.000 A 
ATOM     17  C   UNL     1       2.589   3.541  19.435  0.00  0.00    +0.000 A 
ATOM     18  C   UNL     1       1.860   2.732  20.467  0.00  0.00    +0.000 C 
ATOM     19  H   UNL     1       3.174   7.785  18.224  0.00  0.00    +0.000 HD
ENDBRANCH   1  14
BRANCH   4  20
ATOM     20  O   UNL     1       0.027  11.677  22.292  0.00  0.00    +0.000 OA
BRANCH  20  21
ATOM     21  C   UNL     1      -1.268  11.512  22.881  0.00  0.00    +0.000 C 
BRANCH  21  22
ATOM     22  C   UNL     1      -2.285  12.395  22.158  0.00  0.00    +0.000 C 
BRANCH  22  23
ATOM     23  C   UNL     1      -3.366  12.929  23.110  0.00  0.00    +0.000 C 
BRANCH  23  24
ATOM     24  N   UNL     1      -4.722  12.440  22.813  0.00  0.00    +0.000 NA
ATOM     25  C   UNL     1      -5.060  12.669  21.389  0.00  0.00    +0.000 C 
ATOM     26  C   UNL     1      -6.478  12.149  21.036  0.00  0.00    +0.000 C 
ATOM     27  N   UNL     1      -7.568  12.657  21.894  0.00  0.00    +0.000 NA
ATOM     28  C   UNL     1      -7.893  14.049  21.596  0.00  0.00    +0.000 C 
ATOM     29  C   UNL     1      -7.176  12.490  23.307  0.00  0.00    +0.000 C 
ATOM     30  C   UNL     1      -5.772  13.036  23.658  0.00  0.00    +0.000 C 
ENDBRANCH  23  24
ENDBRANCH  22  23
ENDBRANCH  21  22
ENDBRANCH  20  21
ENDBRANCH   4  20
TORSDOF 6
ENDMDL
MODEL 3
REMARK VINA RESULT:      -7.6      2.604      8.827
REMARK  Name = 
REMARK  9 active torsions:
REMARK  status: ('A' for Active; 'I' for Inactive)
REMARK    1  A    between atoms: C_1  and  C_2
REMARK    2  A    between atoms: C_7  and  C_8
REMARK    3  A    between atoms: C_11  and  O_12
REMARK    4  A    between atoms: O_12  and  C_13
REMARK    5  A    between atoms: C_13  and  C_14
REMARK    6  A    between atoms: C_14  and  C_15
REMARK    7  A    between atoms: C_15  and  N_16
REMARK    8  A    between atoms: N_19  and  C_20
REMARK    9  A    between atoms: C_28  and  C_29
REMARK                            x       y       z     vdW  Elec       q    Type
REMARK                         _______ _______ _______ _____ _____    ______ ____
ROOT
ATOM      1  C   UNL     1       1.421   9.048  19.126  0.00  0.00    +0.000 A 
ATOM      2  C   UNL     1       1.994   9.257  17.858  0.00  0.00    +0.000 A 
ATOM      3  C   UNL     1       2.886   8.332  17.312  0.00  0.00    +0.000 A 
ATOM      4  C   UNL     1       3.192   7.161  18.001  0.00  0.00    +0.000 A 
ATOM      5  C   UNL     1       2.641   6.943  19.262  0.00  0.00    +0.000 A 
ATOM      6  C   UNL     1       1.761   7.871  19.821  0.00  0.00    +0.000 A 
ATOM      7 CL   UNL     1       1.121   7.468  21.382  0.00  0.00    +0.000 Cl
ENDROOT
BRANCH   1  14
ATOM      8  C   UNL     1      -3.770  14.010  20.888  0.00  0.00    +0.000 C 
ATOM      9  C   UNL     1      -2.506  13.185  20.903  0.00  0.00    +0.000 A 
ATOM     10  C   UNL     1      -1.541  13.442  21.891  0.00  0.00    +0.000 A 
ATOM     11  C   UNL     1      -0.346  12.715  21.967  0.00  0.00    +0.000 A 
ATOM     12  C   UNL     1      -0.171  11.734  20.998  0.00  0.00    +0.000 A 
ATOM     13  N   UNL     1       0.858  10.861  20.753  0.00  0.00    +0.000 N 
ATOM     14  C   UNL     1       0.535  10.079  19.670  0.00  0.00    +0.000 A 
ATOM     15  N   UNL     1      -0.649  10.423  19.201  0.00  0.00    +0.000 NA
ATOM     16  C   UNL     1      -1.099  11.442  20.011  0.00  0.00    +0.000 A 
ATOM     17  C   UNL     1      -2.299  12.172  19.934  0.00  0.00    +0.000 A 
ATOM     18  C   UNL     1      -3.310  11.890  18.860  0.00  0.00    +0.000 C 
ATOM     19  H   UNL     1       1.703  10.777  21.296  0.00  0.00    +0.000 HD
ENDBRANCH   1  14
BRANCH   4  20
ATOM     20  O   UNL     1       4.048   6.309  17.358  0.00  0.00    +0.000 OA
BRANCH  20  21
ATOM     21  C   UNL     1       5.279   6.047  18.041  0.00  0.00    +0.000 C 
BRANCH  21  22
ATOM     22  C   UNL     1       5.679   4.583  17.852  0.00  0.00    +0.000 C 
BRANCH  22  23
ATOM     23  C   UNL     1       4.592   3.777  17.126  0.00  0.00    +0.000 C 
BRANCH  23  24
ATOM     24  N   UNL     1       3.727   2.994  18.023  0.00  0.00    +0.000 NA
ATOM     25  C   UNL     1       2.298   3.228  17.708  0.00  0.00    +0.000 C 
ATOM     26  C   UNL     1       1.356   2.405  18.624  0.00  0.00    +0.000 C 
ATOM     27  N   UNL     1       1.580   2.574  20.074  0.00  0.00    +0.000 NA
ATOM     28  C   UNL     1       1.089   3.862  20.555  0.00  0.00    +0.000 C 
ATOM     29  C   UNL     1       3.020   2.413  20.354  0.00  0.00    +0.000 C 
ATOM     30  C   UNL     1       3.953   3.259  19.455  0.00  0.00    +0.000 C 
ENDBRANCH  23  24
ENDBRANCH  22  23
ENDBRANCH  21  22
ENDBRANCH  20  21
ENDBRANCH   4  20
TORSDOF 6
ENDMDL
MODEL 4
REMARK VINA RESULT:      -7.6      0.658      1.624
REMARK  Name = 
REMARK  9 active torsions:
REMARK  status: ('A' for Active; 'I' for Inactive)
REMARK    1  A    between atoms: C_1  and  C_2
REMARK    2  A    between atoms: C_7  and  C_8
REMARK    3  A    between atoms: C_11  and  O_12
REMARK    4  A    between atoms: O_12  and  C_13
REMARK    5  A    between atoms: C_13  and  C_14
REMARK    6  A    between atoms: C_14  and  C_15
REMARK    7  A    between atoms: C_15  and  N_16
REMARK    8  A    between atoms: N_19  and  C_20
REMARK    9  A    between atoms: C_28  and  C_29
REMARK                            x       y       z     vdW  Elec       q    Type
REMARK                         _______ _______ _______ _____ _____    ______ ____
ROOT
ATOM      1  C   UNL     1       1.433   8.238  20.495  0.00  0.00    +0.000 A 
ATOM      2  C   UNL     1       1.239   8.635  21.831  0.00  0.00    +0.000 A 
ATOM      3  C   UNL     1       1.002   9.973  22.155  0.00  0.00    +0.000 A 
ATOM      4  C   UNL     1       0.912  10.933  21.149  0.00  0.00    +0.000 A 
ATOM      5  C   UNL     1       1.112  10.558  19.823  0.00  0.00    +0.000 A 
ATOM      6  C   UNL     1       1.364   9.225  19.493  0.00  0.00    +0.000 A 
ATOM      7 CL   UNL     1       1.564   8.885  17.804  0.00  0.00    +0.000 Cl
ENDROOT
BRANCH   1  14
ATOM      8  C   UNL     1       3.579   1.562  18.149  0.00  0.00    +0.000 C 
ATOM      9  C   UNL     1       2.906   2.662  18.934  0.00  0.00    +0.000 A 
ATOM     10  C   UNL     1       2.040   2.314  19.984  0.00  0.00    +0.000 A 
ATOM     11  C   UNL     1       1.384   3.281  20.756  0.00  0.00    +0.000 A 
ATOM     12  C   UNL     1       1.634   4.604  20.410  0.00  0.00    +0.000 A 
ATOM     13  N   UNL     1       1.163   5.789  20.916  0.00  0.00    +0.000 N 
ATOM     14  C   UNL     1       1.730   6.831  20.222  0.00  0.00    +0.000 A 
ATOM     15  N   UNL     1       2.532   6.366  19.284  0.00  0.00    +0.000 NA
ATOM     16  C   UNL     1       2.485   4.993  19.388  0.00  0.00    +0.000 A 
ATOM     17  C   UNL     1       3.145   4.022  18.612  0.00  0.00    +0.000 A 
ATOM     18  C   UNL     1       4.053   4.417  17.485  0.00  0.00    +0.000 C 
ATOM     19  H   UNL     1       0.529   5.888  21.694  0.00  0.00    +0.000 HD
ENDBRANCH   1  14
BRANCH   4  20
ATOM     20  O   UNL     1       0.642  12.205  21.576  0.00  0.00    +0.000 OA
BRANCH  20  21
ATOM     21  C   UNL     1      -0.745  12.561  21.601  0.00  0.00    +0.000 C 
BRANCH  21  22
ATOM     22  C   UNL     1      -1.159  13.137  20.247  0.00  0.00    +0.000 C 
BRANCH  22  23
ATOM     23  C   UNL     1      -2.622  12.817  19.906  0.00  0.00    +0.000 C 
BRANCH  23  24
ATOM     24  N   UNL     1      -2.797  11.608  19.087  0.00  0.00    +0.000 NA
ATOM     25  C   UNL     1      -1.680  11.463  18.124  0.00  0.00    +0.000 C 
ATOM     26  C   UNL     1      -1.822  10.188  17.253  0.00  0.00    +0.000 C 
ATOM     27  N   UNL     1      -3.111  10.048  16.545  0.00  0.00    +0.000 NA
ATOM     28  C   UNL     1      -3.210  10.959  15.408  0.00  0.00    +0.000 C 
ATOM     29  C   UNL     1      -4.208  10.272  17.506  0.00  0.00    +0.000 C 
ATOM     30  C   UNL     1      -4.074  11.562  18.352  0.00  0.00    +0.000 C 
ENDBRANCH  23  24
ENDBRANCH  22  23
ENDBRANCH  21  22
ENDBRANCH  20  21
ENDBRANCH   4  20
TORSDOF 6
ENDMDL
MODEL 5
REMARK VINA RESULT:      -7.6      2.871      4.196
REMARK  Name = 
REMARK  9 active torsions:
REMARK  status: ('A' for Active; 'I' for Inactive)
REMARK    1  A    between atoms: C_1  and  C_2
REMARK    2  A    between atoms: C_7  and  C_8
REMARK    3  A    between atoms: C_11  and  O_12
REMARK    4  A    between atoms: O_12  and  C_13
REMARK    5  A    between atoms: C_13  and  C_14
REMARK    6  A    between atoms: C_14  and  C_15
REMARK    7  A    between atoms: C_15  and  N_16
REMARK    8  A    between atoms: N_19  and  C_20
REMARK    9  A    between atoms: C_28  and  C_29
REMARK                            x       y       z     vdW  Elec       q    Type
REMARK                         _______ _______ _______ _____ _____    ______ ____
ROOT
ATOM      1  C   UNL     1       1.080   8.586  20.904  0.00  0.00    +0.000 A 
ATOM      2  C   UNL     1       0.998   8.567  22.308  0.00  0.00    +0.000 A 
ATOM      3  C   UNL     1       0.350   9.589  23.004  0.00  0.00    +0.000 A 
ATOM      4  C   UNL     1      -0.266  10.629  22.310  0.00  0.00    +0.000 A 
ATOM      5  C   UNL     1      -0.187  10.668  20.921  0.00  0.00    +0.000 A 
ATOM      6  C   UNL     1       0.474   9.657  20.220  0.00  0.00    +0.000 A 
ATOM      7 CL   UNL     1       0.476   9.808  18.491  0.00  0.00    +0.000 Cl
ENDROOT
BRANCH   1  14
ATOM      8  C   UNL     1       5.075   4.033  16.663  0.00  0.00    +0.000 C 
ATOM      9  C   UNL     1       4.194   4.567  17.766  0.00  0.00    +0.000 A 
ATOM     10  C   UNL     1       3.711   3.676  18.739  0.00  0.00    +0.000 A 
ATOM     11  C   UNL     1       2.891   4.100  19.793  0.00  0.00    +0.000 A 
ATOM     12  C   UNL     1       2.576   5.454  19.807  0.00  0.00    +0.000 A 
ATOM     13  N   UNL     1       1.801   6.206  20.652  0.00  0.00    +0.000 N 
ATOM     14  C   UNL     1       1.819   7.515  20.234  0.00  0.00    +0.000 A 
ATOM     15  N   UNL     1       2.559   7.632  19.149  0.00  0.00    +0.000 NA
ATOM     16  C   UNL     1       3.036   6.370  18.873  0.00  0.00    +0.000 A 
ATOM     17  C   UNL     1       3.860   5.944  17.815  0.00  0.00    +0.000 A 
ATOM     18  C   UNL     1       4.351   6.911  16.778  0.00  0.00    +0.000 C 
ATOM     19  H   UNL     1       1.320   5.867  21.471  0.00  0.00    +0.000 HD
ENDBRANCH   1  14
BRANCH   4  20
ATOM     20  O   UNL     1      -0.903  11.557  23.089  0.00  0.00    +0.000 OA
BRANCH  20  21
ATOM     21  C   UNL     1      -1.069  12.848  22.492  0.00  0.00    +0.000 C 
BRANCH  21  22
ATOM     22  C   UNL     1      -2.555  13.139  22.284  0.00  0.00    +0.000 C 
BRANCH  22  23
ATOM     23  C   UNL     1      -3.428  12.492  23.369  0.00  0.00    +0.000 C 
BRANCH  23  24
ATOM     24  N   UNL     1      -4.870  12.521  23.076  0.00  0.00    +0.000 NA
ATOM     25  C   UNL     1      -5.190  13.621  22.138  0.00  0.00    +0.000 C 
ATOM     26  C   UNL     1      -6.701  13.672  21.792  0.00  0.00    +0.000 C 
ATOM     27  N   UNL     1      -7.612  13.727  22.954  0.00  0.00    +0.000 NA
ATOM     28  C   UNL     1      -7.609  15.043  23.587  0.00  0.00    +0.000 C 
ATOM     29  C   UNL     1      -7.226  12.672  23.910  0.00  0.00    +0.000 C 
ATOM     30  C   UNL     1      -5.722  12.646  24.272  0.00  0.00    +0.000 C 
ENDBRANCH  23  24
ENDBRANCH  22  23
ENDBRANCH  21  22
ENDBRANCH  20  21
ENDBRANCH   4  20
TORSDOF 6
ENDMDL
MODEL 6
REMARK VINA RESULT:      -7.5      2.791      8.661
REMARK  Name = 
REMARK  9 active torsions:
REMARK  status: ('A' for Active; 'I' for Inactive)
REMARK    1  A    between atoms: C_1  and  C_2
REMARK    2  A    between atoms: C_7  and  C_8
REMARK    3  A    between atoms: C_11  and  O_12
REMARK    4  A    between atoms: O_12  and  C_13
REMARK    5  A    between atoms: C_13  and  C_14
REMARK    6  A    between atoms: C_14  and  C_15
REMARK    7  A    between atoms: C_15  and  N_16
REMARK    8  A    between atoms: N_19  and  C_20
REMARK    9  A    between atoms: C_28  and  C_29
REMARK                            x       y       z     vdW  Elec       q    Type
REMARK                         _______ _______ _______ _____ _____    ______ ____
ROOT
ATOM      1  C   UNL     1       1.634   8.691  19.358  0.00  0.00    +0.000 A 
ATOM      2  C   UNL     1       1.841   7.345  19.709  0.00  0.00    +0.000 A 
ATOM      3  C   UNL     1       2.679   6.525  18.950  0.00  0.00    +0.000 A 
ATOM      4  C   UNL     1       3.360   7.045  17.852  0.00  0.00    +0.000 A 
ATOM      5  C   UNL     1       3.160   8.373  17.485  0.00  0.00    +0.000 A 
ATOM      6  C   UNL     1       2.311   9.193  18.230  0.00  0.00    +0.000 A 
ATOM      7 CL   UNL     1       2.171  10.835  17.687  0.00  0.00    +0.000 Cl
ENDROOT
BRANCH   1  14
ATOM      8  C   UNL     1      -3.239  13.365  22.374  0.00  0.00    +0.000 C 
ATOM      9  C   UNL     1      -2.230  12.256  22.198  0.00  0.00    +0.000 A 
ATOM     10  C   UNL     1      -1.844  11.505  23.321  0.00  0.00    +0.000 A 
ATOM     11  C   UNL     1      -0.916  10.460  23.233  0.00  0.00    +0.000 A 
ATOM     12  C   UNL     1      -0.391  10.223  21.967  0.00  0.00    +0.000 A 
ATOM     13  N   UNL     1       0.535   9.318  21.514  0.00  0.00    +0.000 N 
ATOM     14  C   UNL     1       0.703   9.486  20.161  0.00  0.00    +0.000 A 
ATOM     15  N   UNL     1      -0.064  10.468  19.729  0.00  0.00    +0.000 NA
ATOM     16  C   UNL     1      -0.747  10.932  20.832  0.00  0.00    +0.000 A 
ATOM     17  C   UNL     1      -1.680  11.982  20.920  0.00  0.00    +0.000 A 
ATOM     18  C   UNL     1      -2.065  12.780  19.709  0.00  0.00    +0.000 C 
ATOM     19  H   UNL     1       0.998   8.617  22.072  0.00  0.00    +0.000 HD
ENDBRANCH   1  14
BRANCH   4  20
ATOM     20  O   UNL     1       4.182   6.164  17.202  0.00  0.00    +0.000 OA
BRANCH  20  21
ATOM     21  C   UNL     1       5.480   5.993  17.784  0.00  0.00    +0.000 C 
BRANCH  21  22
ATOM     22  C   UNL     1       5.737   4.512  18.058  0.00  0.00    +0.000 C 
BRANCH  22  23
ATOM     23  C   UNL     1       4.729   3.606  17.336  0.00  0.00    +0.000 C 
BRANCH  23  24
ATOM     24  N   UNL     1       3.845   2.852  18.239  0.00  0.00    +0.000 NA
ATOM     25  C   UNL     1       2.432   2.979  17.815  0.00  0.00    +0.000 C 
ATOM     26  C   UNL     1       1.472   2.182  18.736  0.00  0.00    +0.000 C 
ATOM     27  N   UNL     1       1.588   2.482  20.178  0.00  0.00    +0.000 NA
ATOM     28  C   UNL     1       0.999   3.776  20.514  0.00  0.00    +0.000 C 
ATOM     29  C   UNL     1       3.011   2.426  20.562  0.00  0.00    +0.000 C 
ATOM     30  C   UNL     1       3.959   3.247  19.655  0.00  0.00    +0.000 C 
ENDBRANCH  23  24
ENDBRANCH  22  23
ENDBRANCH  21  22
ENDBRANCH  20  21
ENDBRANCH   4  20
TORSDOF 6
ENDMDL
MODEL 7
REMARK VINA RESULT:      -7.4      2.074      2.696
REMARK  Name = 
REMARK  9 active torsions:
REMARK  status: ('A' for Active; 'I' for Inactive)
REMARK    1  A    between atoms: C_1  and  C_2
REMARK    2  A    between atoms: C_7  and  C_8
REMARK    3  A    between atoms: C_11  and  O_12
REMARK    4  A    between atoms: O_12  and  C_13
REMARK    5  A    between atoms: C_13  and  C_14
REMARK    6  A    between atoms: C_14  and  C_15
REMARK    7  A    between atoms: C_15  and  N_16
REMARK    8  A    between atoms: N_19  and  C_20
REMARK    9  A    between atoms: C_28  and  C_29
REMARK                            x       y       z     vdW  Elec       q    Type
REMARK                         _______ _______ _______ _____ _____    ______ ____
ROOT
ATOM      1  C   UNL     1       0.998   8.668  20.681  0.00  0.00    +0.000 A 
ATOM      2  C   UNL     1       0.752   8.837  22.055  0.00  0.00    +0.000 A 
ATOM      3  C   UNL     1       0.128   9.990  22.536  0.00  0.00    +0.000 A 
ATOM      4  C   UNL     1      -0.300  10.977  21.652  0.00  0.00    +0.000 A 
ATOM      5  C   UNL     1      -0.055  10.830  20.289  0.00  0.00    +0.000 A 
ATOM      6  C   UNL     1       0.583   9.687  19.803  0.00  0.00    +0.000 A 
ATOM      7 CL   UNL     1       0.801   9.612  18.083  0.00  0.00    +0.000 Cl
ENDROOT
BRANCH   1  14
ATOM      8  C   UNL     1       4.105   2.064  19.492  0.00  0.00    +0.000 C 
ATOM      9  C   UNL     1       3.715   3.515  19.351  0.00  0.00    +0.000 A 
ATOM     10  C   UNL     1       4.263   4.265  18.297  0.00  0.00    +0.000 A 
ATOM     11  C   UNL     1       3.945   5.616  18.103  0.00  0.00    +0.000 A 
ATOM     12  C   UNL     1       3.063   6.168  19.025  0.00  0.00    +0.000 A 
ATOM     13  N   UNL     1       2.552   7.433  19.160  0.00  0.00    +0.000 N 
ATOM     14  C   UNL     1       1.704   7.463  20.241  0.00  0.00    +0.000 A 
ATOM     15  N   UNL     1       1.661   6.276  20.814  0.00  0.00    +0.000 NA
ATOM     16  C   UNL     1       2.492   5.464  20.074  0.00  0.00    +0.000 A 
ATOM     17  C   UNL     1       2.812   4.108  20.269  0.00  0.00    +0.000 A 
ATOM     18  C   UNL     1       2.226   3.330  21.411  0.00  0.00    +0.000 C 
ATOM     19  H   UNL     1       2.737   8.213  18.549  0.00  0.00    +0.000 HD
ENDBRANCH   1  14
BRANCH   4  20
ATOM     20  O   UNL     1      -0.931  12.046  22.228  0.00  0.00    +0.000 OA
BRANCH  20  21
ATOM     21  C   UNL     1      -2.008  11.718  23.113  0.00  0.00    +0.000 C 
BRANCH  21  22
ATOM     22  C   UNL     1      -3.173  12.683  22.896  0.00  0.00    +0.000 C 
BRANCH  22  23
ATOM     23  C   UNL     1      -3.183  13.268  21.475  0.00  0.00    +0.000 C 
BRANCH  23  24
ATOM     24  N   UNL     1      -4.509  13.272  20.837  0.00  0.00    +0.000 NA
ATOM     25  C   UNL     1      -5.556  12.867  21.804  0.00  0.00    +0.000 C 
ATOM     26  C   UNL     1      -6.970  12.876  21.170  0.00  0.00    +0.000 C 
ATOM     27  N   UNL     1      -7.110  12.090  19.927  0.00  0.00    +0.000 NA
ATOM     28  C   UNL     1      -7.126  10.653  20.191  0.00  0.00    +0.000 C 
ATOM     29  C   UNL     1      -6.013  12.453  19.010  0.00  0.00    +0.000 C 
ATOM     30  C   UNL     1      -4.601  12.413  19.642  0.00  0.00    +0.000 C 
ENDBRANCH  23  24
ENDBRANCH  22  23
ENDBRANCH  21  22
ENDBRANCH  20  21
ENDBRANCH   4  20
TORSDOF 6
ENDMDL
MODEL 8
REMARK VINA RESULT:      -7.4      1.950      2.780
REMARK  Name = 
REMARK  9 active torsions:
REMARK  status: ('A' for Active; 'I' for Inactive)
REMARK    1  A    between atoms: C_1  and  C_2
REMARK    2  A    between atoms: C_7  and  C_8
REMARK    3  A    between atoms: C_11  and  O_12
REMARK    4  A    between atoms: O_12  and  C_13
REMARK    5  A    between atoms: C_13  and  C_14
REMARK    6  A    between atoms: C_14  and  C_15
REMARK    7  A    between atoms: C_15  and  N_16
REMARK    8  A    between atoms: N_19  and  C_20
REMARK    9  A    between atoms: C_28  and  C_29
REMARK                            x       y       z     vdW  Elec       q    Type
REMARK                         _______ _______ _______ _____ _____    ______ ____
ROOT
ATOM      1  C   UNL     1       1.858   8.681  18.870  0.00  0.00    +0.000 A 
ATOM      2  C   UNL     1       1.992   9.700  17.909  0.00  0.00    +0.000 A 
ATOM      3  C   UNL     1       1.473  10.976  18.139  0.00  0.00    +0.000 A 
ATOM      4  C   UNL     1       0.849  11.272  19.348  0.00  0.00    +0.000 A 
ATOM      5  C   UNL     1       0.699  10.273  20.306  0.00  0.00    +0.000 A 
ATOM      6  C   UNL     1       1.202   8.990  20.076  0.00  0.00    +0.000 A 
ATOM      7 CL   UNL     1       0.977   7.845  21.360  0.00  0.00    +0.000 Cl
ENDROOT
BRANCH   1  14
ATOM      8  C   UNL     1       3.636   1.547  18.079  0.00  0.00    +0.000 C 
ATOM      9  C   UNL     1       3.632   3.051  17.947  0.00  0.00    +0.000 A 
ATOM     10  C   UNL     1       4.608   3.663  17.143  0.00  0.00    +0.000 A 
ATOM     11  C   UNL     1       4.664   5.053  16.972  0.00  0.00    +0.000 A 
ATOM     12  C   UNL     1       3.702   5.786  17.657  0.00  0.00    +0.000 A 
ATOM     13  N   UNL     1       3.467   7.134  17.743  0.00  0.00    +0.000 N 
ATOM     14  C   UNL     1       2.375   7.349  18.550  0.00  0.00    +0.000 A 
ATOM     15  N   UNL     1       1.910   6.199  18.997  0.00  0.00    +0.000 NA
ATOM     16  C   UNL     1       2.717   5.224  18.454  0.00  0.00    +0.000 A 
ATOM     17  C   UNL     1       2.660   3.829  18.625  0.00  0.00    +0.000 A 
ATOM     18  C   UNL     1       1.618   3.197  19.501  0.00  0.00    +0.000 C 
ATOM     19  H   UNL     1       3.985   7.856  17.266  0.00  0.00    +0.000 HD
ENDBRANCH   1  14
BRANCH   4  20
ATOM     20  O   UNL     1       0.410  12.562  19.481  0.00  0.00    +0.000 OA
BRANCH  20  21
ATOM     21  C   UNL     1      -0.738  12.902  18.695  0.00  0.00    +0.000 C 
BRANCH  21  22
ATOM     22  C   UNL     1      -2.011  12.439  19.404  0.00  0.00    +0.000 C 
BRANCH  22  23
ATOM     23  C   UNL     1      -2.898  11.577  18.495  0.00  0.00    +0.000 C 
BRANCH  23  24
ATOM     24  N   UNL     1      -4.318  11.964  18.501  0.00  0.00    +0.000 NA
ATOM     25  C   UNL     1      -4.704  12.516  19.820  0.00  0.00    +0.000 C 
ATOM     26  C   UNL     1      -6.192  12.950  19.858  0.00  0.00    +0.000 C 
ATOM     27  N   UNL     1      -7.162  11.914  19.449  0.00  0.00    +0.000 NA
ATOM     28  C   UNL     1      -7.330  10.889  20.475  0.00  0.00    +0.000 C 
ATOM     29  C   UNL     1      -6.717  11.324  18.172  0.00  0.00    +0.000 C 
ATOM     30  C   UNL     1      -5.239  10.867  18.151  0.00  0.00    +0.000 C 
ENDBRANCH  23  24
ENDBRANCH  22  23
ENDBRANCH  21  22
ENDBRANCH  20  21
ENDBRANCH   4  20
TORSDOF 6
ENDMDL
MODEL 9
REMARK VINA RESULT:      -7.4      2.808      9.113
REMARK  Name = 
REMARK  9 active torsions:
REMARK  status: ('A' for Active; 'I' for Inactive)
REMARK    1  A    between atoms: C_1  and  C_2
REMARK    2  A    between atoms: C_7  and  C_8
REMARK    3  A    between atoms: C_11  and  O_12
REMARK    4  A    between atoms: O_12  and  C_13
REMARK    5  A    between atoms: C_13  and  C_14
REMARK    6  A    between atoms: C_14  and  C_15
REMARK    7  A    between atoms: C_15  and  N_16
REMARK    8  A    between atoms: N_19  and  C_20
REMARK    9  A    between atoms: C_28  and  C_29
REMARK                            x       y       z     vdW  Elec       q    Type
REMARK                         _______ _______ _______ _____ _____    ______ ____
ROOT
ATOM      1  C   UNL     1       1.077   9.601  19.409  0.00  0.00    +0.000 A 
ATOM      2  C   UNL     1       1.408   9.530  18.044  0.00  0.00    +0.000 A 
ATOM      3  C   UNL     1       2.130   8.448  17.535  0.00  0.00    +0.000 A 
ATOM      4  C   UNL     1       2.500   7.396  18.371  0.00  0.00    +0.000 A 
ATOM      5  C   UNL     1       2.189   7.455  19.727  0.00  0.00    +0.000 A 
ATOM      6  C   UNL     1       1.480   8.542  20.245  0.00  0.00    +0.000 A 
ATOM      7 CL   UNL     1       1.130   8.480  21.943  0.00  0.00    +0.000 Cl
ENDROOT
BRANCH   1  14
ATOM      8  C   UNL     1      -1.406  15.961  22.249  0.00  0.00    +0.000 C 
ATOM      9  C   UNL     1      -1.355  14.601  21.595  0.00  0.00    +0.000 A 
ATOM     10  C   UNL     1      -2.560  13.987  21.213  0.00  0.00    +0.000 A 
ATOM     11  C   UNL     1      -2.590  12.728  20.599  0.00  0.00    +0.000 A 
ATOM     12  C   UNL     1      -1.354  12.121  20.404  0.00  0.00    +0.000 A 
ATOM     13  N   UNL     1      -1.004  10.909  19.866  0.00  0.00    +0.000 N 
ATOM     14  C   UNL     1       0.365  10.785  19.893  0.00  0.00    +0.000 A 
ATOM     15  N   UNL     1       0.905  11.857  20.439  0.00  0.00    +0.000 NA
ATOM     16  C   UNL     1      -0.142  12.692  20.758  0.00  0.00    +0.000 A 
ATOM     17  C   UNL     1      -0.112  13.957  21.374  0.00  0.00    +0.000 A 
ATOM     18  C   UNL     1       1.186  14.586  21.788  0.00  0.00    +0.000 C 
ATOM     19  H   UNL     1      -1.639  10.229  19.479  0.00  0.00    +0.000 HD
ENDBRANCH   1  14
BRANCH   4  20
ATOM     20  O   UNL     1       3.173   6.372  17.761  0.00  0.00    +0.000 OA
BRANCH  20  21
ATOM     21  C   UNL     1       4.591   6.543  17.663  0.00  0.00    +0.000 C 
BRANCH  21  22
ATOM     22  C   UNL     1       5.285   5.183  17.720  0.00  0.00    +0.000 C 
BRANCH  22  23
ATOM     23  C   UNL     1       4.433   4.072  17.088  0.00  0.00    +0.000 C 
BRANCH  23  24
ATOM     24  N   UNL     1       3.807   3.167  18.064  0.00  0.00    +0.000 NA
ATOM     25  C   UNL     1       2.353   3.047  17.808  0.00  0.00    +0.000 C 
ATOM     26  C   UNL     1       1.661   2.087  18.809  0.00  0.00    +0.000 C 
ATOM     27  N   UNL     1       1.892   2.390  20.237  0.00  0.00    +0.000 NA
ATOM     28  C   UNL     1       1.132   3.558  20.675  0.00  0.00    +0.000 C 
ATOM     29  C   UNL     1       3.338   2.582  20.454  0.00  0.00    +0.000 C 
ATOM     30  C   UNL     1       4.016   3.564  19.468  0.00  0.00    +0.000 C 
ENDBRANCH  23  24
ENDBRANCH  22  23
ENDBRANCH  21  22
ENDBRANCH  20  21
ENDBRANCH   4  20
TORSDOF 6
ENDMDL
