MODEL 1
REMARK VINA RESULT:      -7.0      0.000      0.000
REMARK  Name = 
REMARK  8 active torsions:
REMARK  status: ('A' for Active; 'I' for Inactive)
REMARK    1  A    between atoms: C_2  and  C_3
REMARK    2  A    between atoms: N_7  and  C_8
REMARK    3  A    between atoms: N_7  and  C_14
REMARK    4  A    between atoms: C_8  and  C_9
REMARK    5  A    between atoms: C_9  and  O_11
REMARK    6  A    between atoms: O_11  and  C_12
REMARK    7  A    between atoms: C_12  and  C_13
REMARK    8  A    between atoms: C_14  and  C_15
REMARK                            x       y       z     vdW  Elec       q    Type
REMARK                         _______ _______ _______ _____ _____    ______ ____
ROOT
ATOM      1  C   UNL     1       5.854   4.787  16.796  0.00  0.00    +0.000 C 
ATOM      2  C   UNL     1       7.146   4.769  17.611  0.00  0.00    +0.000 C 
ATOM      3  C   UNL     1       6.797   5.555  18.848  0.00  0.00    +0.000 C 
ATOM      4  C   UNL     1       5.387   5.122  19.186  0.00  0.00    +0.000 C 
ATOM      5  N   UNL     1       4.736   4.620  17.873  0.00  0.00    +0.000 N 
ENDROOT
BRANCH   1   7
ATOM      6  C   UNL     1       5.979   4.110  14.380  0.00  0.00    +0.000 C 
ATOM      7  C   UNL     1       5.955   3.790  15.681  0.00  0.00    +0.000 C 
ENDBRANCH   1   7
BRANCH   5   8
ATOM      8  C   UNL     1       3.529   5.568  17.556  0.00  0.00    +0.000 C 
BRANCH   8   9
ATOM      9  C   UNL     1       3.095   6.557  18.625  0.00  0.00    +0.000 C 
ATOM     10  O   UNL     1       2.694   6.269  19.745  0.00  0.00    +0.000 OA
BRANCH   9  11
ATOM     11  O   UNL     1       3.152   7.809  18.099  0.00  0.00    +0.000 OA
BRANCH  11  12
ATOM     12  C   UNL     1       1.888   8.415  17.786  0.00  0.00    +0.000 C 
ATOM     13  C   UNL     1       2.054   9.910  17.983  0.00  0.00    +0.000 C 
ENDBRANCH  11  12
ENDBRANCH   9  11
ENDBRANCH   8   9
ENDBRANCH   5   8
BRANCH   5  14
ATOM     14  C   UNL     1       4.241   3.151  18.024  0.00  0.00    +0.000 C 
BRANCH  14  15
ATOM     15  C   UNL     1       3.167   2.941  19.074  0.00  0.00    +0.000 A 
ATOM     16  C   UNL     1       1.805   3.003  18.735  0.00  0.00    +0.000 A 
ATOM     17  C   UNL     1       0.822   2.992  19.728  0.00  0.00    +0.000 A 
ATOM     18  C   UNL     1       1.184   2.893  21.068  0.00  0.00    +0.000 A 
ATOM     19  C   UNL     1       2.523   2.747  21.416  0.00  0.00    +0.000 A 
ATOM     20  C   UNL     1       3.505   2.747  20.424  0.00  0.00    +0.000 A 
ENDBRANCH  14  15
ENDBRANCH   5  14
TORSDOF 7
ENDMDL
MODEL 2
REMARK VINA RESULT:      -6.8      2.902      4.771
REMARK  Name = 
REMARK  8 active torsions:
REMARK  status: ('A' for Active; 'I' for Inactive)
REMARK    1  A    between atoms: C_2  and  C_3
REMARK    2  A    between atoms: N_7  and  C_8
REMARK    3  A    between atoms: N_7  and  C_14
REMARK    4  A    between atoms: C_8  and  C_9
REMARK    5  A    between atoms: C_9  and  O_11
REMARK    6  A    between atoms: O_11  and  C_12
REMARK    7  A    between atoms: C_12  and  C_13
REMARK    8  A    between atoms: C_14  and  C_15
REMARK                            x       y       z     vdW  Elec       q    Type
REMARK                         _______ _______ _______ _____ _____    ______ ____
ROOT
ATOM      1  C   UNL     1       6.919   5.508  17.234  0.00  0.00    +0.000 C 
ATOM      2  C   UNL     1       6.227   6.839  17.519  0.00  0.00    +0.000 C 
ATOM      3  C   UNL     1       5.191   6.942  16.431  0.00  0.00    +0.000 C 
ATOM      4  C   UNL     1       4.649   5.537  16.290  0.00  0.00    +0.000 C 
ATOM      5  N   UNL     1       5.749   4.570  16.797  0.00  0.00    +0.000 N 
ENDROOT
BRANCH   1   7
ATOM      6  C   UNL     1       7.826   5.815  19.557  0.00  0.00    +0.000 C 
ATOM      7  C   UNL     1       7.768   5.126  18.408  0.00  0.00    +0.000 C 
ENDBRANCH   1   7
BRANCH   5   8
ATOM      8  C   UNL     1       6.187   3.681  15.585  0.00  0.00    +0.000 C 
BRANCH   8   9
ATOM      9  C   UNL     1       6.487   4.369  14.263  0.00  0.00    +0.000 C 
ATOM     10  O   UNL     1       7.258   5.305  14.103  0.00  0.00    +0.000 OA
BRANCH   9  11
ATOM     11  O   UNL     1       5.693   3.822  13.305  0.00  0.00    +0.000 OA
BRANCH  11  12
ATOM     12  C   UNL     1       6.356   3.416  12.098  0.00  0.00    +0.000 C 
ATOM     13  C   UNL     1       5.597   2.218  11.558  0.00  0.00    +0.000 C 
ENDBRANCH  11  12
ENDBRANCH   9  11
ENDBRANCH   8   9
ENDBRANCH   5   8
BRANCH   5  14
ATOM     14  C   UNL     1       5.213   3.677  17.955  0.00  0.00    +0.000 C 
BRANCH  14  15
ATOM     15  C   UNL     1       3.864   4.092  18.513  0.00  0.00    +0.000 A 
ATOM     16  C   UNL     1       3.776   4.968  19.608  0.00  0.00    +0.000 A 
ATOM     17  C   UNL     1       2.550   5.205  20.234  0.00  0.00    +0.000 A 
ATOM     18  C   UNL     1       1.394   4.590  19.762  0.00  0.00    +0.000 A 
ATOM     19  C   UNL     1       1.450   3.784  18.630  0.00  0.00    +0.000 A 
ATOM     20  C   UNL     1       2.672   3.556  17.996  0.00  0.00    +0.000 A 
ENDBRANCH  14  15
ENDBRANCH   5  14
TORSDOF 7
ENDMDL
MODEL 3
REMARK VINA RESULT:      -6.7      0.786      1.124
REMARK  Name = 
REMARK  8 active torsions:
REMARK  status: ('A' for Active; 'I' for Inactive)
REMARK    1  A    between atoms: C_2  and  C_3
REMARK    2  A    between atoms: N_7  and  C_8
REMARK    3  A    between atoms: N_7  and  C_14
REMARK    4  A    between atoms: C_8  and  C_9
REMARK    5  A    between atoms: C_9  and  O_11
REMARK    6  A    between atoms: O_11  and  C_12
REMARK    7  A    between atoms: C_12  and  C_13
REMARK    8  A    between atoms: C_14  and  C_15
REMARK                            x       y       z     vdW  Elec       q    Type
REMARK                         _______ _______ _______ _____ _____    ______ ____
ROOT
ATOM      1  C   UNL     1       6.060   4.684  16.713  0.00  0.00    +0.000 C 
ATOM      2  C   UNL     1       7.374   4.593  17.484  0.00  0.00    +0.000 C 
ATOM      3  C   UNL     1       7.098   5.358  18.751  0.00  0.00    +0.000 C 
ATOM      4  C   UNL     1       5.683   4.971  19.125  0.00  0.00    +0.000 C 
ATOM      5  N   UNL     1       4.970   4.532  17.822  0.00  0.00    +0.000 N 
ENDROOT
BRANCH   1   7
ATOM      6  C   UNL     1       6.008   4.067  14.278  0.00  0.00    +0.000 C 
ATOM      7  C   UNL     1       6.084   3.715  15.569  0.00  0.00    +0.000 C 
ENDBRANCH   1   7
BRANCH   5   8
ATOM      8  C   UNL     1       3.793   5.534  17.570  0.00  0.00    +0.000 C 
BRANCH   8   9
ATOM      9  C   UNL     1       4.131   6.914  17.029  0.00  0.00    +0.000 C 
ATOM     10  O   UNL     1       4.755   7.147  16.002  0.00  0.00    +0.000 OA
BRANCH   9  11
ATOM     11  O   UNL     1       3.693   7.842  17.920  0.00  0.00    +0.000 OA
BRANCH  11  12
ATOM     12  C   UNL     1       2.275   7.879  18.141  0.00  0.00    +0.000 C 
ATOM     13  C   UNL     1       1.818   9.296  17.849  0.00  0.00    +0.000 C 
ENDBRANCH  11  12
ENDBRANCH   9  11
ENDBRANCH   8   9
ENDBRANCH   5   8
BRANCH   5  14
ATOM     14  C   UNL     1       4.423   3.080  17.950  0.00  0.00    +0.000 C 
BRANCH  14  15
ATOM     15  C   UNL     1       3.271   2.912  18.924  0.00  0.00    +0.000 A 
ATOM     16  C   UNL     1       1.944   2.860  18.468  0.00  0.00    +0.000 A 
ATOM     17  C   UNL     1       0.878   2.890  19.372  0.00  0.00    +0.000 A 
ATOM     18  C   UNL     1       1.124   2.947  20.741  0.00  0.00    +0.000 A 
ATOM     19  C   UNL     1       2.433   2.917  21.212  0.00  0.00    +0.000 A 
ATOM     20  C   UNL     1       3.498   2.875  20.311  0.00  0.00    +0.000 A 
ENDBRANCH  14  15
ENDBRANCH   5  14
TORSDOF 7
ENDMDL
MODEL 4
REMARK VINA RESULT:      -6.7      2.505      4.304
REMARK  Name = 
REMARK  8 active torsions:
REMARK  status: ('A' for Active; 'I' for Inactive)
REMARK    1  A    between atoms: C_2  and  C_3
REMARK    2  A    between atoms: N_7  and  C_8
REMARK    3  A    between atoms: N_7  and  C_14
REMARK    4  A    between atoms: C_8  and  C_9
REMARK    5  A    between atoms: C_9  and  O_11
REMARK    6  A    between atoms: O_11  and  C_12
REMARK    7  A    between atoms: C_12  and  C_13
REMARK    8  A    between atoms: C_14  and  C_15
REMARK                            x       y       z     vdW  Elec       q    Type
REMARK                         _______ _______ _______ _____ _____    ______ ____
ROOT
ATOM      1  C   UNL     1       6.227   5.888  17.505  0.00  0.00    +0.000 C 
ATOM      2  C   UNL     1       5.340   7.113  17.712  0.00  0.00    +0.000 C 
ATOM      3  C   UNL     1       4.129   6.823  16.864  0.00  0.00    +0.000 C 
ATOM      4  C   UNL     1       3.870   5.347  17.068  0.00  0.00    +0.000 C 
ATOM      5  N   UNL     1       5.215   4.699  17.480  0.00  0.00    +0.000 N 
ENDROOT
BRANCH   1   7
ATOM      6  C   UNL     1       8.162   6.924  18.728  0.00  0.00    +0.000 C 
ATOM      7  C   UNL     1       7.330   5.894  18.520  0.00  0.00    +0.000 C 
ENDBRANCH   1   7
BRANCH   5   8
ATOM      8  C   UNL     1       5.605   3.675  16.361  0.00  0.00    +0.000 C 
BRANCH   8   9
ATOM      9  C   UNL     1       6.368   4.191  15.152  0.00  0.00    +0.000 C 
ATOM     10  O   UNL     1       7.509   4.635  15.162  0.00  0.00    +0.000 OA
BRANCH   9  11
ATOM     11  O   UNL     1       5.542   4.150  14.074  0.00  0.00    +0.000 OA
BRANCH  11  12
ATOM     12  C   UNL     1       6.106   3.602  12.873  0.00  0.00    +0.000 C 
ATOM     13  C   UNL     1       4.949   3.298  11.939  0.00  0.00    +0.000 C 
ENDBRANCH  11  12
ENDBRANCH   9  11
ENDBRANCH   8   9
ENDBRANCH   5   8
BRANCH   5  14
ATOM     14  C   UNL     1       5.086   3.974  18.852  0.00  0.00    +0.000 C 
BRANCH  14  15
ATOM     15  C   UNL     1       3.664   3.791  19.349  0.00  0.00    +0.000 A 
ATOM     16  C   UNL     1       3.049   4.767  20.151  0.00  0.00    +0.000 A 
ATOM     17  C   UNL     1       1.815   4.519  20.756  0.00  0.00    +0.000 A 
ATOM     18  C   UNL     1       1.167   3.304  20.550  0.00  0.00    +0.000 A 
ATOM     19  C   UNL     1       1.723   2.359  19.693  0.00  0.00    +0.000 A 
ATOM     20  C   UNL     1       2.950   2.611  19.079  0.00  0.00    +0.000 A 
ENDBRANCH  14  15
ENDBRANCH   5  14
TORSDOF 7
ENDMDL
MODEL 5
REMARK VINA RESULT:      -6.6      2.356      4.167
REMARK  Name = 
REMARK  8 active torsions:
REMARK  status: ('A' for Active; 'I' for Inactive)
REMARK    1  A    between atoms: C_2  and  C_3
REMARK    2  A    between atoms: N_7  and  C_8
REMARK    3  A    between atoms: N_7  and  C_14
REMARK    4  A    between atoms: C_8  and  C_9
REMARK    5  A    between atoms: C_9  and  O_11
REMARK    6  A    between atoms: O_11  and  C_12
REMARK    7  A    between atoms: C_12  and  C_13
REMARK    8  A    between atoms: C_14  and  C_15
REMARK                            x       y       z     vdW  Elec       q    Type
REMARK                         _______ _______ _______ _____ _____    ______ ____
ROOT
ATOM      1  C   UNL     1       5.820   5.586  18.142  0.00  0.00    +0.000 C 
ATOM      2  C   UNL     1       4.706   6.588  18.437  0.00  0.00    +0.000 C 
ATOM      3  C   UNL     1       3.733   6.382  17.306  0.00  0.00    +0.000 C 
ATOM      4  C   UNL     1       3.709   4.884  17.094  0.00  0.00    +0.000 C 
ATOM      5  N   UNL     1       5.056   4.327  17.621  0.00  0.00    +0.000 N 
ENDROOT
BRANCH   1   7
ATOM      6  C   UNL     1       8.020   5.740  19.345  0.00  0.00    +0.000 C 
ATOM      7  C   UNL     1       6.709   5.462  19.342  0.00  0.00    +0.000 C 
ENDBRANCH   1   7
BRANCH   5   8
ATOM      8  C   UNL     1       5.811   3.698  16.402  0.00  0.00    +0.000 C 
BRANCH   8   9
ATOM      9  C   UNL     1       6.362   4.634  15.339  0.00  0.00    +0.000 C 
ATOM     10  O   UNL     1       7.262   5.449  15.500  0.00  0.00    +0.000 OA
BRANCH   9  11
ATOM     11  O   UNL     1       5.634   4.470  14.204  0.00  0.00    +0.000 OA
BRANCH  11  12
ATOM     12  C   UNL     1       6.263   3.713  13.159  0.00  0.00    +0.000 C 
ATOM     13  C   UNL     1       5.182   3.362  12.154  0.00  0.00    +0.000 C 
ENDBRANCH  11  12
ENDBRANCH   9  11
ENDBRANCH   8   9
ENDBRANCH   5   8
BRANCH   5  14
ATOM     14  C   UNL     1       4.820   3.252  18.722  0.00  0.00    +0.000 C 
BRANCH  14  15
ATOM     15  C   UNL     1       3.381   3.111  19.183  0.00  0.00    +0.000 A 
ATOM     16  C   UNL     1       2.493   2.251  18.517  0.00  0.00    +0.000 A 
ATOM     17  C   UNL     1       1.130   2.258  18.824  0.00  0.00    +0.000 A 
ATOM     18  C   UNL     1       0.641   3.104  19.816  0.00  0.00    +0.000 A 
ATOM     19  C   UNL     1       1.520   3.903  20.541  0.00  0.00    +0.000 A 
ATOM     20  C   UNL     1       2.883   3.888  20.243  0.00  0.00    +0.000 A 
ENDBRANCH  14  15
ENDBRANCH   5  14
TORSDOF 7
ENDMDL
MODEL 6
REMARK VINA RESULT:      -6.6      1.885      3.874
REMARK  Name = 
REMARK  8 active torsions:
REMARK  status: ('A' for Active; 'I' for Inactive)
REMARK    1  A    between atoms: C_2  and  C_3
REMARK    2  A    between atoms: N_7  and  C_8
REMARK    3  A    between atoms: N_7  and  C_14
REMARK    4  A    between atoms: C_8  and  C_9
REMARK    5  A    between atoms: C_9  and  O_11
REMARK    6  A    between atoms: O_11  and  C_12
REMARK    7  A    between atoms: C_12  and  C_13
REMARK    8  A    between atoms: C_14  and  C_15
REMARK                            x       y       z     vdW  Elec       q    Type
REMARK                         _______ _______ _______ _____ _____    ______ ____
ROOT
ATOM      1  C   UNL     1       5.005   5.577  18.318  0.00  0.00    +0.000 C 
ATOM      2  C   UNL     1       3.969   6.308  19.170  0.00  0.00    +0.000 C 
ATOM      3  C   UNL     1       2.755   6.369  18.281  0.00  0.00    +0.000 C 
ATOM      4  C   UNL     1       2.723   5.022  17.593  0.00  0.00    +0.000 C 
ATOM      5  N   UNL     1       4.172   4.474  17.590  0.00  0.00    +0.000 N 
ENDROOT
BRANCH   1   7
ATOM      6  C   UNL     1       7.406   5.663  19.051  0.00  0.00    +0.000 C 
ATOM      7  C   UNL     1       6.164   5.175  19.178  0.00  0.00    +0.000 C 
ENDBRANCH   1   7
BRANCH   5   8
ATOM      8  C   UNL     1       4.623   4.349  16.095  0.00  0.00    +0.000 C 
BRANCH   8   9
ATOM      9  C   UNL     1       5.540   5.421  15.531  0.00  0.00    +0.000 C 
ATOM     10  O   UNL     1       5.225   6.581  15.297  0.00  0.00    +0.000 OA
BRANCH   9  11
ATOM     11  O   UNL     1       6.743   4.854  15.254  0.00  0.00    +0.000 OA
BRANCH  11  12
ATOM     12  C   UNL     1       7.170   4.927  13.885  0.00  0.00    +0.000 C 
ATOM     13  C   UNL     1       6.451   3.819  13.138  0.00  0.00    +0.000 C 
ENDBRANCH  11  12
ENDBRANCH   9  11
ENDBRANCH   8   9
ENDBRANCH   5   8
BRANCH   5  14
ATOM     14  C   UNL     1       4.244   3.086  18.293  0.00  0.00    +0.000 C 
BRANCH  14  15
ATOM     15  C   UNL     1       3.167   2.838  19.333  0.00  0.00    +0.000 A 
ATOM     16  C   UNL     1       1.846   2.556  18.949  0.00  0.00    +0.000 A 
ATOM     17  C   UNL     1       0.822   2.510  19.899  0.00  0.00    +0.000 A 
ATOM     18  C   UNL     1       1.109   2.718  21.246  0.00  0.00    +0.000 A 
ATOM     19  C   UNL     1       2.424   2.916  21.652  0.00  0.00    +0.000 A 
ATOM     20  C   UNL     1       3.449   2.952  20.705  0.00  0.00    +0.000 A 
ENDBRANCH  14  15
ENDBRANCH   5  14
TORSDOF 7
ENDMDL
MODEL 7
REMARK VINA RESULT:      -6.6      1.905      5.784
REMARK  Name = 
REMARK  8 active torsions:
REMARK  status: ('A' for Active; 'I' for Inactive)
REMARK    1  A    between atoms: C_2  and  C_3
REMARK    2  A    between atoms: N_7  and  C_8
REMARK    3  A    between atoms: N_7  and  C_14
REMARK    4  A    between atoms: C_8  and  C_9
REMARK    5  A    between atoms: C_9  and  O_11
REMARK    6  A    between atoms: O_11  and  C_12
REMARK    7  A    between atoms: C_12  and  C_13
REMARK    8  A    between atoms: C_14  and  C_15
REMARK                            x       y       z     vdW  Elec       q    Type
REMARK                         _______ _______ _______ _____ _____    ______ ____
ROOT
ATOM      1  C   UNL     1       5.444   5.990  17.898  0.00  0.00    +0.000 C 
ATOM      2  C   UNL     1       6.902   6.418  18.043  0.00  0.00    +0.000 C 
ATOM      3  C   UNL     1       7.666   5.126  17.923  0.00  0.00    +0.000 C 
ATOM      4  C   UNL     1       6.946   4.361  16.835  0.00  0.00    +0.000 C 
ATOM      5  N   UNL     1       5.490   4.890  16.791  0.00  0.00    +0.000 N 
ENDROOT
BRANCH   1   7
ATOM      6  C   UNL     1       3.270   7.250  17.943  0.00  0.00    +0.000 C 
ATOM      7  C   UNL     1       4.586   7.202  17.694  0.00  0.00    +0.000 C 
ENDBRANCH   1   7
BRANCH   5   8
ATOM      8  C   UNL     1       4.546   3.698  17.168  0.00  0.00    +0.000 C 
BRANCH   8   9
ATOM      9  C   UNL     1       4.208   3.487  18.634  0.00  0.00    +0.000 C 
ATOM     10  O   UNL     1       4.945   2.984  19.473  0.00  0.00    +0.000 OA
BRANCH   9  11
ATOM     11  O   UNL     1       2.923   3.877  18.839  0.00  0.00    +0.000 OA
BRANCH  11  12
ATOM     12  C   UNL     1       1.953   3.341  17.926  0.00  0.00    +0.000 C 
ATOM     13  C   UNL     1       0.989   2.503  18.746  0.00  0.00    +0.000 C 
ENDBRANCH  11  12
ENDBRANCH   9  11
ENDBRANCH   8   9
ENDBRANCH   5   8
BRANCH   5  14
ATOM     14  C   UNL     1       5.137   5.429  15.373  0.00  0.00    +0.000 C 
BRANCH  14  15
ATOM     15  C   UNL     1       5.906   4.788  14.233  0.00  0.00    +0.000 A 
ATOM     16  C   UNL     1       7.152   5.297  13.828  0.00  0.00    +0.000 A 
ATOM     17  C   UNL     1       7.771   4.825  12.669  0.00  0.00    +0.000 A 
ATOM     18  C   UNL     1       7.169   3.822  11.913  0.00  0.00    +0.000 A 
ATOM     19  C   UNL     1       5.977   3.251  12.344  0.00  0.00    +0.000 A 
ATOM     20  C   UNL     1       5.362   3.714  13.509  0.00  0.00    +0.000 A 
ENDBRANCH  14  15
ENDBRANCH   5  14
TORSDOF 7
ENDMDL
MODEL 8
REMARK VINA RESULT:      -6.6      1.009      1.664
REMARK  Name = 
REMARK  8 active torsions:
REMARK  status: ('A' for Active; 'I' for Inactive)
REMARK    1  A    between atoms: C_2  and  C_3
REMARK    2  A    between atoms: N_7  and  C_8
REMARK    3  A    between atoms: N_7  and  C_14
REMARK    4  A    between atoms: C_8  and  C_9
REMARK    5  A    between atoms: C_9  and  O_11
REMARK    6  A    between atoms: O_11  and  C_12
REMARK    7  A    between atoms: C_12  and  C_13
REMARK    8  A    between atoms: C_14  and  C_15
REMARK                            x       y       z     vdW  Elec       q    Type
REMARK                         _______ _______ _______ _____ _____    ______ ____
ROOT
ATOM      1  C   UNL     1       6.182   4.735  16.745  0.00  0.00    +0.000 C 
ATOM      2  C   UNL     1       7.541   4.683  17.440  0.00  0.00    +0.000 C 
ATOM      3  C   UNL     1       7.364   5.584  18.634  0.00  0.00    +0.000 C 
ATOM      4  C   UNL     1       5.968   5.283  19.132  0.00  0.00    +0.000 C 
ATOM      5  N   UNL     1       5.162   4.734  17.928  0.00  0.00    +0.000 N 
ENDROOT
BRANCH   1   7
ATOM      6  C   UNL     1       6.067   3.870  14.389  0.00  0.00    +0.000 C 
ATOM      7  C   UNL     1       6.109   3.653  15.711  0.00  0.00    +0.000 C 
ENDBRANCH   1   7
BRANCH   5   8
ATOM      8  C   UNL     1       3.997   5.741  17.644  0.00  0.00    +0.000 C 
BRANCH   8   9
ATOM      9  C   UNL     1       4.321   7.013  16.876  0.00  0.00    +0.000 C 
ATOM     10  O   UNL     1       5.083   7.098  15.922  0.00  0.00    +0.000 OA
BRANCH   9  11
ATOM     11  O   UNL     1       3.685   8.051  17.480  0.00  0.00    +0.000 OA
BRANCH  11  12
ATOM     12  C   UNL     1       2.503   7.717  18.221  0.00  0.00    +0.000 C 
ATOM     13  C   UNL     1       1.657   8.975  18.299  0.00  0.00    +0.000 C 
ENDBRANCH  11  12
ENDBRANCH   9  11
ENDBRANCH   8   9
ENDBRANCH   5   8
BRANCH   5  14
ATOM     14  C   UNL     1       4.587   3.321  18.242  0.00  0.00    +0.000 C 
BRANCH  14  15
ATOM     15  C   UNL     1       3.196   3.315  18.848  0.00  0.00    +0.000 A 
ATOM     16  C   UNL     1       2.985   3.740  20.170  0.00  0.00    +0.000 A 
ATOM     17  C   UNL     1       1.743   3.563  20.786  0.00  0.00    +0.000 A 
ATOM     18  C   UNL     1       0.690   2.983  20.082  0.00  0.00    +0.000 A 
ATOM     19  C   UNL     1       0.860   2.632  18.747  0.00  0.00    +0.000 A 
ATOM     20  C   UNL     1       2.096   2.818  18.128  0.00  0.00    +0.000 A 
ENDBRANCH  14  15
ENDBRANCH   5  14
TORSDOF 7
ENDMDL
MODEL 9
REMARK VINA RESULT:      -6.4      1.645      4.397
REMARK  Name = 
REMARK  8 active torsions:
REMARK  status: ('A' for Active; 'I' for Inactive)
REMARK    1  A    between atoms: C_2  and  C_3
REMARK    2  A    between atoms: N_7  and  C_8
REMARK    3  A    between atoms: N_7  and  C_14
REMARK    4  A    between atoms: C_8  and  C_9
REMARK    5  A    between atoms: C_9  and  O_11
REMARK    6  A    between atoms: O_11  and  C_12
REMARK    7  A    between atoms: C_12  and  C_13
REMARK    8  A    between atoms: C_14  and  C_15
REMARK                            x       y       z     vdW  Elec       q    Type
REMARK                         _______ _______ _______ _____ _____    ______ ____
ROOT
ATOM      1  C   UNL     1       5.900   4.632  17.945  0.00  0.00    +0.000 C 
ATOM      2  C   UNL     1       6.988   4.467  16.887  0.00  0.00    +0.000 C 
ATOM      3  C   UNL     1       6.240   3.964  15.681  0.00  0.00    +0.000 C 
ATOM      4  C   UNL     1       4.948   4.753  15.681  0.00  0.00    +0.000 C 
ATOM      5  N   UNL     1       4.687   5.201  17.142  0.00  0.00    +0.000 N 
ENDROOT
BRANCH   1   7
ATOM      6  C   UNL     1       7.706   5.855  19.191  0.00  0.00    +0.000 C 
ATOM      7  C   UNL     1       6.445   5.412  19.103  0.00  0.00    +0.000 C 
ENDBRANCH   1   7
BRANCH   5   8
ATOM      8  C   UNL     1       3.356   4.521  17.610  0.00  0.00    +0.000 C 
BRANCH   8   9
ATOM      9  C   UNL     1       3.445   3.164  18.288  0.00  0.00    +0.000 C 
ATOM     10  O   UNL     1       3.552   2.085  17.719  0.00  0.00    +0.000 OA
BRANCH   9  11
ATOM     11  O   UNL     1       3.304   3.344  19.628  0.00  0.00    +0.000 OA
BRANCH  11  12
ATOM     12  C   UNL     1       2.184   2.683  20.235  0.00  0.00    +0.000 C 
ATOM     13  C   UNL     1       1.005   3.635  20.143  0.00  0.00    +0.000 C 
ENDBRANCH  11  12
ENDBRANCH   9  11
ENDBRANCH   8   9
ENDBRANCH   5   8
BRANCH   5  14
ATOM     14  C   UNL     1       4.562   6.750  17.233  0.00  0.00    +0.000 C 
BRANCH  14  15
ATOM     15  C   UNL     1       3.374   7.251  18.034  0.00  0.00    +0.000 A 
ATOM     16  C   UNL     1       2.575   8.303  17.556  0.00  0.00    +0.000 A 
ATOM     17  C   UNL     1       1.599   8.883  18.371  0.00  0.00    +0.000 A 
ATOM     18  C   UNL     1       1.392   8.406  19.662  0.00  0.00    +0.000 A 
ATOM     19  C   UNL     1       2.119   7.313  20.122  0.00  0.00    +0.000 A 
ATOM     20  C   UNL     1       3.086   6.725  19.305  0.00  0.00    +0.000 A 
ENDBRANCH  14  15
ENDBRANCH   5  14
TORSDOF 7
ENDMDL
