MODEL 1
REMARK VINA RESULT:      -7.7      0.000      0.000
REMARK  Name = 
REMARK  6 active torsions:
REMARK  status: ('A' for Active; 'I' for Inactive)
REMARK    1  A    between atoms: C_1  and  C_2
REMARK    2  A    between atoms: C_2  and  O_3
REMARK    3  A    between atoms: C_2  and  C_4
REMARK    4  A    between atoms: C_9  and  N_10
REMARK    5  A    between atoms: C_11  and  C_13
REMARK    6  A    between atoms: C_16  and  C_17
REMARK                            x       y       z     vdW  Elec       q    Type
REMARK                         _______ _______ _______ _____ _____    ______ ____
ROOT
ATOM      1  N   UNL     1       4.213   6.682  17.688  0.00  0.00    +0.000 N 
ATOM      2  C   UNL     1       2.901   6.445  18.076  0.00  0.00    +0.000 C 
ATOM      3  O   UNL     1       2.216   5.482  17.721  0.00  0.00    +0.000 OA
ATOM      4  H   UNL     1       4.657   7.555  17.998  0.00  0.00    +0.000 HD
ENDROOT
BRANCH   2   5
ATOM      5  C   UNL     1       2.262   7.457  18.972  0.00  0.00    +0.000 A 
ATOM      6  C   UNL     1       1.988   7.091  20.245  0.00  0.00    +0.000 A 
ATOM      7  C   UNL     1       1.245   7.945  21.150  0.00  0.00    +0.000 A 
ATOM      8  C   UNL     1       0.779   9.119  20.706  0.00  0.00    +0.000 A 
ATOM      9  N   UNL     1       1.076   9.523  19.427  0.00  0.00    +0.000 N 
ATOM     10  C   UNL     1       1.825   8.805  18.534  0.00  0.00    +0.000 A 
ATOM     11  O   UNL     1       2.112   9.258  17.431  0.00  0.00    +0.000 OA
ATOM     12  H   UNL     1       0.737  10.427  19.118  0.00  0.00    +0.000 HD
BRANCH   8  13
ATOM     13  C   UNL     1      -0.024  10.007  21.481  0.00  0.00    +0.000 A 
ATOM     14  C   UNL     1      -0.431   9.977  22.813  0.00  0.00    +0.000 A 
ATOM     15  C   UNL     1      -1.226  11.126  23.055  0.00  0.00    +0.000 A 
ATOM     16  C   UNL     1      -1.289  11.798  21.865  0.00  0.00    +0.000 A 
ATOM     17  O   UNL     1      -0.580  11.144  20.918  0.00  0.00    +0.000 OA
ENDBRANCH   8  13
ENDBRANCH   2   5
BRANCH   1  23
ATOM     18  C   UNL     1       5.714   4.735  17.357  0.00  0.00    +0.000 A 
ATOM     19  C   UNL     1       6.507   3.976  16.462  0.00  0.00    +0.000 A 
ATOM     20  C   UNL     1       6.616   4.297  15.111  0.00  0.00    +0.000 A 
ATOM     21  C   UNL     1       5.920   5.381  14.612  0.00  0.00    +0.000 A 
ATOM     22  C   UNL     1       5.116   6.134  15.464  0.00  0.00    +0.000 A 
ATOM     23  C   UNL     1       5.010   5.854  16.839  0.00  0.00    +0.000 A 
BRANCH  18  25
ATOM     24  C   UNL     1       4.552   3.607  19.400  0.00  0.00    +0.000 C 
ATOM     25  C   UNL     1       5.754   4.382  18.842  0.00  0.00    +0.000 C 
BRANCH  25  26
ATOM     26  O   UNL     1       5.893   5.563  19.627  0.00  0.00    +0.000 OA
ATOM     27  H   UNL     1       6.497   5.358  20.360  0.00  0.00    +0.000 HD
ENDBRANCH  25  26
ENDBRANCH  18  25
ENDBRANCH   1  23
TORSDOF 5
ENDMDL
MODEL 2
REMARK VINA RESULT:      -7.7      0.812      1.007
REMARK  Name = 
REMARK  6 active torsions:
REMARK  status: ('A' for Active; 'I' for Inactive)
REMARK    1  A    between atoms: C_1  and  C_2
REMARK    2  A    between atoms: C_2  and  O_3
REMARK    3  A    between atoms: C_2  and  C_4
REMARK    4  A    between atoms: C_9  and  N_10
REMARK    5  A    between atoms: C_11  and  C_13
REMARK    6  A    between atoms: C_16  and  C_17
REMARK                            x       y       z     vdW  Elec       q    Type
REMARK                         _______ _______ _______ _____ _____    ______ ____
ROOT
ATOM      1  N   UNL     1       4.300   6.974  17.735  0.00  0.00    +0.000 N 
ATOM      2  C   UNL     1       3.067   6.620  18.270  0.00  0.00    +0.000 C 
ATOM      3  O   UNL     1       2.524   5.520  18.140  0.00  0.00    +0.000 OA
ATOM      4  H   UNL     1       4.616   7.944  17.856  0.00  0.00    +0.000 HD
ENDROOT
BRANCH   2   5
ATOM      5  C   UNL     1       2.332   7.669  19.038  0.00  0.00    +0.000 A 
ATOM      6  C   UNL     1       2.013   7.404  20.326  0.00  0.00    +0.000 A 
ATOM      7  C   UNL     1       1.181   8.291  21.113  0.00  0.00    +0.000 A 
ATOM      8  C   UNL     1       0.676   9.392  20.542  0.00  0.00    +0.000 A 
ATOM      9  N   UNL     1       1.016   9.697  19.247  0.00  0.00    +0.000 N 
ATOM     10  C   UNL     1       1.846   8.946  18.459  0.00  0.00    +0.000 A 
ATOM     11  O   UNL     1       2.165   9.314  17.333  0.00  0.00    +0.000 OA
ATOM     12  H   UNL     1       0.647  10.549  18.841  0.00  0.00    +0.000 HD
BRANCH   8  13
ATOM     13  C   UNL     1      -0.211  10.299  21.195  0.00  0.00    +0.000 A 
ATOM     14  C   UNL     1      -0.571  10.454  22.532  0.00  0.00    +0.000 A 
ATOM     15  C   UNL     1      -1.499  11.522  22.615  0.00  0.00    +0.000 A 
ATOM     16  C   UNL     1      -1.683  11.961  21.332  0.00  0.00    +0.000 A 
ATOM     17  O   UNL     1      -0.925  11.243  20.475  0.00  0.00    +0.000 OA
ENDBRANCH   8  13
ENDBRANCH   2   5
BRANCH   1  23
ATOM     18  C   UNL     1       6.213   5.403  17.585  0.00  0.00    +0.000 A 
ATOM     19  C   UNL     1       7.050   4.614  16.758  0.00  0.00    +0.000 A 
ATOM     20  C   UNL     1       6.876   4.543  15.378  0.00  0.00    +0.000 A 
ATOM     21  C   UNL     1       5.847   5.249  14.786  0.00  0.00    +0.000 A 
ATOM     22  C   UNL     1       4.995   6.018  15.576  0.00  0.00    +0.000 A 
ATOM     23  C   UNL     1       5.164   6.135  16.967  0.00  0.00    +0.000 A 
BRANCH  18  25
ATOM     24  C   UNL     1       8.046   5.627  19.425  0.00  0.00    +0.000 C 
ATOM     25  C   UNL     1       6.557   5.518  19.068  0.00  0.00    +0.000 C 
BRANCH  25  26
ATOM     26  O   UNL     1       6.035   4.401  19.785  0.00  0.00    +0.000 OA
ATOM     27  H   UNL     1       6.396   4.438  20.686  0.00  0.00    +0.000 HD
ENDBRANCH  25  26
ENDBRANCH  18  25
ENDBRANCH   1  23
TORSDOF 5
ENDMDL
MODEL 3
REMARK VINA RESULT:      -7.4      1.539      1.972
REMARK  Name = 
REMARK  6 active torsions:
REMARK  status: ('A' for Active; 'I' for Inactive)
REMARK    1  A    between atoms: C_1  and  C_2
REMARK    2  A    between atoms: C_2  and  O_3
REMARK    3  A    between atoms: C_2  and  C_4
REMARK    4  A    between atoms: C_9  and  N_10
REMARK    5  A    between atoms: C_11  and  C_13
REMARK    6  A    between atoms: C_16  and  C_17
REMARK                            x       y       z     vdW  Elec       q    Type
REMARK                         _______ _______ _______ _____ _____    ______ ____
ROOT
ATOM      1  N   UNL     1       4.311   6.892  17.302  0.00  0.00    +0.000 N 
ATOM      2  C   UNL     1       3.122   6.503  17.906  0.00  0.00    +0.000 C 
ATOM      3  O   UNL     1       2.699   5.345  17.966  0.00  0.00    +0.000 OA
ATOM      4  H   UNL     1       4.521   7.897  17.258  0.00  0.00    +0.000 HD
ENDROOT
BRANCH   2   5
ATOM      5  C   UNL     1       2.277   7.581  18.503  0.00  0.00    +0.000 A 
ATOM      6  C   UNL     1       1.958   8.640  17.725  0.00  0.00    +0.000 A 
ATOM      7  C   UNL     1       1.265   9.801  18.248  0.00  0.00    +0.000 A 
ATOM      8  C   UNL     1       0.962   9.849  19.551  0.00  0.00    +0.000 A 
ATOM      9  N   UNL     1       1.246   8.769  20.350  0.00  0.00    +0.000 N 
ATOM     10  C   UNL     1       1.839   7.612  19.921  0.00  0.00    +0.000 A 
ATOM     11  O   UNL     1       1.999   6.658  20.674  0.00  0.00    +0.000 OA
ATOM     12  H   UNL     1       0.984   8.813  21.329  0.00  0.00    +0.000 HD
BRANCH   8  13
ATOM     13  C   UNL     1       0.348  10.967  20.190  0.00  0.00    +0.000 A 
ATOM     14  C   UNL     1      -0.782  11.719  19.874  0.00  0.00    +0.000 A 
ATOM     15  C   UNL     1      -0.932  12.722  20.866  0.00  0.00    +0.000 A 
ATOM     16  C   UNL     1       0.116  12.556  21.730  0.00  0.00    +0.000 A 
ATOM     17  O   UNL     1       0.887  11.517  21.341  0.00  0.00    +0.000 OA
ENDBRANCH   8  13
ENDBRANCH   2   5
BRANCH   1  23
ATOM     18  C   UNL     1       6.241   5.340  17.428  0.00  0.00    +0.000 A 
ATOM     19  C   UNL     1       7.170   4.529  16.731  0.00  0.00    +0.000 A 
ATOM     20  C   UNL     1       7.151   4.402  15.344  0.00  0.00    +0.000 A 
ATOM     21  C   UNL     1       6.189   5.072  14.614  0.00  0.00    +0.000 A 
ATOM     22  C   UNL     1       5.249   5.861  15.273  0.00  0.00    +0.000 A 
ATOM     23  C   UNL     1       5.261   6.034  16.669  0.00  0.00    +0.000 A 
BRANCH  18  25
ATOM     24  C   UNL     1       7.846   5.760  19.438  0.00  0.00    +0.000 C 
ATOM     25  C   UNL     1       6.417   5.516  18.934  0.00  0.00    +0.000 C 
BRANCH  25  26
ATOM     26  O   UNL     1       5.917   4.376  19.628  0.00  0.00    +0.000 OA
ATOM     27  H   UNL     1       5.729   4.648  20.542  0.00  0.00    +0.000 HD
ENDBRANCH  25  26
ENDBRANCH  18  25
ENDBRANCH   1  23
TORSDOF 5
ENDMDL
MODEL 4
REMARK VINA RESULT:      -7.3      1.296      1.447
REMARK  Name = 
REMARK  6 active torsions:
REMARK  status: ('A' for Active; 'I' for Inactive)
REMARK    1  A    between atoms: C_1  and  C_2
REMARK    2  A    between atoms: C_2  and  O_3
REMARK    3  A    between atoms: C_2  and  C_4
REMARK    4  A    between atoms: C_9  and  N_10
REMARK    5  A    between atoms: C_11  and  C_13
REMARK    6  A    between atoms: C_16  and  C_17
REMARK                            x       y       z     vdW  Elec       q    Type
REMARK                         _______ _______ _______ _____ _____    ______ ____
ROOT
ATOM      1  N   UNL     1       4.495   6.504  17.270  0.00  0.00    +0.000 N 
ATOM      2  C   UNL     1       3.311   6.100  17.873  0.00  0.00    +0.000 C 
ATOM      3  O   UNL     1       2.755   5.012  17.694  0.00  0.00    +0.000 OA
ATOM      4  H   UNL     1       4.823   7.461  17.448  0.00  0.00    +0.000 HD
ENDROOT
BRANCH   2   5
ATOM      5  C   UNL     1       2.646   7.074  18.790  0.00  0.00    +0.000 A 
ATOM      6  C   UNL     1       2.391   6.678  20.058  0.00  0.00    +0.000 A 
ATOM      7  C   UNL     1       1.627   7.492  20.982  0.00  0.00    +0.000 A 
ATOM      8  C   UNL     1       1.121   8.658  20.562  0.00  0.00    +0.000 A 
ATOM      9  N   UNL     1       1.398   9.094  19.289  0.00  0.00    +0.000 N 
ATOM     10  C   UNL     1       2.164   8.416  18.379  0.00  0.00    +0.000 A 
ATOM     11  O   UNL     1       2.430   8.897  17.283  0.00  0.00    +0.000 OA
ATOM     12  H   UNL     1       1.029   9.992  18.997  0.00  0.00    +0.000 HD
BRANCH   8  13
ATOM     13  C   UNL     1       0.295   9.506  21.357  0.00  0.00    +0.000 A 
ATOM     14  C   UNL     1      -0.166   9.400  22.668  0.00  0.00    +0.000 A 
ATOM     15  C   UNL     1      -0.960  10.541  22.947  0.00  0.00    +0.000 A 
ATOM     16  C   UNL     1      -0.969  11.284  21.798  0.00  0.00    +0.000 A 
ATOM     17  O   UNL     1      -0.228  10.681  20.842  0.00  0.00    +0.000 OA
ENDBRANCH   8  13
ENDBRANCH   2   5
BRANCH   1  23
ATOM     18  C   UNL     1       6.705   5.720  16.463  0.00  0.00    +0.000 A 
ATOM     19  C   UNL     1       7.430   4.963  15.511  0.00  0.00    +0.000 A 
ATOM     20  C   UNL     1       6.799   4.253  14.490  0.00  0.00    +0.000 A 
ATOM     21  C   UNL     1       5.421   4.268  14.404  0.00  0.00    +0.000 A 
ATOM     22  C   UNL     1       4.680   4.987  15.339  0.00  0.00    +0.000 A 
ATOM     23  C   UNL     1       5.288   5.739  16.361  0.00  0.00    +0.000 A 
BRANCH  18  25
ATOM     24  C   UNL     1       7.589   6.017  18.897  0.00  0.00    +0.000 C 
ATOM     25  C   UNL     1       7.486   6.564  17.467  0.00  0.00    +0.000 C 
BRANCH  25  26
ATOM     26  O   UNL     1       6.924   7.871  17.557  0.00  0.00    +0.000 OA
ATOM     27  H   UNL     1       5.999   7.812  17.265  0.00  0.00    +0.000 HD
ENDBRANCH  25  26
ENDBRANCH  18  25
ENDBRANCH   1  23
TORSDOF 5
ENDMDL
MODEL 5
REMARK VINA RESULT:      -7.3      1.736      8.301
REMARK  Name = 
REMARK  6 active torsions:
REMARK  status: ('A' for Active; 'I' for Inactive)
REMARK    1  A    between atoms: C_1  and  C_2
REMARK    2  A    between atoms: C_2  and  O_3
REMARK    3  A    between atoms: C_2  and  C_4
REMARK    4  A    between atoms: C_9  and  N_10
REMARK    5  A    between atoms: C_11  and  C_13
REMARK    6  A    between atoms: C_16  and  C_17
REMARK                            x       y       z     vdW  Elec       q    Type
REMARK                         _______ _______ _______ _____ _____    ______ ____
ROOT
ATOM      1  N   UNL     1       0.971   9.385  19.933  0.00  0.00    +0.000 N 
ATOM      2  C   UNL     1       1.343   8.082  20.237  0.00  0.00    +0.000 C 
ATOM      3  O   UNL     1       0.982   7.452  21.235  0.00  0.00    +0.000 OA
ATOM      4  H   UNL     1       1.391   9.825  19.106  0.00  0.00    +0.000 HD
ENDROOT
BRANCH   2   5
ATOM      5  C   UNL     1       2.278   7.403  19.290  0.00  0.00    +0.000 A 
ATOM      6  C   UNL     1       2.830   6.230  19.678  0.00  0.00    +0.000 A 
ATOM      7  C   UNL     1       3.854   5.564  18.898  0.00  0.00    +0.000 A 
ATOM      8  C   UNL     1       4.301   6.142  17.775  0.00  0.00    +0.000 A 
ATOM      9  N   UNL     1       3.729   7.315  17.347  0.00  0.00    +0.000 N 
ATOM     10  C   UNL     1       2.715   7.972  17.991  0.00  0.00    +0.000 A 
ATOM     11  O   UNL     1       2.202   8.979  17.515  0.00  0.00    +0.000 OA
ATOM     12  H   UNL     1       4.061   7.724  16.481  0.00  0.00    +0.000 HD
BRANCH   8  13
ATOM     13  C   UNL     1       5.353   5.617  16.968  0.00  0.00    +0.000 A 
ATOM     14  C   UNL     1       5.579   5.647  15.593  0.00  0.00    +0.000 A 
ATOM     15  C   UNL     1       6.793   4.962  15.334  0.00  0.00    +0.000 A 
ATOM     16  C   UNL     1       7.247   4.527  16.550  0.00  0.00    +0.000 A 
ATOM     17  O   UNL     1       6.400   4.908  17.532  0.00  0.00    +0.000 OA
ENDBRANCH   8  13
ENDBRANCH   2   5
BRANCH   1  23
ATOM     18  C   UNL     1      -0.796  11.121  20.060  0.00  0.00    +0.000 A 
ATOM     19  C   UNL     1      -1.614  11.937  20.880  0.00  0.00    +0.000 A 
ATOM     20  C   UNL     1      -1.562  11.879  22.272  0.00  0.00    +0.000 A 
ATOM     21  C   UNL     1      -0.700  10.991  22.883  0.00  0.00    +0.000 A 
ATOM     22  C   UNL     1       0.102  10.161  22.102  0.00  0.00    +0.000 A 
ATOM     23  C   UNL     1       0.096  10.217  20.697  0.00  0.00    +0.000 A 
BRANCH  18  25
ATOM     24  C   UNL     1      -1.613  10.314  17.720  0.00  0.00    +0.000 C 
ATOM     25  C   UNL     1      -0.832  11.342  18.550  0.00  0.00    +0.000 C 
BRANCH  25  26
ATOM     26  O   UNL     1       0.493  11.385  18.025  0.00  0.00    +0.000 OA
ATOM     27  H   UNL     1       1.050  11.844  18.675  0.00  0.00    +0.000 HD
ENDBRANCH  25  26
ENDBRANCH  18  25
ENDBRANCH   1  23
TORSDOF 5
ENDMDL
MODEL 6
REMARK VINA RESULT:      -7.2      1.672      2.502
REMARK  Name = 
REMARK  6 active torsions:
REMARK  status: ('A' for Active; 'I' for Inactive)
REMARK    1  A    between atoms: C_1  and  C_2
REMARK    2  A    between atoms: C_2  and  O_3
REMARK    3  A    between atoms: C_2  and  C_4
REMARK    4  A    between atoms: C_9  and  N_10
REMARK    5  A    between atoms: C_11  and  C_13
REMARK    6  A    between atoms: C_16  and  C_17
REMARK                            x       y       z     vdW  Elec       q    Type
REMARK                         _______ _______ _______ _____ _____    ______ ____
ROOT
ATOM      1  N   UNL     1       2.860   6.802  18.382  0.00  0.00    +0.000 N 
ATOM      2  C   UNL     1       2.440   8.074  18.015  0.00  0.00    +0.000 C 
ATOM      3  O   UNL     1       2.829   8.694  17.021  0.00  0.00    +0.000 OA
ATOM      4  H   UNL     1       2.513   6.418  19.269  0.00  0.00    +0.000 HD
ENDROOT
BRANCH   2   5
ATOM      5  C   UNL     1       1.461   8.755  18.915  0.00  0.00    +0.000 A 
ATOM      6  C   UNL     1       0.734   9.775  18.404  0.00  0.00    +0.000 A 
ATOM      7  C   UNL     1      -0.137  10.589  19.227  0.00  0.00    +0.000 A 
ATOM      8  C   UNL     1      -0.200  10.355  20.544  0.00  0.00    +0.000 A 
ATOM      9  N   UNL     1       0.503   9.302  21.076  0.00  0.00    +0.000 N 
ATOM     10  C   UNL     1       1.296   8.448  20.358  0.00  0.00    +0.000 A 
ATOM     11  O   UNL     1       1.840   7.484  20.886  0.00  0.00    +0.000 OA
ATOM     12  H   UNL     1       0.421   9.123  22.071  0.00  0.00    +0.000 HD
BRANCH   8  13
ATOM     13  C   UNL     1      -0.964  11.135  21.461  0.00  0.00    +0.000 A 
ATOM     14  C   UNL     1      -1.091  11.089  22.848  0.00  0.00    +0.000 A 
ATOM     15  C   UNL     1      -1.993  12.111  23.240  0.00  0.00    +0.000 A 
ATOM     16  C   UNL     1      -2.394  12.723  22.084  0.00  0.00    +0.000 A 
ATOM     17  O   UNL     1      -1.792  12.153  21.017  0.00  0.00    +0.000 OA
ENDBRANCH   8  13
ENDBRANCH   2   5
BRANCH   1  23
ATOM     18  C   UNL     1       3.516   4.603  17.440  0.00  0.00    +0.000 A 
ATOM     19  C   UNL     1       4.494   3.839  16.758  0.00  0.00    +0.000 A 
ATOM     20  C   UNL     1       5.698   4.391  16.324  0.00  0.00    +0.000 A 
ATOM     21  C   UNL     1       5.950   5.730  16.546  0.00  0.00    +0.000 A 
ATOM     22  C   UNL     1       4.998   6.512  17.197  0.00  0.00    +0.000 A 
ATOM     23  C   UNL     1       3.788   5.978  17.675  0.00  0.00    +0.000 A 
BRANCH  18  25
ATOM     24  C   UNL     1       2.298   2.351  17.929  0.00  0.00    +0.000 C 
ATOM     25  C   UNL     1       2.285   3.885  17.988  0.00  0.00    +0.000 C 
BRANCH  25  26
ATOM     26  O   UNL     1       1.113   4.320  17.303  0.00  0.00    +0.000 OA
ATOM     27  H   UNL     1       1.313   4.320  16.352  0.00  0.00    +0.000 HD
ENDBRANCH  25  26
ENDBRANCH  18  25
ENDBRANCH   1  23
TORSDOF 5
ENDMDL
MODEL 7
REMARK VINA RESULT:      -7.2      1.671      2.262
REMARK  Name = 
REMARK  6 active torsions:
REMARK  status: ('A' for Active; 'I' for Inactive)
REMARK    1  A    between atoms: C_1  and  C_2
REMARK    2  A    between atoms: C_2  and  O_3
REMARK    3  A    between atoms: C_2  and  C_4
REMARK    4  A    between atoms: C_9  and  N_10
REMARK    5  A    between atoms: C_11  and  C_13
REMARK    6  A    between atoms: C_16  and  C_17
REMARK                            x       y       z     vdW  Elec       q    Type
REMARK                         _______ _______ _______ _____ _____    ______ ____
ROOT
ATOM      1  N   UNL     1       4.401   6.126  16.889  0.00  0.00    +0.000 N 
ATOM      2  C   UNL     1       3.806   5.565  18.011  0.00  0.00    +0.000 C 
ATOM      3  O   UNL     1       3.962   4.402  18.393  0.00  0.00    +0.000 OA
ATOM      4  H   UNL     1       4.140   7.087  16.636  0.00  0.00    +0.000 HD
ENDROOT
BRANCH   2   5
ATOM      5  C   UNL     1       2.883   6.435  18.801  0.00  0.00    +0.000 A 
ATOM      6  C   UNL     1       2.561   7.645  18.289  0.00  0.00    +0.000 A 
ATOM      7  C   UNL     1       1.790   8.619  19.036  0.00  0.00    +0.000 A 
ATOM      8  C   UNL     1       1.415   8.333  20.289  0.00  0.00    +0.000 A 
ATOM      9  N   UNL     1       1.703   7.097  20.814  0.00  0.00    +0.000 N 
ATOM     10  C   UNL     1       2.368   6.101  20.152  0.00  0.00    +0.000 A 
ATOM     11  O   UNL     1       2.530   4.995  20.656  0.00  0.00    +0.000 OA
ATOM     12  H   UNL     1       1.387   6.889  21.755  0.00  0.00    +0.000 HD
BRANCH   8  13
ATOM     13  C   UNL     1       0.719   9.239  21.143  0.00  0.00    +0.000 A 
ATOM     14  C   UNL     1       0.178   9.092  22.419  0.00  0.00    +0.000 A 
ATOM     15  C   UNL     1      -0.405  10.329  22.792  0.00  0.00    +0.000 A 
ATOM     16  C   UNL     1      -0.216  11.171  21.731  0.00  0.00    +0.000 A 
ATOM     17  O   UNL     1       0.450  10.537  20.741  0.00  0.00    +0.000 OA
ENDBRANCH   8  13
ENDBRANCH   2   5
BRANCH   1  23
ATOM     18  C   UNL     1       6.711   5.619  16.144  0.00  0.00    +0.000 A 
ATOM     19  C   UNL     1       7.549   4.972  15.203  0.00  0.00    +0.000 A 
ATOM     20  C   UNL     1       7.038   4.218  14.149  0.00  0.00    +0.000 A 
ATOM     21  C   UNL     1       5.671   4.076  14.016  0.00  0.00    +0.000 A 
ATOM     22  C   UNL     1       4.822   4.685  14.938  0.00  0.00    +0.000 A 
ATOM     23  C   UNL     1       5.306   5.478  15.994  0.00  0.00    +0.000 A 
BRANCH  18  25
ATOM     24  C   UNL     1       7.441   5.977  18.621  0.00  0.00    +0.000 C 
ATOM     25  C   UNL     1       7.357   6.525  17.189  0.00  0.00    +0.000 C 
BRANCH  25  26
ATOM     26  O   UNL     1       6.669   7.771  17.258  0.00  0.00    +0.000 OA
ATOM     27  H   UNL     1       6.096   7.832  16.475  0.00  0.00    +0.000 HD
ENDBRANCH  25  26
ENDBRANCH  18  25
ENDBRANCH   1  23
TORSDOF 5
ENDMDL
MODEL 8
REMARK VINA RESULT:      -7.2      1.672      8.220
REMARK  Name = 
REMARK  6 active torsions:
REMARK  status: ('A' for Active; 'I' for Inactive)
REMARK    1  A    between atoms: C_1  and  C_2
REMARK    2  A    between atoms: C_2  and  O_3
REMARK    3  A    between atoms: C_2  and  C_4
REMARK    4  A    between atoms: C_9  and  N_10
REMARK    5  A    between atoms: C_11  and  C_13
REMARK    6  A    between atoms: C_16  and  C_17
REMARK                            x       y       z     vdW  Elec       q    Type
REMARK                         _______ _______ _______ _____ _____    ______ ____
ROOT
ATOM      1  N   UNL     1       1.416   8.642  19.948  0.00  0.00    +0.000 N 
ATOM      2  C   UNL     1       1.756   7.297  20.020  0.00  0.00    +0.000 C 
ATOM      3  O   UNL     1       1.445   6.532  20.936  0.00  0.00    +0.000 OA
ATOM      4  H   UNL     1       1.792   9.192  19.166  0.00  0.00    +0.000 HD
ENDROOT
BRANCH   2   5
ATOM      5  C   UNL     1       2.589   6.744  18.909  0.00  0.00    +0.000 A 
ATOM      6  C   UNL     1       3.004   5.461  19.008  0.00  0.00    +0.000 A 
ATOM      7  C   UNL     1       3.929   4.874  18.058  0.00  0.00    +0.000 A 
ATOM      8  C   UNL     1       4.422   5.633  17.072  0.00  0.00    +0.000 A 
ATOM      9  N   UNL     1       3.986   6.928  16.935  0.00  0.00    +0.000 N 
ATOM     10  C   UNL     1       3.068   7.535  17.749  0.00  0.00    +0.000 A 
ATOM     11  O   UNL     1       2.671   8.674  17.526  0.00  0.00    +0.000 OA
ATOM     12  H   UNL     1       4.351   7.479  16.165  0.00  0.00    +0.000 HD
BRANCH   8  13
ATOM     13  C   UNL     1       5.391   5.186  16.126  0.00  0.00    +0.000 A 
ATOM     14  C   UNL     1       5.304   4.324  15.035  0.00  0.00    +0.000 A 
ATOM     15  C   UNL     1       6.588   4.238  14.439  0.00  0.00    +0.000 A 
ATOM     16  C   UNL     1       7.407   5.030  15.196  0.00  0.00    +0.000 A 
ATOM     17  O   UNL     1       6.711   5.601  16.204  0.00  0.00    +0.000 OA
ENDBRANCH   8  13
ENDBRANCH   2   5
BRANCH   1  23
ATOM     18  C   UNL     1      -0.187  10.455  20.489  0.00  0.00    +0.000 A 
ATOM     19  C   UNL     1      -0.910  11.153  21.487  0.00  0.00    +0.000 A 
ATOM     20  C   UNL     1      -0.830  10.813  22.836  0.00  0.00    +0.000 A 
ATOM     21  C   UNL     1      -0.036   9.752  23.223  0.00  0.00    +0.000 A 
ATOM     22  C   UNL     1       0.672   9.035  22.261  0.00  0.00    +0.000 A 
ATOM     23  C   UNL     1       0.637   9.372  20.896  0.00  0.00    +0.000 A 
BRANCH  18  25
ATOM     24  C   UNL     1      -1.135  10.209  18.073  0.00  0.00    +0.000 C 
ATOM     25  C   UNL     1      -0.240  10.977  19.055  0.00  0.00    +0.000 C 
BRANCH  25  26
ATOM     26  O   UNL     1       1.070  11.008  18.492  0.00  0.00    +0.000 OA
ATOM     27  H   UNL     1       1.703  10.886  19.219  0.00  0.00    +0.000 HD
ENDBRANCH  25  26
ENDBRANCH  18  25
ENDBRANCH   1  23
TORSDOF 5
ENDMDL
MODEL 9
REMARK VINA RESULT:      -7.2      1.497      2.140
REMARK  Name = 
REMARK  6 active torsions:
REMARK  status: ('A' for Active; 'I' for Inactive)
REMARK    1  A    between atoms: C_1  and  C_2
REMARK    2  A    between atoms: C_2  and  O_3
REMARK    3  A    between atoms: C_2  and  C_4
REMARK    4  A    between atoms: C_9  and  N_10
REMARK    5  A    between atoms: C_11  and  C_13
REMARK    6  A    between atoms: C_16  and  C_17
REMARK                            x       y       z     vdW  Elec       q    Type
REMARK                         _______ _______ _______ _____ _____    ______ ____
ROOT
ATOM      1  N   UNL     1       4.192   6.112  17.925  0.00  0.00    +0.000 N 
ATOM      2  C   UNL     1       3.497   7.246  17.525  0.00  0.00    +0.000 C 
ATOM      3  O   UNL     1       3.641   7.826  16.446  0.00  0.00    +0.000 OA
ATOM      4  H   UNL     1       4.032   5.760  18.877  0.00  0.00    +0.000 HD
ENDROOT
BRANCH   2   5
ATOM      5  C   UNL     1       2.518   7.822  18.496  0.00  0.00    +0.000 A 
ATOM      6  C   UNL     1       1.955   9.015  18.194  0.00  0.00    +0.000 A 
ATOM      7  C   UNL     1       1.104   9.725  19.128  0.00  0.00    +0.000 A 
ATOM      8  C   UNL     1       0.897   9.208  20.346  0.00  0.00    +0.000 A 
ATOM      9  N   UNL     1       1.432   7.983  20.659  0.00  0.00    +0.000 N 
ATOM     10  C   UNL     1       2.190   7.221  19.812  0.00  0.00    +0.000 A 
ATOM     11  O   UNL     1       2.577   6.102  20.132  0.00  0.00    +0.000 OA
ATOM     12  H   UNL     1       1.241   7.595  21.576  0.00  0.00    +0.000 HD
BRANCH   8  13
ATOM     13  C   UNL     1       0.140   9.851  21.371  0.00  0.00    +0.000 A 
ATOM     14  C   UNL     1      -0.282   9.423  22.628  0.00  0.00    +0.000 A 
ATOM     15  C   UNL     1      -1.009  10.482  23.229  0.00  0.00    +0.000 A 
ATOM     16  C   UNL     1      -1.018  11.500  22.315  0.00  0.00    +0.000 A 
ATOM     17  O   UNL     1      -0.339  11.139  21.203  0.00  0.00    +0.000 OA
ENDBRANCH   8  13
ENDBRANCH   2   5
BRANCH   1  23
ATOM     18  C   UNL     1       6.558   5.646  17.346  0.00  0.00    +0.000 A 
ATOM     19  C   UNL     1       7.471   4.929  16.536  0.00  0.00    +0.000 A 
ATOM     20  C   UNL     1       7.050   4.012  15.575  0.00  0.00    +0.000 A 
ATOM     21  C   UNL     1       5.700   3.774  15.409  0.00  0.00    +0.000 A 
ATOM     22  C   UNL     1       4.779   4.450  16.206  0.00  0.00    +0.000 A 
ATOM     23  C   UNL     1       5.171   5.404  17.162  0.00  0.00    +0.000 A 
BRANCH  18  25
ATOM     24  C   UNL     1       7.743   7.951  17.624  0.00  0.00    +0.000 C 
ATOM     25  C   UNL     1       7.107   6.720  18.283  0.00  0.00    +0.000 C 
BRANCH  25  26
ATOM     26  O   UNL     1       8.084   6.161  19.158  0.00  0.00    +0.000 OA
ATOM     27  H   UNL     1       8.245   5.247  18.870  0.00  0.00    +0.000 HD
ENDBRANCH  25  26
ENDBRANCH  18  25
ENDBRANCH   1  23
TORSDOF 5
ENDMDL
