MODEL 1
REMARK VINA RESULT:      -7.2      0.000      0.000
REMARK  Name = 
REMARK  4 active torsions:
REMARK  status: ('A' for Active; 'I' for Inactive)
REMARK    1  A    between atoms: C_1  and  O_2
REMARK    2  A    between atoms: O_2  and  C_3
REMARK    3  A    between atoms: C_11  and  O_12
REMARK    4  A    between atoms: O_12  and  C_13
REMARK                            x       y       z     vdW  Elec       q    Type
REMARK                         _______ _______ _______ _____ _____    ______ ____
ROOT
ATOM      1  C   UNL     1       6.021   6.135  16.431  0.00  0.00    +0.000 A 
ATOM      2  C   UNL     1       4.936   5.683  17.100  0.00  0.00    +0.000 A 
ATOM      3  N   UNL     1       4.275   6.484  18.034  0.00  0.00    +0.000 N 
ATOM      4  C   UNL     1       3.302   5.959  18.783  0.00  0.00    +0.000 A 
ATOM      5  O   UNL     1       2.725   6.632  19.798  0.00  0.00    +0.000 OA
ATOM      6  C   UNL     1       1.829   5.755  20.345  0.00  0.00    +0.000 A 
ATOM      7  C   UNL     1       1.838   4.549  19.670  0.00  0.00    +0.000 A 
ATOM      8  C   UNL     1       2.806   4.690  18.657  0.00  0.00    +0.000 A 
ATOM      9  C   UNL     1       3.353   3.832  17.643  0.00  0.00    +0.000 A 
ATOM     10  C   UNL     1       4.413   4.275  16.886  0.00  0.00    +0.000 A 
ATOM     11  C   UNL     1       5.122   3.429  15.937  0.00  0.00    +0.000 A 
ATOM     12  C   UNL     1       6.196   3.864  15.271  0.00  0.00    +0.000 A 
ATOM     13  C   UNL     1       6.738   5.225  15.471  0.00  0.00    +0.000 A 
ATOM     14  O   UNL     1       7.755   5.541  14.861  0.00  0.00    +0.000 OA
ATOM     15  H   UNL     1       4.681   7.394  18.223  0.00  0.00    +0.000 HD
ENDROOT
BRANCH   1  17
ATOM     16  C   UNL     1       7.602   7.493  17.604  0.00  0.00    +0.000 C 
ATOM     17  O   UNL     1       6.487   7.418  16.727  0.00  0.00    +0.000 OA
ENDBRANCH   1  17
BRANCH   9  18
ATOM     18  O   UNL     1       2.753   2.593  17.659  0.00  0.00    +0.000 OA
ATOM     19  C   UNL     1       3.346   1.542  18.409  0.00  0.00    +0.000 C 
ENDBRANCH   9  18
TORSDOF 2
ENDMDL
MODEL 2
REMARK VINA RESULT:      -7.0      2.123      5.126
REMARK  Name = 
REMARK  4 active torsions:
REMARK  status: ('A' for Active; 'I' for Inactive)
REMARK    1  A    between atoms: C_1  and  O_2
REMARK    2  A    between atoms: O_2  and  C_3
REMARK    3  A    between atoms: C_11  and  O_12
REMARK    4  A    between atoms: O_12  and  C_13
REMARK                            x       y       z     vdW  Elec       q    Type
REMARK                         _______ _______ _______ _____ _____    ______ ____
ROOT
ATOM      1  C   UNL     1       3.280   2.968  19.495  0.00  0.00    +0.000 A 
ATOM      2  C   UNL     1       4.287   3.687  18.948  0.00  0.00    +0.000 A 
ATOM      3  N   UNL     1       5.389   4.085  19.707  0.00  0.00    +0.000 N 
ATOM      4  C   UNL     1       6.290   4.918  19.179  0.00  0.00    +0.000 A 
ATOM      5  O   UNL     1       7.295   5.452  19.901  0.00  0.00    +0.000 OA
ATOM      6  C   UNL     1       7.958   6.277  19.035  0.00  0.00    +0.000 A 
ATOM      7  C   UNL     1       7.380   6.249  17.780  0.00  0.00    +0.000 A 
ATOM      8  C   UNL     1       6.289   5.363  17.885  0.00  0.00    +0.000 A 
ATOM      9  C   UNL     1       5.252   4.914  17.000  0.00  0.00    +0.000 A 
ATOM     10  C   UNL     1       4.242   4.119  17.494  0.00  0.00    +0.000 A 
ATOM     11  C   UNL     1       3.078   3.733  16.711  0.00  0.00    +0.000 A 
ATOM     12  C   UNL     1       2.077   3.023  17.240  0.00  0.00    +0.000 A 
ATOM     13  C   UNL     1       2.085   2.603  18.658  0.00  0.00    +0.000 A 
ATOM     14  O   UNL     1       1.110   1.994  19.089  0.00  0.00    +0.000 OA
ATOM     15  H   UNL     1       5.369   3.856  20.695  0.00  0.00    +0.000 HD
ENDROOT
BRANCH   1  17
ATOM     16  C   UNL     1       2.392   3.286  21.692  0.00  0.00    +0.000 C 
ATOM     17  O   UNL     1       3.357   2.663  20.855  0.00  0.00    +0.000 OA
ENDBRANCH   1  17
BRANCH   9  18
ATOM     18  O   UNL     1       5.391   5.462  15.745  0.00  0.00    +0.000 OA
ATOM     19  C   UNL     1       6.025   4.707  14.722  0.00  0.00    +0.000 C 
ENDBRANCH   9  18
TORSDOF 2
ENDMDL
MODEL 3
REMARK VINA RESULT:      -6.8      1.515      3.346
REMARK  Name = 
REMARK  4 active torsions:
REMARK  status: ('A' for Active; 'I' for Inactive)
REMARK    1  A    between atoms: C_1  and  O_2
REMARK    2  A    between atoms: O_2  and  C_3
REMARK    3  A    between atoms: C_11  and  O_12
REMARK    4  A    between atoms: O_12  and  C_13
REMARK                            x       y       z     vdW  Elec       q    Type
REMARK                         _______ _______ _______ _____ _____    ______ ____
ROOT
ATOM      1  C   UNL     1       6.015   4.387  16.180  0.00  0.00    +0.000 A 
ATOM      2  C   UNL     1       5.015   4.213  17.074  0.00  0.00    +0.000 A 
ATOM      3  N   UNL     1       4.210   3.071  17.047  0.00  0.00    +0.000 N 
ATOM      4  C   UNL     1       3.141   2.998  17.844  0.00  0.00    +0.000 A 
ATOM      5  O   UNL     1       2.246   1.993  17.766  0.00  0.00    +0.000 OA
ATOM      6  C   UNL     1       1.287   2.297  18.692  0.00  0.00    +0.000 A 
ATOM      7  C   UNL     1       1.586   3.473  19.353  0.00  0.00    +0.000 A 
ATOM      8  C   UNL     1       2.795   3.926  18.788  0.00  0.00    +0.000 A 
ATOM      9  C   UNL     1       3.632   5.080  18.961  0.00  0.00    +0.000 A 
ATOM     10  C   UNL     1       4.706   5.266  18.122  0.00  0.00    +0.000 A 
ATOM     11  C   UNL     1       5.524   6.470  18.128  0.00  0.00    +0.000 A 
ATOM     12  C   UNL     1       6.514   6.655  17.250  0.00  0.00    +0.000 A 
ATOM     13  C   UNL     1       6.826   5.654  16.208  0.00  0.00    +0.000 A 
ATOM     14  O   UNL     1       7.718   5.910  15.405  0.00  0.00    +0.000 OA
ATOM     15  H   UNL     1       4.378   2.413  16.294  0.00  0.00    +0.000 HD
ENDROOT
BRANCH   1  17
ATOM     16  C   UNL     1       5.889   3.787  13.868  0.00  0.00    +0.000 C 
ATOM     17  O   UNL     1       6.199   3.408  15.202  0.00  0.00    +0.000 OA
ENDBRANCH   1  17
BRANCH   9  18
ATOM     18  O   UNL     1       3.138   5.915  19.939  0.00  0.00    +0.000 OA
ATOM     19  C   UNL     1       2.342   7.030  19.564  0.00  0.00    +0.000 C 
ENDBRANCH   9  18
TORSDOF 2
ENDMDL
MODEL 4
REMARK VINA RESULT:      -6.8      2.213      5.238
REMARK  Name = 
REMARK  4 active torsions:
REMARK  status: ('A' for Active; 'I' for Inactive)
REMARK    1  A    between atoms: C_1  and  O_2
REMARK    2  A    between atoms: O_2  and  C_3
REMARK    3  A    between atoms: C_11  and  O_12
REMARK    4  A    between atoms: O_12  and  C_13
REMARK                            x       y       z     vdW  Elec       q    Type
REMARK                         _______ _______ _______ _____ _____    ______ ____
ROOT
ATOM      1  C   UNL     1       3.688   2.700  18.891  0.00  0.00    +0.000 A 
ATOM      2  C   UNL     1       4.303   3.810  18.424  0.00  0.00    +0.000 A 
ATOM      3  N   UNL     1       5.694   3.941  18.469  0.00  0.00    +0.000 N 
ATOM      4  C   UNL     1       6.258   5.105  18.140  0.00  0.00    +0.000 A 
ATOM      5  O   UNL     1       7.576   5.342  18.297  0.00  0.00    +0.000 OA
ATOM      6  C   UNL     1       7.755   6.640  17.904  0.00  0.00    +0.000 A 
ATOM      7  C   UNL     1       6.563   7.204  17.492  0.00  0.00    +0.000 A 
ATOM      8  C   UNL     1       5.591   6.197  17.655  0.00  0.00    +0.000 A 
ATOM      9  C   UNL     1       4.170   6.112  17.471  0.00  0.00    +0.000 A 
ATOM     10  C   UNL     1       3.506   4.972  17.863  0.00  0.00    +0.000 A 
ATOM     11  C   UNL     1       2.056   4.850  17.848  0.00  0.00    +0.000 A 
ATOM     12  C   UNL     1       1.436   3.759  18.307  0.00  0.00    +0.000 A 
ATOM     13  C   UNL     1       2.186   2.618  18.874  0.00  0.00    +0.000 A 
ATOM     14  O   UNL     1       1.549   1.668  19.320  0.00  0.00    +0.000 OA
ATOM     15  H   UNL     1       6.208   3.189  18.916  0.00  0.00    +0.000 HD
ENDROOT
BRANCH   1  17
ATOM     16  C   UNL     1       4.625   1.732  20.867  0.00  0.00    +0.000 C 
ATOM     17  O   UNL     1       4.481   1.697  19.453  0.00  0.00    +0.000 OA
ENDBRANCH   1  17
BRANCH   9  18
ATOM     18  O   UNL     1       3.656   7.295  16.989  0.00  0.00    +0.000 OA
ATOM     19  C   UNL     1       2.905   8.132  17.857  0.00  0.00    +0.000 C 
ENDBRANCH   9  18
TORSDOF 2
ENDMDL
MODEL 5
REMARK VINA RESULT:      -6.6      1.979      5.646
REMARK  Name = 
REMARK  4 active torsions:
REMARK  status: ('A' for Active; 'I' for Inactive)
REMARK    1  A    between atoms: C_1  and  O_2
REMARK    2  A    between atoms: O_2  and  C_3
REMARK    3  A    between atoms: C_11  and  O_12
REMARK    4  A    between atoms: O_12  and  C_13
REMARK                            x       y       z     vdW  Elec       q    Type
REMARK                         _______ _______ _______ _____ _____    ______ ____
ROOT
ATOM      1  C   UNL     1       3.109   3.301  19.842  0.00  0.00    +0.000 A 
ATOM      2  C   UNL     1       3.465   4.174  18.873  0.00  0.00    +0.000 A 
ATOM      3  N   UNL     1       4.239   3.770  17.782  0.00  0.00    +0.000 N 
ATOM      4  C   UNL     1       4.697   4.683  16.922  0.00  0.00    +0.000 A 
ATOM      5  O   UNL     1       5.563   4.380  15.935  0.00  0.00    +0.000 OA
ATOM      6  C   UNL     1       5.830   5.570  15.316  0.00  0.00    +0.000 A 
ATOM      7  C   UNL     1       5.127   6.605  15.902  0.00  0.00    +0.000 A 
ATOM      8  C   UNL     1       4.395   6.018  16.953  0.00  0.00    +0.000 A 
ATOM      9  C   UNL     1       3.514   6.503  17.977  0.00  0.00    +0.000 A 
ATOM     10  C   UNL     1       3.065   5.636  18.947  0.00  0.00    +0.000 A 
ATOM     11  C   UNL     1       2.288   6.064  20.101  0.00  0.00    +0.000 A 
ATOM     12  C   UNL     1       1.931   5.212  21.066  0.00  0.00    +0.000 A 
ATOM     13  C   UNL     1       2.320   3.786  21.028  0.00  0.00    +0.000 A 
ATOM     14  O   UNL     1       1.998   3.070  21.972  0.00  0.00    +0.000 OA
ATOM     15  H   UNL     1       4.563   2.809  17.784  0.00  0.00    +0.000 HD
ENDROOT
BRANCH   1  17
ATOM     16  C   UNL     1       4.748   1.677  20.470  0.00  0.00    +0.000 C 
ATOM     17  O   UNL     1       3.568   1.986  19.742  0.00  0.00    +0.000 OA
ENDBRANCH   1  17
BRANCH   9  18
ATOM     18  O   UNL     1       3.325   7.863  17.872  0.00  0.00    +0.000 OA
ATOM     19  C   UNL     1       2.013   8.369  17.670  0.00  0.00    +0.000 C 
ENDBRANCH   9  18
TORSDOF 2
ENDMDL
MODEL 6
REMARK VINA RESULT:      -6.5      2.004      3.554
REMARK  Name = 
REMARK  4 active torsions:
REMARK  status: ('A' for Active; 'I' for Inactive)
REMARK    1  A    between atoms: C_1  and  O_2
REMARK    2  A    between atoms: O_2  and  C_3
REMARK    3  A    between atoms: C_11  and  O_12
REMARK    4  A    between atoms: O_12  and  C_13
REMARK                            x       y       z     vdW  Elec       q    Type
REMARK                         _______ _______ _______ _____ _____    ______ ____
ROOT
ATOM      1  C   UNL     1       5.100   5.272  17.355  0.00  0.00    +0.000 A 
ATOM      2  C   UNL     1       4.320   5.020  18.430  0.00  0.00    +0.000 A 
ATOM      3  N   UNL     1       4.454   3.838  19.162  0.00  0.00    +0.000 N 
ATOM      4  C   UNL     1       3.573   3.552  20.123  0.00  0.00    +0.000 A 
ATOM      5  O   UNL     1       3.560   2.368  20.767  0.00  0.00    +0.000 OA
ATOM      6  C   UNL     1       2.498   2.439  21.625  0.00  0.00    +0.000 A 
ATOM      7  C   UNL     1       1.860   3.661  21.528  0.00  0.00    +0.000 A 
ATOM      8  C   UNL     1       2.565   4.378  20.542  0.00  0.00    +0.000 A 
ATOM      9  C   UNL     1       2.423   5.664  19.918  0.00  0.00    +0.000 A 
ATOM     10  C   UNL     1       3.243   5.997  18.865  0.00  0.00    +0.000 A 
ATOM     11  C   UNL     1       3.081   7.213  18.082  0.00  0.00    +0.000 A 
ATOM     12  C   UNL     1       3.845   7.474  17.018  0.00  0.00    +0.000 A 
ATOM     13  C   UNL     1       4.890   6.533  16.561  0.00  0.00    +0.000 A 
ATOM     14  O   UNL     1       5.522   6.814  15.547  0.00  0.00    +0.000 OA
ATOM     15  H   UNL     1       5.125   3.160  18.814  0.00  0.00    +0.000 HD
ENDROOT
BRANCH   1  17
ATOM     16  C   UNL     1       7.384   4.564  17.296  0.00  0.00    +0.000 C 
ATOM     17  O   UNL     1       6.025   4.299  16.973  0.00  0.00    +0.000 OA
ENDBRANCH   1  17
BRANCH   9  18
ATOM     18  O   UNL     1       1.359   6.361  20.446  0.00  0.00    +0.000 OA
ATOM     19  C   UNL     1       1.572   7.664  20.969  0.00  0.00    +0.000 C 
ENDBRANCH   9  18
TORSDOF 2
ENDMDL
MODEL 7
REMARK VINA RESULT:      -6.5      2.260      5.592
REMARK  Name = 
REMARK  4 active torsions:
REMARK  status: ('A' for Active; 'I' for Inactive)
REMARK    1  A    between atoms: C_1  and  O_2
REMARK    2  A    between atoms: O_2  and  C_3
REMARK    3  A    between atoms: C_11  and  O_12
REMARK    4  A    between atoms: O_12  and  C_13
REMARK                            x       y       z     vdW  Elec       q    Type
REMARK                         _______ _______ _______ _____ _____    ______ ____
ROOT
ATOM      1  C   UNL     1       3.878   2.851  20.504  0.00  0.00    +0.000 A 
ATOM      2  C   UNL     1       4.203   3.721  19.522  0.00  0.00    +0.000 A 
ATOM      3  N   UNL     1       5.482   3.735  18.959  0.00  0.00    +0.000 N 
ATOM      4  C   UNL     1       5.815   4.701  18.099  0.00  0.00    +0.000 A 
ATOM      5  O   UNL     1       7.070   4.854  17.633  0.00  0.00    +0.000 OA
ATOM      6  C   UNL     1       7.021   5.964  16.834  0.00  0.00    +0.000 A 
ATOM      7  C   UNL     1       5.744   6.490  16.792  0.00  0.00    +0.000 A 
ATOM      8  C   UNL     1       4.966   5.663  17.625  0.00  0.00    +0.000 A 
ATOM      9  C   UNL     1       3.599   5.656  18.066  0.00  0.00    +0.000 A 
ATOM     10  C   UNL     1       3.201   4.741  19.013  0.00  0.00    +0.000 A 
ATOM     11  C   UNL     1       1.880   4.749  19.623  0.00  0.00    +0.000 A 
ATOM     12  C   UNL     1       1.546   3.895  20.595  0.00  0.00    +0.000 A 
ATOM     13  C   UNL     1       2.507   2.902  21.122  0.00  0.00    +0.000 A 
ATOM     14  O   UNL     1       2.148   2.181  22.047  0.00  0.00    +0.000 OA
ATOM     15  H   UNL     1       6.163   3.100  19.361  0.00  0.00    +0.000 HD
ENDROOT
BRANCH   1  17
ATOM     16  C   UNL     1       4.983   0.741  20.291  0.00  0.00    +0.000 C 
ATOM     17  O   UNL     1       4.870   1.985  20.969  0.00  0.00    +0.000 OA
ENDBRANCH   1  17
BRANCH   9  18
ATOM     18  O   UNL     1       2.887   6.692  17.505  0.00  0.00    +0.000 OA
ATOM     19  C   UNL     1       2.664   7.874  18.262  0.00  0.00    +0.000 C 
ENDBRANCH   9  18
TORSDOF 2
ENDMDL
MODEL 8
REMARK VINA RESULT:      -6.4      1.548      4.844
REMARK  Name = 
REMARK  4 active torsions:
REMARK  status: ('A' for Active; 'I' for Inactive)
REMARK    1  A    between atoms: C_1  and  O_2
REMARK    2  A    between atoms: O_2  and  C_3
REMARK    3  A    between atoms: C_11  and  O_12
REMARK    4  A    between atoms: O_12  and  C_13
REMARK                            x       y       z     vdW  Elec       q    Type
REMARK                         _______ _______ _______ _____ _____    ______ ____
ROOT
ATOM      1  C   UNL     1       2.616   7.422  19.064  0.00  0.00    +0.000 A 
ATOM      2  C   UNL     1       3.378   6.525  18.399  0.00  0.00    +0.000 A 
ATOM      3  N   UNL     1       4.123   6.896  17.277  0.00  0.00    +0.000 N 
ATOM      4  C   UNL     1       4.744   5.959  16.556  0.00  0.00    +0.000 A 
ATOM      5  O   UNL     1       5.357   6.232  15.388  0.00  0.00    +0.000 OA
ATOM      6  C   UNL     1       5.819   5.026  14.937  0.00  0.00    +0.000 A 
ATOM      7  C   UNL     1       5.508   4.011  15.822  0.00  0.00    +0.000 A 
ATOM      8  C   UNL     1       4.802   4.629  16.873  0.00  0.00    +0.000 A 
ATOM      9  C   UNL     1       4.155   4.176  18.072  0.00  0.00    +0.000 A 
ATOM     10  C   UNL     1       3.427   5.069  18.824  0.00  0.00    +0.000 A 
ATOM     11  C   UNL     1       2.624   4.675  19.972  0.00  0.00    +0.000 A 
ATOM     12  C   UNL     1       1.867   5.552  20.638  0.00  0.00    +0.000 A 
ATOM     13  C   UNL     1       1.787   6.973  20.236  0.00  0.00    +0.000 A 
ATOM     14  O   UNL     1       1.035   7.712  20.864  0.00  0.00    +0.000 OA
ATOM     15  H   UNL     1       4.021   7.854  16.959  0.00  0.00    +0.000 HD
ENDROOT
BRANCH   1  17
ATOM     16  C   UNL     1       1.412   9.075  17.824  0.00  0.00    +0.000 C 
ATOM     17  O   UNL     1       2.567   8.730  18.577  0.00  0.00    +0.000 OA
ENDBRANCH   1  17
BRANCH   9  18
ATOM     18  O   UNL     1       4.299   2.816  18.234  0.00  0.00    +0.000 OA
ATOM     19  C   UNL     1       3.220   1.957  17.894  0.00  0.00    +0.000 C 
ENDBRANCH   9  18
TORSDOF 2
ENDMDL
MODEL 9
REMARK VINA RESULT:      -6.3      2.125      2.473
REMARK  Name = 
REMARK  4 active torsions:
REMARK  status: ('A' for Active; 'I' for Inactive)
REMARK    1  A    between atoms: C_1  and  O_2
REMARK    2  A    between atoms: O_2  and  C_3
REMARK    3  A    between atoms: C_11  and  O_12
REMARK    4  A    between atoms: O_12  and  C_13
REMARK                            x       y       z     vdW  Elec       q    Type
REMARK                         _______ _______ _______ _____ _____    ______ ____
ROOT
ATOM      1  C   UNL     1       6.790   4.595  17.406  0.00  0.00    +0.000 A 
ATOM      2  C   UNL     1       5.635   4.154  17.954  0.00  0.00    +0.000 A 
ATOM      3  N   UNL     1       5.577   3.735  19.285  0.00  0.00    +0.000 N 
ATOM      4  C   UNL     1       4.463   3.167  19.752  0.00  0.00    +0.000 A 
ATOM      5  O   UNL     1       4.390   2.613  20.978  0.00  0.00    +0.000 OA
ATOM      6  C   UNL     1       3.125   2.099  21.064  0.00  0.00    +0.000 A 
ATOM      7  C   UNL     1       2.410   2.342  19.906  0.00  0.00    +0.000 A 
ATOM      8  C   UNL     1       3.293   3.034  19.054  0.00  0.00    +0.000 A 
ATOM      9  C   UNL     1       3.228   3.539  17.712  0.00  0.00    +0.000 A 
ATOM     10  C   UNL     1       4.361   4.065  17.134  0.00  0.00    +0.000 A 
ATOM     11  C   UNL     1       4.429   4.470  15.738  0.00  0.00    +0.000 A 
ATOM     12  C   UNL     1       5.564   4.907  15.185  0.00  0.00    +0.000 A 
ATOM     13  C   UNL     1       6.824   4.988  15.954  0.00  0.00    +0.000 A 
ATOM     14  O   UNL     1       7.839   5.353  15.370  0.00  0.00    +0.000 OA
ATOM     15  H   UNL     1       6.452   3.727  19.798  0.00  0.00    +0.000 HD
ENDROOT
BRANCH   1  17
ATOM     16  C   UNL     1       8.116   5.709  19.056  0.00  0.00    +0.000 C 
ATOM     17  O   UNL     1       7.938   4.587  18.201  0.00  0.00    +0.000 OA
ENDBRANCH   1  17
BRANCH   9  18
ATOM     18  O   UNL     1       1.990   3.316  17.151  0.00  0.00    +0.000 OA
ATOM     19  C   UNL     1       0.958   4.272  17.341  0.00  0.00    +0.000 C 
ENDBRANCH   9  18
TORSDOF 2
ENDMDL
