MODEL 1
REMARK VINA RESULT:      -7.3      0.000      0.000
REMARK  Name = 
REMARK  2 active torsions:
REMARK  status: ('A' for Active; 'I' for Inactive)
REMARK    1  A    between atoms: C_4  and  C_5
REMARK    2  A    between atoms: C_12  and  N_13
REMARK                            x       y       z     vdW  Elec       q    Type
REMARK                         _______ _______ _______ _____ _____    ______ ____
ROOT
ATOM      1  C   UNL     1       3.929   5.436  18.378  0.00  0.00    +0.000 A 
ATOM      2  C   UNL     1       3.365   4.616  19.335  0.00  0.00    +0.000 A 
ATOM      3  S   UNL     1       2.198   5.466  20.225  0.00  0.00    +0.000 S 
ATOM      4  C   UNL     1       2.520   6.905  19.304  0.00  0.00    +0.000 A 
ATOM      5  N   UNL     1       1.808   8.055  19.505  0.00  0.00    +0.000 N 
ATOM      6  C   UNL     1       1.355   8.433  20.841  0.00  0.00    +0.000 C 
ATOM      7  C   UNL     1      -0.025   9.071  20.740  0.00  0.00    +0.000 C 
ATOM      8  C   UNL     1      -0.086  10.199  19.703  0.00  0.00    +0.000 C 
ATOM      9  C   UNL     1       0.556   9.797  18.368  0.00  0.00    +0.000 C 
ATOM     10  C   UNL     1       1.928   9.141  18.536  0.00  0.00    +0.000 C 
ATOM     11  N   UNL     1       3.443   6.738  18.375  0.00  0.00    +0.000 NA
ENDROOT
BRANCH   1  15
ATOM     12  C   UNL     1       7.061   4.303  15.717  0.00  0.00    +0.000 A 
ATOM     13  C   UNL     1       7.350   4.573  17.050  0.00  0.00    +0.000 A 
ATOM     14  C   UNL     1       6.317   4.897  17.930  0.00  0.00    +0.000 A 
ATOM     15  C   UNL     1       4.985   4.971  17.487  0.00  0.00    +0.000 A 
ATOM     16  C   UNL     1       4.701   4.659  16.153  0.00  0.00    +0.000 A 
ATOM     17  C   UNL     1       5.740   4.332  15.271  0.00  0.00    +0.000 A 
ENDBRANCH   1  15
BRANCH   8  18
ATOM     18  N   UNL     1       0.395  11.484  20.204  0.00  0.00    +0.000 N 
ATOM     19  C   UNL     1       1.140  12.428  19.555  0.00  0.00    +0.000 A 
ATOM     20  C   UNL     1       1.290  13.456  20.455  0.00  0.00    +0.000 A 
ATOM     21  N   UNL     1       0.661  13.162  21.636  0.00  0.00    +0.000 NA
ATOM     22  C   UNL     1       0.132  11.974  21.455  0.00  0.00    +0.000 A 
ENDBRANCH   8  18
TORSDOF 2
ENDMDL
MODEL 2
REMARK VINA RESULT:      -7.2      0.610      1.025
REMARK  Name = 
REMARK  2 active torsions:
REMARK  status: ('A' for Active; 'I' for Inactive)
REMARK    1  A    between atoms: C_4  and  C_5
REMARK    2  A    between atoms: C_12  and  N_13
REMARK                            x       y       z     vdW  Elec       q    Type
REMARK                         _______ _______ _______ _____ _____    ______ ____
ROOT
ATOM      1  C   UNL     1       3.797   5.795  18.323  0.00  0.00    +0.000 A 
ATOM      2  C   UNL     1       3.336   4.915  19.282  0.00  0.00    +0.000 A 
ATOM      3  S   UNL     1       2.179   5.669  20.266  0.00  0.00    +0.000 S 
ATOM      4  C   UNL     1       2.368   7.152  19.380  0.00  0.00    +0.000 A 
ATOM      5  N   UNL     1       1.607   8.253  19.661  0.00  0.00    +0.000 N 
ATOM      6  C   UNL     1       1.213   8.562  21.033  0.00  0.00    +0.000 C 
ATOM      7  C   UNL     1      -0.202   9.124  21.034  0.00  0.00    +0.000 C 
ATOM      8  C   UNL     1      -0.386  10.280  20.043  0.00  0.00    +0.000 C 
ATOM      9  C   UNL     1       0.198   9.958  18.660  0.00  0.00    +0.000 C 
ATOM     10  C   UNL     1       1.611   9.375  18.726  0.00  0.00    +0.000 C 
ATOM     11  N   UNL     1       3.242   7.067  18.394  0.00  0.00    +0.000 NA
ENDROOT
BRANCH   1  15
ATOM     12  C   UNL     1       6.894   4.559  15.666  0.00  0.00    +0.000 A 
ATOM     13  C   UNL     1       5.717   3.821  15.749  0.00  0.00    +0.000 A 
ATOM     14  C   UNL     1       4.686   4.254  16.584  0.00  0.00    +0.000 A 
ATOM     15  C   UNL     1       4.823   5.420  17.358  0.00  0.00    +0.000 A 
ATOM     16  C   UNL     1       5.994   6.175  17.236  0.00  0.00    +0.000 A 
ATOM     17  C   UNL     1       7.028   5.741  16.396  0.00  0.00    +0.000 A 
ENDBRANCH   1  15
BRANCH   8  18
ATOM     18  N   UNL     1       0.053  11.573  20.560  0.00  0.00    +0.000 N 
ATOM     19  C   UNL     1       0.786  12.540  19.931  0.00  0.00    +0.000 A 
ATOM     20  C   UNL     1       0.893  13.566  20.840  0.00  0.00    +0.000 A 
ATOM     21  N   UNL     1       0.250  13.248  22.008  0.00  0.00    +0.000 NA
ATOM     22  C   UNL     1      -0.245  12.048  21.809  0.00  0.00    +0.000 A 
ENDBRANCH   8  18
TORSDOF 2
ENDMDL
MODEL 3
REMARK VINA RESULT:      -6.9      0.992      1.296
REMARK  Name = 
REMARK  2 active torsions:
REMARK  status: ('A' for Active; 'I' for Inactive)
REMARK    1  A    between atoms: C_4  and  C_5
REMARK    2  A    between atoms: C_12  and  N_13
REMARK                            x       y       z     vdW  Elec       q    Type
REMARK                         _______ _______ _______ _____ _____    ______ ____
ROOT
ATOM      1  C   UNL     1       3.545   5.885  18.233  0.00  0.00    +0.000 A 
ATOM      2  C   UNL     1       3.212   5.096  19.316  0.00  0.00    +0.000 A 
ATOM      3  S   UNL     1       2.151   5.927  20.346  0.00  0.00    +0.000 S 
ATOM      4  C   UNL     1       2.208   7.320  19.307  0.00  0.00    +0.000 A 
ATOM      5  N   UNL     1       1.457   8.434  19.565  0.00  0.00    +0.000 N 
ATOM      6  C   UNL     1       1.208   8.869  20.937  0.00  0.00    +0.000 C 
ATOM      7  C   UNL     1      -0.212   9.410  21.040  0.00  0.00    +0.000 C 
ATOM      8  C   UNL     1      -0.529  10.462  19.970  0.00  0.00    +0.000 C 
ATOM      9  C   UNL     1      -0.092  10.015  18.568  0.00  0.00    +0.000 C 
ATOM     10  C   UNL     1       1.333   9.459  18.532  0.00  0.00    +0.000 C 
ATOM     11  N   UNL     1       2.972   7.151  18.243  0.00  0.00    +0.000 NA
ENDROOT
BRANCH   1  15
ATOM     12  C   UNL     1       6.059   4.533  15.066  0.00  0.00    +0.000 A 
ATOM     13  C   UNL     1       5.783   5.890  15.199  0.00  0.00    +0.000 A 
ATOM     14  C   UNL     1       4.999   6.336  16.265  0.00  0.00    +0.000 A 
ATOM     15  C   UNL     1       4.468   5.431  17.200  0.00  0.00    +0.000 A 
ATOM     16  C   UNL     1       4.785   4.074  17.079  0.00  0.00    +0.000 A 
ATOM     17  C   UNL     1       5.574   3.628  16.010  0.00  0.00    +0.000 A 
ENDBRANCH   1  15
BRANCH   8  18
ATOM     18  N   UNL     1      -0.067  11.805  20.310  0.00  0.00    +0.000 N 
ATOM     19  C   UNL     1       0.072  12.373  21.545  0.00  0.00    +0.000 A 
ATOM     20  C   UNL     1       0.571  13.633  21.313  0.00  0.00    +0.000 A 
ATOM     21  N   UNL     1       0.735  13.850  19.970  0.00  0.00    +0.000 NA
ATOM     22  C   UNL     1       0.346  12.736  19.394  0.00  0.00    +0.000 A 
ENDBRANCH   8  18
TORSDOF 2
ENDMDL
MODEL 4
REMARK VINA RESULT:      -6.8      2.393      8.398
REMARK  Name = 
REMARK  2 active torsions:
REMARK  status: ('A' for Active; 'I' for Inactive)
REMARK    1  A    between atoms: C_4  and  C_5
REMARK    2  A    between atoms: C_12  and  N_13
REMARK                            x       y       z     vdW  Elec       q    Type
REMARK                         _______ _______ _______ _____ _____    ______ ____
ROOT
ATOM      1  C   UNL     1       2.245   7.412  19.253  0.00  0.00    +0.000 A 
ATOM      2  C   UNL     1       2.126   6.305  20.069  0.00  0.00    +0.000 A 
ATOM      3  S   UNL     1       3.154   5.067  19.535  0.00  0.00    +0.000 S 
ATOM      4  C   UNL     1       3.693   6.061  18.215  0.00  0.00    +0.000 A 
ATOM      5  N   UNL     1       4.660   5.632  17.347  0.00  0.00    +0.000 N 
ATOM      6  C   UNL     1       4.748   4.228  16.956  0.00  0.00    +0.000 C 
ATOM      7  C   UNL     1       6.213   3.834  16.830  0.00  0.00    +0.000 C 
ATOM      8  C   UNL     1       7.014   4.794  15.941  0.00  0.00    +0.000 C 
ATOM      9  C   UNL     1       6.753   6.265  16.293  0.00  0.00    +0.000 C 
ATOM     10  C   UNL     1       5.265   6.594  16.430  0.00  0.00    +0.000 C 
ATOM     11  N   UNL     1       3.136   7.258  18.197  0.00  0.00    +0.000 NA
ENDROOT
BRANCH   1  15
ATOM     12  C   UNL     1      -0.268  10.808  19.832  0.00  0.00    +0.000 A 
ATOM     13  C   UNL     1       0.057   9.995  20.913  0.00  0.00    +0.000 A 
ATOM     14  C   UNL     1       0.918   8.912  20.730  0.00  0.00    +0.000 A 
ATOM     15  C   UNL     1       1.453   8.617  19.463  0.00  0.00    +0.000 A 
ATOM     16  C   UNL     1       1.151   9.465  18.392  0.00  0.00    +0.000 A 
ATOM     17  C   UNL     1       0.288  10.553  18.577  0.00  0.00    +0.000 A 
ENDBRANCH   1  15
BRANCH   8  18
ATOM     18  N   UNL     1       6.889   4.517  14.513  0.00  0.00    +0.000 N 
ATOM     19  C   UNL     1       6.018   3.676  13.880  0.00  0.00    +0.000 A 
ATOM     20  C   UNL     1       6.292   3.809  12.539  0.00  0.00    +0.000 A 
ATOM     21  N   UNL     1       7.311   4.703  12.339  0.00  0.00    +0.000 NA
ATOM     22  C   UNL     1       7.648   5.112  13.541  0.00  0.00    +0.000 A 
ENDBRANCH   8  18
TORSDOF 2
ENDMDL
MODEL 5
REMARK VINA RESULT:      -6.7      1.580      1.958
REMARK  Name = 
REMARK  2 active torsions:
REMARK  status: ('A' for Active; 'I' for Inactive)
REMARK    1  A    between atoms: C_4  and  C_5
REMARK    2  A    between atoms: C_12  and  N_13
REMARK                            x       y       z     vdW  Elec       q    Type
REMARK                         _______ _______ _______ _____ _____    ______ ____
ROOT
ATOM      1  C   UNL     1       3.082   6.579  18.510  0.00  0.00    +0.000 A 
ATOM      2  C   UNL     1       2.875   6.035  19.762  0.00  0.00    +0.000 A 
ATOM      3  S   UNL     1       1.860   7.037  20.679  0.00  0.00    +0.000 S 
ATOM      4  C   UNL     1       1.765   8.171  19.365  0.00  0.00    +0.000 A 
ATOM      5  N   UNL     1       0.983   9.290  19.443  0.00  0.00    +0.000 N 
ATOM      6  C   UNL     1       0.822  10.006  20.706  0.00  0.00    +0.000 C 
ATOM      7  C   UNL     1      -0.610  10.513  20.816  0.00  0.00    +0.000 C 
ATOM      8  C   UNL     1      -1.062  11.296  19.578  0.00  0.00    +0.000 C 
ATOM      9  C   UNL     1      -0.717  10.567  18.271  0.00  0.00    +0.000 C 
ATOM     10  C   UNL     1       0.727  10.062  18.230  0.00  0.00    +0.000 C 
ATOM     11  N   UNL     1       2.449   7.798  18.299  0.00  0.00    +0.000 NA
ENDROOT
BRANCH   1  15
ATOM     12  C   UNL     1       5.416   4.725  15.462  0.00  0.00    +0.000 A 
ATOM     13  C   UNL     1       5.431   6.110  15.600  0.00  0.00    +0.000 A 
ATOM     14  C   UNL     1       4.704   6.711  16.628  0.00  0.00    +0.000 A 
ATOM     15  C   UNL     1       3.941   5.939  17.522  0.00  0.00    +0.000 A 
ATOM     16  C   UNL     1       3.965   4.546  17.398  0.00  0.00    +0.000 A 
ATOM     17  C   UNL     1       4.697   3.943  16.366  0.00  0.00    +0.000 A 
ENDBRANCH   1  15
BRANCH   8  18
ATOM     18  N   UNL     1      -0.641  12.695  19.580  0.00  0.00    +0.000 N 
ATOM     19  C   UNL     1      -0.278  13.475  20.640  0.00  0.00    +0.000 A 
ATOM     20  C   UNL     1       0.059  14.693  20.098  0.00  0.00    +0.000 A 
ATOM     21  N   UNL     1      -0.095  14.677  18.737  0.00  0.00    +0.000 NA
ATOM     22  C   UNL     1      -0.515  13.465  18.455  0.00  0.00    +0.000 A 
ENDBRANCH   8  18
TORSDOF 2
ENDMDL
MODEL 6
REMARK VINA RESULT:      -6.7      1.539      1.830
REMARK  Name = 
REMARK  2 active torsions:
REMARK  status: ('A' for Active; 'I' for Inactive)
REMARK    1  A    between atoms: C_4  and  C_5
REMARK    2  A    between atoms: C_12  and  N_13
REMARK                            x       y       z     vdW  Elec       q    Type
REMARK                         _______ _______ _______ _____ _____    ______ ____
ROOT
ATOM      1  C   UNL     1       3.008   6.568  18.492  0.00  0.00    +0.000 A 
ATOM      2  C   UNL     1       2.829   6.043  19.757  0.00  0.00    +0.000 A 
ATOM      3  S   UNL     1       1.855   7.072  20.689  0.00  0.00    +0.000 S 
ATOM      4  C   UNL     1       1.740   8.191  19.363  0.00  0.00    +0.000 A 
ATOM      5  N   UNL     1       0.977   9.322  19.448  0.00  0.00    +0.000 N 
ATOM      6  C   UNL     1       0.863  10.057  20.705  0.00  0.00    +0.000 C 
ATOM      7  C   UNL     1      -0.558  10.586  20.849  0.00  0.00    +0.000 C 
ATOM      8  C   UNL     1      -1.034  11.360  19.613  0.00  0.00    +0.000 C 
ATOM      9  C   UNL     1      -0.736  10.610  18.307  0.00  0.00    +0.000 C 
ATOM     10  C   UNL     1       0.697  10.082  18.232  0.00  0.00    +0.000 C 
ATOM     11  N   UNL     1       2.388   7.793  18.283  0.00  0.00    +0.000 NA
ENDROOT
BRANCH   1  15
ATOM     12  C   UNL     1       5.580   4.598  15.720  0.00  0.00    +0.000 A 
ATOM     13  C   UNL     1       4.717   3.850  16.515  0.00  0.00    +0.000 A 
ATOM     14  C   UNL     1       3.842   4.500  17.387  0.00  0.00    +0.000 A 
ATOM     15  C   UNL     1       3.829   5.902  17.488  0.00  0.00    +0.000 A 
ATOM     16  C   UNL     1       4.673   6.644  16.656  0.00  0.00    +0.000 A 
ATOM     17  C   UNL     1       5.549   5.992  15.779  0.00  0.00    +0.000 A 
ENDBRANCH   1  15
BRANCH   8  18
ATOM     18  N   UNL     1      -0.593  12.752  19.584  0.00  0.00    +0.000 N 
ATOM     19  C   UNL     1      -0.354  13.549  18.501  0.00  0.00    +0.000 A 
ATOM     20  C   UNL     1       0.004  14.772  19.020  0.00  0.00    +0.000 A 
ATOM     21  N   UNL     1      -0.005  14.739  20.389  0.00  0.00    +0.000 NA
ATOM     22  C   UNL     1      -0.368  13.515  20.699  0.00  0.00    +0.000 A 
ENDBRANCH   8  18
TORSDOF 2
ENDMDL
MODEL 7
REMARK VINA RESULT:      -6.7      2.582      4.239
REMARK  Name = 
REMARK  2 active torsions:
REMARK  status: ('A' for Active; 'I' for Inactive)
REMARK    1  A    between atoms: C_4  and  C_5
REMARK    2  A    between atoms: C_12  and  N_13
REMARK                            x       y       z     vdW  Elec       q    Type
REMARK                         _______ _______ _______ _____ _____    ______ ____
ROOT
ATOM      1  C   UNL     1       2.147   7.491  19.362  0.00  0.00    +0.000 A 
ATOM      2  C   UNL     1       2.571   8.099  18.197  0.00  0.00    +0.000 A 
ATOM      3  S   UNL     1       1.862   9.632  18.041  0.00  0.00    +0.000 S 
ATOM      4  C   UNL     1       0.995   9.401  19.530  0.00  0.00    +0.000 A 
ATOM      5  N   UNL     1       0.202  10.384  20.054  0.00  0.00    +0.000 N 
ATOM      6  C   UNL     1      -0.567  11.270  19.184  0.00  0.00    +0.000 C 
ATOM      7  C   UNL     1      -0.574  12.673  19.778  0.00  0.00    +0.000 C 
ATOM      8  C   UNL     1      -1.003  12.695  21.250  0.00  0.00    +0.000 C 
ATOM      9  C   UNL     1      -0.278  11.628  22.083  0.00  0.00    +0.000 C 
ATOM     10  C   UNL     1      -0.284  10.247  21.424  0.00  0.00    +0.000 C 
ATOM     11  N   UNL     1       1.245   8.240  20.108  0.00  0.00    +0.000 NA
ENDROOT
BRANCH   1  15
ATOM     12  C   UNL     1       3.294   3.485  20.262  0.00  0.00    +0.000 A 
ATOM     13  C   UNL     1       4.101   4.268  19.443  0.00  0.00    +0.000 A 
ATOM     14  C   UNL     1       3.748   5.594  19.189  0.00  0.00    +0.000 A 
ATOM     15  C   UNL     1       2.578   6.150  19.735  0.00  0.00    +0.000 A 
ATOM     16  C   UNL     1       1.795   5.364  20.588  0.00  0.00    +0.000 A 
ATOM     17  C   UNL     1       2.152   4.034  20.845  0.00  0.00    +0.000 A 
ENDBRANCH   1  15
BRANCH   8  18
ATOM     18  N   UNL     1      -2.451  12.682  21.442  0.00  0.00    +0.000 N 
ATOM     19  C   UNL     1      -3.436  12.913  20.524  0.00  0.00    +0.000 A 
ATOM     20  C   UNL     1      -4.617  12.746  21.207  0.00  0.00    +0.000 A 
ATOM     21  N   UNL     1      -4.379  12.427  22.517  0.00  0.00    +0.000 NA
ATOM     22  C   UNL     1      -3.071  12.394  22.629  0.00  0.00    +0.000 A 
ENDBRANCH   8  18
TORSDOF 2
ENDMDL
MODEL 8
REMARK VINA RESULT:      -6.7      2.137      8.163
REMARK  Name = 
REMARK  2 active torsions:
REMARK  status: ('A' for Active; 'I' for Inactive)
REMARK    1  A    between atoms: C_4  and  C_5
REMARK    2  A    between atoms: C_12  and  N_13
REMARK                            x       y       z     vdW  Elec       q    Type
REMARK                         _______ _______ _______ _____ _____    ______ ____
ROOT
ATOM      1  C   UNL     1       1.608   7.550  20.399  0.00  0.00    +0.000 A 
ATOM      2  C   UNL     1       1.203   6.390  21.030  0.00  0.00    +0.000 A 
ATOM      3  S   UNL     1       2.118   5.071  20.483  0.00  0.00    +0.000 S 
ATOM      4  C   UNL     1       2.999   6.110  19.402  0.00  0.00    +0.000 A 
ATOM      5  N   UNL     1       4.022   5.634  18.631  0.00  0.00    +0.000 N 
ATOM      6  C   UNL     1       3.973   4.287  18.067  0.00  0.00    +0.000 C 
ATOM      7  C   UNL     1       5.369   3.680  18.097  0.00  0.00    +0.000 C 
ATOM      8  C   UNL     1       6.431   4.593  17.473  0.00  0.00    +0.000 C 
ATOM      9  C   UNL     1       6.327   6.038  17.982  0.00  0.00    +0.000 C 
ATOM     10  C   UNL     1       4.898   6.584  17.950  0.00  0.00    +0.000 C 
ATOM     11  N   UNL     1       2.627   7.375  19.470  0.00  0.00    +0.000 NA
ENDROOT
BRANCH   1  15
ATOM     12  C   UNL     1      -0.467  11.201  21.134  0.00  0.00    +0.000 A 
ATOM     13  C   UNL     1      -0.165  10.352  22.194  0.00  0.00    +0.000 A 
ATOM     14  C   UNL     1       0.556   9.180  21.957  0.00  0.00    +0.000 A 
ATOM     15  C   UNL     1       0.970   8.835  20.659  0.00  0.00    +0.000 A 
ATOM     16  C   UNL     1       0.695   9.716  19.608  0.00  0.00    +0.000 A 
ATOM     17  C   UNL     1      -0.027  10.893  19.847  0.00  0.00    +0.000 A 
ENDBRANCH   1  15
BRANCH   8  18
ATOM     18  N   UNL     1       6.500   4.506  16.017  0.00  0.00    +0.000 N 
ATOM     19  C   UNL     1       5.910   3.594  15.187  0.00  0.00    +0.000 A 
ATOM     20  C   UNL     1       6.263   3.977  13.915  0.00  0.00    +0.000 A 
ATOM     21  N   UNL     1       7.057   5.093  13.947  0.00  0.00    +0.000 NA
ATOM     22  C   UNL     1       7.181   5.388  15.221  0.00  0.00    +0.000 A 
ENDBRANCH   8  18
TORSDOF 2
ENDMDL
MODEL 9
REMARK VINA RESULT:      -6.6      2.377      8.402
REMARK  Name = 
REMARK  2 active torsions:
REMARK  status: ('A' for Active; 'I' for Inactive)
REMARK    1  A    between atoms: C_4  and  C_5
REMARK    2  A    between atoms: C_12  and  N_13
REMARK                            x       y       z     vdW  Elec       q    Type
REMARK                         _______ _______ _______ _____ _____    ______ ____
ROOT
ATOM      1  C   UNL     1       2.262   7.419  19.277  0.00  0.00    +0.000 A 
ATOM      2  C   UNL     1       2.106   6.291  20.058  0.00  0.00    +0.000 A 
ATOM      3  S   UNL     1       3.110   5.044  19.498  0.00  0.00    +0.000 S 
ATOM      4  C   UNL     1       3.688   6.064  18.214  0.00  0.00    +0.000 A 
ATOM      5  N   UNL     1       4.654   5.639  17.345  0.00  0.00    +0.000 N 
ATOM      6  C   UNL     1       4.712   4.245  16.912  0.00  0.00    +0.000 C 
ATOM      7  C   UNL     1       6.169   3.819  16.789  0.00  0.00    +0.000 C 
ATOM      8  C   UNL     1       7.003   4.785  15.939  0.00  0.00    +0.000 C 
ATOM      9  C   UNL     1       6.774   6.251  16.333  0.00  0.00    +0.000 C 
ATOM     10  C   UNL     1       5.293   6.613  16.464  0.00  0.00    +0.000 C 
ATOM     11  N   UNL     1       3.161   7.275  18.227  0.00  0.00    +0.000 NA
ENDROOT
BRANCH   1  15
ATOM     12  C   UNL     1       0.228  11.090  20.033  0.00  0.00    +0.000 A 
ATOM     13  C   UNL     1       0.723  10.822  18.761  0.00  0.00    +0.000 A 
ATOM     14  C   UNL     1       1.346   9.600  18.504  0.00  0.00    +0.000 A 
ATOM     15  C   UNL     1       1.497   8.637  19.517  0.00  0.00    +0.000 A 
ATOM     16  C   UNL     1       0.960   8.901  20.781  0.00  0.00    +0.000 A 
ATOM     17  C   UNL     1       0.333  10.127  21.038  0.00  0.00    +0.000 A 
ENDBRANCH   1  15
BRANCH   8  18
ATOM     18  N   UNL     1       6.888   4.555  14.502  0.00  0.00    +0.000 N 
ATOM     19  C   UNL     1       7.621   5.104  13.488  0.00  0.00    +0.000 A 
ATOM     20  C   UNL     1       7.136   4.532  12.336  0.00  0.00    +0.000 A 
ATOM     21  N   UNL     1       6.123   3.654  12.619  0.00  0.00    +0.000 NA
ATOM     22  C   UNL     1       5.998   3.688  13.926  0.00  0.00    +0.000 A 
ENDBRANCH   8  18
TORSDOF 2
ENDMDL
