MODEL 1
REMARK VINA RESULT:      -8.5      0.000      0.000
REMARK  Name = 
REMARK  8 active torsions:
REMARK  status: ('A' for Active; 'I' for Inactive)
REMARK    1  A    between atoms: C_1  and  C_2
REMARK    2  A    between atoms: C_2  and  O_3
REMARK    3  A    between atoms: O_3  and  C_4
REMARK    4  A    between atoms: C_7  and  S_8
REMARK    5  A    between atoms: S_8  and  N_11
REMARK    6  A    between atoms: N_11  and  C_12
REMARK    7  A    between atoms: N_15  and  C_16
REMARK    8  A    between atoms: C_19  and  O_20
REMARK                            x       y       z     vdW  Elec       q    Type
REMARK                         _______ _______ _______ _____ _____    ______ ____
ROOT
ATOM      1  C   UNL     1       2.364   5.904  18.614  0.00  0.00    +0.000 C 
ATOM      2  C   UNL     1       2.716   5.493  17.381  0.00  0.00    +0.000 C 
ATOM      3  C   UNL     1       3.289   4.145  17.500  0.00  0.00    +0.000 C 
ATOM      4  N   UNL     1       4.509   3.829  17.833  0.00  0.00    +0.000 NA
ATOM      5  C   UNL     1       2.161   3.189  17.823  0.00  0.00    +0.000 C 
ATOM      6  O   UNL     1       1.792   2.291  17.099  0.00  0.00    +0.000 OA
ATOM      7  C   UNL     1       1.681   3.537  19.189  0.00  0.00    +0.000 A 
ATOM      8  C   UNL     1       1.372   2.448  20.007  0.00  0.00    +0.000 A 
ATOM      9  C   UNL     1       1.708   2.544  21.344  0.00  0.00    +0.000 A 
ATOM     10  C   UNL     1       2.317   3.716  21.818  0.00  0.00    +0.000 A 
ATOM     11  C   UNL     1       2.485   4.860  20.999  0.00  0.00    +0.000 A 
ATOM     12  C   UNL     1       2.110   4.830  19.661  0.00  0.00    +0.000 A 
ENDROOT
BRANCH   4  13
ATOM     13  C   UNL     1       5.479   4.834  18.094  0.00  0.00    +0.000 A 
ATOM     14  C   UNL     1       6.139   4.856  19.339  0.00  0.00    +0.000 A 
ATOM     15  C   UNL     1       7.187   5.756  19.596  0.00  0.00    +0.000 A 
ATOM     16  C   UNL     1       7.561   6.663  18.612  0.00  0.00    +0.000 A 
ATOM     17  C   UNL     1       6.866   6.722  17.413  0.00  0.00    +0.000 A 
ATOM     18  C   UNL     1       5.851   5.796  17.151  0.00  0.00    +0.000 A 
BRANCH  16  19
ATOM     19  O   UNL     1       8.630   7.491  18.767  0.00  0.00    +0.000 OA
ATOM     20  H   UNL     1       8.613   8.149  18.050  0.00  0.00    +0.000 HD
ENDBRANCH  16  19
ENDBRANCH   4  13
BRANCH   1  21
ATOM     21  N   UNL     1       2.747   7.274  18.742  0.00  0.00    +0.000 N 
ATOM     22  H   UNL     1       3.713   7.480  18.469  0.00  0.00    +0.000 HD
BRANCH  21  23
ATOM     23  S   UNL     1       1.867   8.566  18.171  0.00  0.00    +0.000 S 
ATOM     24  O   UNL     1       0.785   8.121  17.334  0.00  0.00    +0.000 OA
ATOM     25  O   UNL     1       2.878   9.508  17.687  0.00  0.00    +0.000 OA
BRANCH  23  29
ATOM     26  C   UNL     1       0.123  10.461  21.952  0.00  0.00    +0.000 A 
ATOM     27  C   UNL     1       0.645   9.160  22.013  0.00  0.00    +0.000 A 
ATOM     28  C   UNL     1       1.207   8.555  20.878  0.00  0.00    +0.000 A 
ATOM     29  C   UNL     1       1.211   9.261  19.670  0.00  0.00    +0.000 A 
ATOM     30  C   UNL     1       0.723  10.562  19.608  0.00  0.00    +0.000 A 
ATOM     31  C   UNL     1       0.170  11.161  20.735  0.00  0.00    +0.000 A 
BRANCH  26  32
ATOM     32  O   UNL     1      -0.429  10.953  23.119  0.00  0.00    +0.000 OA
BRANCH  32  34
ATOM     33  C   UNL     1      -2.622  11.936  23.308  0.00  0.00    +0.000 C 
ATOM     34  C   UNL     1      -1.158  12.174  22.988  0.00  0.00    +0.000 C 
ENDBRANCH  32  34
ENDBRANCH  26  32
ENDBRANCH  23  29
ENDBRANCH  21  23
ENDBRANCH   1  21
TORSDOF 7
ENDMDL
MODEL 2
REMARK VINA RESULT:      -8.3      0.485      1.293
REMARK  Name = 
REMARK  8 active torsions:
REMARK  status: ('A' for Active; 'I' for Inactive)
REMARK    1  A    between atoms: C_1  and  C_2
REMARK    2  A    between atoms: C_2  and  O_3
REMARK    3  A    between atoms: O_3  and  C_4
REMARK    4  A    between atoms: C_7  and  S_8
REMARK    5  A    between atoms: S_8  and  N_11
REMARK    6  A    between atoms: N_11  and  C_12
REMARK    7  A    between atoms: N_15  and  C_16
REMARK    8  A    between atoms: C_19  and  O_20
REMARK                            x       y       z     vdW  Elec       q    Type
REMARK                         _______ _______ _______ _____ _____    ______ ____
ROOT
ATOM      1  C   UNL     1       2.410   5.683  18.589  0.00  0.00    +0.000 C 
ATOM      2  C   UNL     1       2.679   5.176  17.371  0.00  0.00    +0.000 C 
ATOM      3  C   UNL     1       3.161   3.799  17.551  0.00  0.00    +0.000 C 
ATOM      4  N   UNL     1       4.369   3.416  17.856  0.00  0.00    +0.000 NA
ATOM      5  C   UNL     1       1.983   2.948  17.974  0.00  0.00    +0.000 C 
ATOM      6  O   UNL     1       1.522   2.039  17.321  0.00  0.00    +0.000 OA
ATOM      7  C   UNL     1       1.588   3.409  19.334  0.00  0.00    +0.000 A 
ATOM      8  C   UNL     1       1.238   2.395  20.228  0.00  0.00    +0.000 A 
ATOM      9  C   UNL     1       1.636   2.544  21.543  0.00  0.00    +0.000 A 
ATOM     10  C   UNL     1       2.344   3.695  21.920  0.00  0.00    +0.000 A 
ATOM     11  C   UNL     1       2.558   4.774  21.027  0.00  0.00    +0.000 A 
ATOM     12  C   UNL     1       2.126   4.693  19.709  0.00  0.00    +0.000 A 
ENDROOT
BRANCH   4  13
ATOM     13  C   UNL     1       5.417   4.360  18.018  0.00  0.00    +0.000 A 
ATOM     14  C   UNL     1       6.000   4.955  16.881  0.00  0.00    +0.000 A 
ATOM     15  C   UNL     1       6.955   5.979  17.000  0.00  0.00    +0.000 A 
ATOM     16  C   UNL     1       7.354   6.394  18.264  0.00  0.00    +0.000 A 
ATOM     17  C   UNL     1       6.862   5.762  19.396  0.00  0.00    +0.000 A 
ATOM     18  C   UNL     1       5.883   4.771  19.270  0.00  0.00    +0.000 A 
BRANCH  16  19
ATOM     19  O   UNL     1       8.200   7.445  18.441  0.00  0.00    +0.000 OA
ATOM     20  H   UNL     1       9.113   7.111  18.416  0.00  0.00    +0.000 HD
ENDBRANCH  16  19
ENDBRANCH   4  13
BRANCH   1  21
ATOM     21  N   UNL     1       2.894   7.026  18.618  0.00  0.00    +0.000 N 
ATOM     22  H   UNL     1       3.843   7.152  18.255  0.00  0.00    +0.000 HD
BRANCH  21  23
ATOM     23  S   UNL     1       2.055   8.352  18.061  0.00  0.00    +0.000 S 
ATOM     24  O   UNL     1       0.970   7.952  17.206  0.00  0.00    +0.000 OA
ATOM     25  O   UNL     1       3.096   9.274  17.604  0.00  0.00    +0.000 OA
BRANCH  23  29
ATOM     26  C   UNL     1       0.435  10.011  22.004  0.00  0.00    +0.000 A 
ATOM     27  C   UNL     1       0.361  10.799  20.846  0.00  0.00    +0.000 A 
ATOM     28  C   UNL     1       0.829  10.314  19.614  0.00  0.00    +0.000 A 
ATOM     29  C   UNL     1       1.402   9.039  19.565  0.00  0.00    +0.000 A 
ATOM     30  C   UNL     1       1.452   8.240  20.703  0.00  0.00    +0.000 A 
ATOM     31  C   UNL     1       0.984   8.721  21.921  0.00  0.00    +0.000 A 
BRANCH  26  32
ATOM     32  O   UNL     1      -0.031  10.592  23.168  0.00  0.00    +0.000 OA
BRANCH  32  34
ATOM     33  C   UNL     1      -1.392  12.582  23.156  0.00  0.00    +0.000 C 
ATOM     34  C   UNL     1      -1.378  11.065  23.123  0.00  0.00    +0.000 C 
ENDBRANCH  32  34
ENDBRANCH  26  32
ENDBRANCH  23  29
ENDBRANCH  21  23
ENDBRANCH   1  21
TORSDOF 7
ENDMDL
MODEL 3
REMARK VINA RESULT:      -8.1      1.445      4.566
REMARK  Name = 
REMARK  8 active torsions:
REMARK  status: ('A' for Active; 'I' for Inactive)
REMARK    1  A    between atoms: C_1  and  C_2
REMARK    2  A    between atoms: C_2  and  O_3
REMARK    3  A    between atoms: O_3  and  C_4
REMARK    4  A    between atoms: C_7  and  S_8
REMARK    5  A    between atoms: S_8  and  N_11
REMARK    6  A    between atoms: N_11  and  C_12
REMARK    7  A    between atoms: N_15  and  C_16
REMARK    8  A    between atoms: C_19  and  O_20
REMARK                            x       y       z     vdW  Elec       q    Type
REMARK                         _______ _______ _______ _____ _____    ______ ____
ROOT
ATOM      1  C   UNL     1       4.288   6.231  18.318  0.00  0.00    +0.000 C 
ATOM      2  C   UNL     1       4.744   5.855  19.528  0.00  0.00    +0.000 C 
ATOM      3  C   UNL     1       5.632   4.700  19.337  0.00  0.00    +0.000 C 
ATOM      4  N   UNL     1       5.287   3.450  19.202  0.00  0.00    +0.000 NA
ATOM      5  C   UNL     1       6.903   5.195  18.681  0.00  0.00    +0.000 C 
ATOM      6  O   UNL     1       7.999   5.163  19.193  0.00  0.00    +0.000 OA
ATOM      7  C   UNL     1       6.531   5.638  17.308  0.00  0.00    +0.000 A 
ATOM      8  C   UNL     1       7.445   5.304  16.307  0.00  0.00    +0.000 A 
ATOM      9  C   UNL     1       6.931   4.919  15.083  0.00  0.00    +0.000 A 
ATOM     10  C   UNL     1       5.541   4.898  14.897  0.00  0.00    +0.000 A 
ATOM     11  C   UNL     1       4.643   5.381  15.880  0.00  0.00    +0.000 A 
ATOM     12  C   UNL     1       5.117   5.832  17.106  0.00  0.00    +0.000 A 
ENDROOT
BRANCH   4  13
ATOM     13  C   UNL     1       3.924   3.056  19.267  0.00  0.00    +0.000 A 
ATOM     14  C   UNL     1       3.288   2.956  20.520  0.00  0.00    +0.000 A 
ATOM     15  C   UNL     1       1.913   2.686  20.624  0.00  0.00    +0.000 A 
ATOM     16  C   UNL     1       1.171   2.484  19.467  0.00  0.00    +0.000 A 
ATOM     17  C   UNL     1       1.792   2.486  18.227  0.00  0.00    +0.000 A 
ATOM     18  C   UNL     1       3.152   2.795  18.131  0.00  0.00    +0.000 A 
BRANCH  16  19
ATOM     19  O   UNL     1      -0.180   2.316  19.500  0.00  0.00    +0.000 OA
ATOM     20  H   UNL     1      -0.388   1.642  20.170  0.00  0.00    +0.000 HD
ENDBRANCH  16  19
ENDBRANCH   4  13
BRANCH   1  21
ATOM     21  N   UNL     1       2.900   6.537  18.452  0.00  0.00    +0.000 N 
ATOM     22  H   UNL     1       2.512   6.386  19.388  0.00  0.00    +0.000 HD
BRANCH  21  23
ATOM     23  S   UNL     1       2.179   7.942  17.924  0.00  0.00    +0.000 S 
ATOM     24  O   UNL     1       1.035   7.655  17.101  0.00  0.00    +0.000 OA
ATOM     25  O   UNL     1       3.292   8.760  17.440  0.00  0.00    +0.000 OA
BRANCH  23  29
ATOM     26  C   UNL     1       0.747   9.953  21.776  0.00  0.00    +0.000 A 
ATOM     27  C   UNL     1       1.154   8.611  21.812  0.00  0.00    +0.000 A 
ATOM     28  C   UNL     1       1.620   7.968  20.654  0.00  0.00    +0.000 A 
ATOM     29  C   UNL     1       1.641   8.680  19.449  0.00  0.00    +0.000 A 
ATOM     30  C   UNL     1       1.267  10.019  19.412  0.00  0.00    +0.000 A 
ATOM     31  C   UNL     1       0.811  10.655  20.561  0.00  0.00    +0.000 A 
BRANCH  26  32
ATOM     32  O   UNL     1       0.283  10.481  22.965  0.00  0.00    +0.000 OA
BRANCH  32  34
ATOM     33  C   UNL     1      -1.615  11.960  23.118  0.00  0.00    +0.000 C 
ATOM     34  C   UNL     1      -1.138  10.520  23.107  0.00  0.00    +0.000 C 
ENDBRANCH  32  34
ENDBRANCH  26  32
ENDBRANCH  23  29
ENDBRANCH  21  23
ENDBRANCH   1  21
TORSDOF 7
ENDMDL
MODEL 4
REMARK VINA RESULT:      -7.8      3.479      8.528
REMARK  Name = 
REMARK  8 active torsions:
REMARK  status: ('A' for Active; 'I' for Inactive)
REMARK    1  A    between atoms: C_1  and  C_2
REMARK    2  A    between atoms: C_2  and  O_3
REMARK    3  A    between atoms: O_3  and  C_4
REMARK    4  A    between atoms: C_7  and  S_8
REMARK    5  A    between atoms: S_8  and  N_11
REMARK    6  A    between atoms: N_11  and  C_12
REMARK    7  A    between atoms: N_15  and  C_16
REMARK    8  A    between atoms: C_19  and  O_20
REMARK                            x       y       z     vdW  Elec       q    Type
REMARK                         _______ _______ _______ _____ _____    ______ ____
ROOT
ATOM      1  C   UNL     1      -0.841  11.028  20.326  0.00  0.00    +0.000 C 
ATOM      2  C   UNL     1      -1.053  12.100  21.113  0.00  0.00    +0.000 C 
ATOM      3  C   UNL     1      -1.664  13.152  20.290  0.00  0.00    +0.000 C 
ATOM      4  N   UNL     1      -1.057  13.993  19.500  0.00  0.00    +0.000 NA
ATOM      5  C   UNL     1      -3.082  12.729  19.975  0.00  0.00    +0.000 C 
ATOM      6  O   UNL     1      -4.074  13.314  20.350  0.00  0.00    +0.000 OA
ATOM      7  C   UNL     1      -2.987  11.538  19.086  0.00  0.00    +0.000 A 
ATOM      8  C   UNL     1      -3.909  11.502  18.038  0.00  0.00    +0.000 A 
ATOM      9  C   UNL     1      -3.466  11.019  16.821  0.00  0.00    +0.000 A 
ATOM     10  C   UNL     1      -2.140  10.576  16.698  0.00  0.00    +0.000 A 
ATOM     11  C   UNL     1      -1.270  10.487  17.812  0.00  0.00    +0.000 A 
ATOM     12  C   UNL     1      -1.690  10.909  19.069  0.00  0.00    +0.000 A 
ENDROOT
BRANCH   4  13
ATOM     13  C   UNL     1       0.359  13.992  19.380  0.00  0.00    +0.000 A 
ATOM     14  C   UNL     1       0.965  13.330  18.294  0.00  0.00    +0.000 A 
ATOM     15  C   UNL     1       2.351  13.405  18.073  0.00  0.00    +0.000 A 
ATOM     16  C   UNL     1       3.143  14.123  18.959  0.00  0.00    +0.000 A 
ATOM     17  C   UNL     1       2.583  14.706  20.086  0.00  0.00    +0.000 A 
ATOM     18  C   UNL     1       1.198  14.660  20.277  0.00  0.00    +0.000 A 
BRANCH  16  19
ATOM     19  O   UNL     1       4.474  14.311  18.743  0.00  0.00    +0.000 OA
ATOM     20  H   UNL     1       4.966  13.841  19.437  0.00  0.00    +0.000 HD
ENDBRANCH  16  19
ENDBRANCH   4  13
BRANCH   1  21
ATOM     21  N   UNL     1       0.445  10.497  20.649  0.00  0.00    +0.000 N 
ATOM     22  H   UNL     1       1.096  11.167  21.070  0.00  0.00    +0.000 HD
BRANCH  21  23
ATOM     23  S   UNL     1       0.706   9.081  21.485  0.00  0.00    +0.000 S 
ATOM     24  O   UNL     1      -0.540   8.459  21.844  0.00  0.00    +0.000 OA
ATOM     25  O   UNL     1       1.711   9.432  22.489  0.00  0.00    +0.000 OA
BRANCH  23  29
ATOM     26  C   UNL     1       2.825   6.397  18.445  0.00  0.00    +0.000 A 
ATOM     27  C   UNL     1       2.507   7.717  18.092  0.00  0.00    +0.000 A 
ATOM     28  C   UNL     1       1.876   8.576  19.006  0.00  0.00    +0.000 A 
ATOM     29  C   UNL     1       1.539   8.082  20.271  0.00  0.00    +0.000 A 
ATOM     30  C   UNL     1       1.877   6.784  20.639  0.00  0.00    +0.000 A 
ATOM     31  C   UNL     1       2.506   5.937  19.733  0.00  0.00    +0.000 A 
BRANCH  26  32
ATOM     32  O   UNL     1       3.422   5.630  17.463  0.00  0.00    +0.000 OA
BRANCH  32  34
ATOM     33  C   UNL     1       5.187   6.304  15.965  0.00  0.00    +0.000 C 
ATOM     34  C   UNL     1       4.838   5.776  17.345  0.00  0.00    +0.000 C 
ENDBRANCH  32  34
ENDBRANCH  26  32
ENDBRANCH  23  29
ENDBRANCH  21  23
ENDBRANCH   1  21
TORSDOF 7
ENDMDL
MODEL 5
REMARK VINA RESULT:      -7.7      3.499      8.529
REMARK  Name = 
REMARK  8 active torsions:
REMARK  status: ('A' for Active; 'I' for Inactive)
REMARK    1  A    between atoms: C_1  and  C_2
REMARK    2  A    between atoms: C_2  and  O_3
REMARK    3  A    between atoms: O_3  and  C_4
REMARK    4  A    between atoms: C_7  and  S_8
REMARK    5  A    between atoms: S_8  and  N_11
REMARK    6  A    between atoms: N_11  and  C_12
REMARK    7  A    between atoms: N_15  and  C_16
REMARK    8  A    between atoms: C_19  and  O_20
REMARK                            x       y       z     vdW  Elec       q    Type
REMARK                         _______ _______ _______ _____ _____    ______ ____
ROOT
ATOM      1  C   UNL     1      -0.867  10.991  20.254  0.00  0.00    +0.000 C 
ATOM      2  C   UNL     1      -1.084  12.022  21.093  0.00  0.00    +0.000 C 
ATOM      3  C   UNL     1      -1.709  13.107  20.324  0.00  0.00    +0.000 C 
ATOM      4  N   UNL     1      -1.115  13.989  19.571  0.00  0.00    +0.000 NA
ATOM      5  C   UNL     1      -3.126  12.686  19.998  0.00  0.00    +0.000 C 
ATOM      6  O   UNL     1      -4.120  13.243  20.408  0.00  0.00    +0.000 OA
ATOM      7  C   UNL     1      -3.026  11.539  19.053  0.00  0.00    +0.000 A 
ATOM      8  C   UNL     1      -3.955  11.545  18.011  0.00  0.00    +0.000 A 
ATOM      9  C   UNL     1      -3.516  11.123  16.769  0.00  0.00    +0.000 A 
ATOM     10  C   UNL     1      -2.188  10.699  16.617  0.00  0.00    +0.000 A 
ATOM     11  C   UNL     1      -1.309  10.565  17.721  0.00  0.00    +0.000 A 
ATOM     12  C   UNL     1      -1.724  10.923  18.998  0.00  0.00    +0.000 A 
ENDROOT
BRANCH   4  13
ATOM     13  C   UNL     1       0.300  14.007  19.442  0.00  0.00    +0.000 A 
ATOM     14  C   UNL     1       0.905  13.387  18.332  0.00  0.00    +0.000 A 
ATOM     15  C   UNL     1       2.289  13.483  18.104  0.00  0.00    +0.000 A 
ATOM     16  C   UNL     1       3.080  14.180  19.008  0.00  0.00    +0.000 A 
ATOM     17  C   UNL     1       2.520  14.721  20.156  0.00  0.00    +0.000 A 
ATOM     18  C   UNL     1       1.138  14.655  20.355  0.00  0.00    +0.000 A 
BRANCH  16  19
ATOM     19  O   UNL     1       4.407  14.389  18.789  0.00  0.00    +0.000 OA
ATOM     20  H   UNL     1       4.630  14.042  17.909  0.00  0.00    +0.000 HD
ENDBRANCH  16  19
ENDBRANCH   4  13
BRANCH   1  21
ATOM     21  N   UNL     1       0.425  10.457  20.544  0.00  0.00    +0.000 N 
ATOM     22  H   UNL     1       1.092  11.128  20.935  0.00  0.00    +0.000 HD
BRANCH  21  23
ATOM     23  S   UNL     1       0.705   9.049  21.388  0.00  0.00    +0.000 S 
ATOM     24  O   UNL     1      -0.531   8.390  21.714  0.00  0.00    +0.000 OA
ATOM     25  O   UNL     1       1.670   9.431  22.420  0.00  0.00    +0.000 OA
BRANCH  23  29
ATOM     26  C   UNL     1       3.024   6.661  18.250  0.00  0.00    +0.000 A 
ATOM     27  C   UNL     1       2.758   6.078  19.497  0.00  0.00    +0.000 A 
ATOM     28  C   UNL     1       2.030   6.773  20.477  0.00  0.00    +0.000 A 
ATOM     29  C   UNL     1       1.601   8.076  20.200  0.00  0.00    +0.000 A 
ATOM     30  C   UNL     1       1.835   8.649  18.954  0.00  0.00    +0.000 A 
ATOM     31  C   UNL     1       2.552   7.957  17.984  0.00  0.00    +0.000 A 
BRANCH  26  32
ATOM     32  O   UNL     1       3.768   5.901  17.368  0.00  0.00    +0.000 OA
BRANCH  32  34
ATOM     33  C   UNL     1       3.830   3.498  17.174  0.00  0.00    +0.000 C 
ATOM     34  C   UNL     1       4.349   4.716  17.917  0.00  0.00    +0.000 C 
ENDBRANCH  32  34
ENDBRANCH  26  32
ENDBRANCH  23  29
ENDBRANCH  21  23
ENDBRANCH   1  21
TORSDOF 7
ENDMDL
MODEL 6
REMARK VINA RESULT:      -7.5      3.503      8.463
REMARK  Name = 
REMARK  8 active torsions:
REMARK  status: ('A' for Active; 'I' for Inactive)
REMARK    1  A    between atoms: C_1  and  C_2
REMARK    2  A    between atoms: C_2  and  O_3
REMARK    3  A    between atoms: O_3  and  C_4
REMARK    4  A    between atoms: C_7  and  S_8
REMARK    5  A    between atoms: S_8  and  N_11
REMARK    6  A    between atoms: N_11  and  C_12
REMARK    7  A    between atoms: N_15  and  C_16
REMARK    8  A    between atoms: C_19  and  O_20
REMARK                            x       y       z     vdW  Elec       q    Type
REMARK                         _______ _______ _______ _____ _____    ______ ____
ROOT
ATOM      1  C   UNL     1      -0.996  10.970  20.286  0.00  0.00    +0.000 C 
ATOM      2  C   UNL     1      -1.330  12.036  21.037  0.00  0.00    +0.000 C 
ATOM      3  C   UNL     1      -1.991  13.016  20.164  0.00  0.00    +0.000 C 
ATOM      4  N   UNL     1      -1.424  13.887  19.379  0.00  0.00    +0.000 NA
ATOM      5  C   UNL     1      -3.355  12.468  19.803  0.00  0.00    +0.000 C 
ATOM      6  O   UNL     1      -4.407  12.974  20.124  0.00  0.00    +0.000 OA
ATOM      7  C   UNL     1      -3.123  11.270  18.948  0.00  0.00    +0.000 A 
ATOM      8  C   UNL     1      -3.994  11.134  17.865  0.00  0.00    +0.000 A 
ATOM      9  C   UNL     1      -3.461  10.664  16.679  0.00  0.00    +0.000 A 
ATOM     10  C   UNL     1      -2.100  10.332  16.621  0.00  0.00    +0.000 A 
ATOM     11  C   UNL     1      -1.273  10.340  17.772  0.00  0.00    +0.000 A 
ATOM     12  C   UNL     1      -1.779  10.752  18.999  0.00  0.00    +0.000 A 
ENDROOT
BRANCH   4  13
ATOM     13  C   UNL     1      -0.009  14.003  19.316  0.00  0.00    +0.000 A 
ATOM     14  C   UNL     1       0.666  14.799  20.263  0.00  0.00    +0.000 A 
ATOM     15  C   UNL     1       2.070  14.847  20.311  0.00  0.00    +0.000 A 
ATOM     16  C   UNL     1       2.807  14.118  19.387  0.00  0.00    +0.000 A 
ATOM     17  C   UNL     1       2.165  13.400  18.389  0.00  0.00    +0.000 A 
ATOM     18  C   UNL     1       0.769  13.326  18.373  0.00  0.00    +0.000 A 
BRANCH  16  19
ATOM     19  O   UNL     1       4.165  14.048  19.445  0.00  0.00    +0.000 OA
ATOM     20  H   UNL     1       4.531  14.703  18.826  0.00  0.00    +0.000 HD
ENDBRANCH  16  19
ENDBRANCH   4  13
BRANCH   1  21
ATOM     21  N   UNL     1       0.314  10.556  20.674  0.00  0.00    +0.000 N 
ATOM     22  H   UNL     1       0.885  11.285  21.113  0.00  0.00    +0.000 HD
BRANCH  21  23
ATOM     23  S   UNL     1       0.659   9.177  21.541  0.00  0.00    +0.000 S 
ATOM     24  O   UNL     1      -0.549   8.519  21.961  0.00  0.00    +0.000 OA
ATOM     25  O   UNL     1       1.681   9.598  22.500  0.00  0.00    +0.000 OA
BRANCH  23  29
ATOM     26  C   UNL     1       2.814   6.714  18.344  0.00  0.00    +0.000 A 
ATOM     27  C   UNL     1       2.556   6.138  19.597  0.00  0.00    +0.000 A 
ATOM     28  C   UNL     1       1.878   6.857  20.595  0.00  0.00    +0.000 A 
ATOM     29  C   UNL     1       1.490   8.175  20.331  0.00  0.00    +0.000 A 
ATOM     30  C   UNL     1       1.716   8.743  19.081  0.00  0.00    +0.000 A 
ATOM     31  C   UNL     1       2.384   8.028  18.093  0.00  0.00    +0.000 A 
BRANCH  26  32
ATOM     32  O   UNL     1       3.509   5.930  17.444  0.00  0.00    +0.000 OA
BRANCH  32  34
ATOM     33  C   UNL     1       5.264   6.137  15.804  0.00  0.00    +0.000 C 
ATOM     34  C   UNL     1       4.886   6.270  17.267  0.00  0.00    +0.000 C 
ENDBRANCH  32  34
ENDBRANCH  26  32
ENDBRANCH  23  29
ENDBRANCH  21  23
ENDBRANCH   1  21
TORSDOF 7
ENDMDL
MODEL 7
REMARK VINA RESULT:      -7.5      1.380      4.761
REMARK  Name = 
REMARK  8 active torsions:
REMARK  status: ('A' for Active; 'I' for Inactive)
REMARK    1  A    between atoms: C_1  and  C_2
REMARK    2  A    between atoms: C_2  and  O_3
REMARK    3  A    between atoms: O_3  and  C_4
REMARK    4  A    between atoms: C_7  and  S_8
REMARK    5  A    between atoms: S_8  and  N_11
REMARK    6  A    between atoms: N_11  and  C_12
REMARK    7  A    between atoms: N_15  and  C_16
REMARK    8  A    between atoms: C_19  and  O_20
REMARK                            x       y       z     vdW  Elec       q    Type
REMARK                         _______ _______ _______ _____ _____    ______ ____
ROOT
ATOM      1  C   UNL     1       4.299   6.392  18.307  0.00  0.00    +0.000 C 
ATOM      2  C   UNL     1       4.691   5.965  19.523  0.00  0.00    +0.000 C 
ATOM      3  C   UNL     1       5.607   4.832  19.330  0.00  0.00    +0.000 C 
ATOM      4  N   UNL     1       5.291   3.586  19.116  0.00  0.00    +0.000 NA
ATOM      5  C   UNL     1       6.905   5.375  18.774  0.00  0.00    +0.000 C 
ATOM      6  O   UNL     1       7.970   5.334  19.348  0.00  0.00    +0.000 OA
ATOM      7  C   UNL     1       6.607   5.879  17.404  0.00  0.00    +0.000 A 
ATOM      8  C   UNL     1       7.583   5.605  16.444  0.00  0.00    +0.000 A 
ATOM      9  C   UNL     1       7.147   5.272  15.175  0.00  0.00    +0.000 A 
ATOM     10  C   UNL     1       5.771   5.242  14.906  0.00  0.00    +0.000 A 
ATOM     11  C   UNL     1       4.809   5.665  15.857  0.00  0.00    +0.000 A 
ATOM     12  C   UNL     1       5.204   6.063  17.129  0.00  0.00    +0.000 A 
ENDROOT
BRANCH   4  13
ATOM     13  C   UNL     1       3.933   3.170  19.083  0.00  0.00    +0.000 A 
ATOM     14  C   UNL     1       3.297   2.971  17.842  0.00  0.00    +0.000 A 
ATOM     15  C   UNL     1       1.995   2.447  17.762  0.00  0.00    +0.000 A 
ATOM     16  C   UNL     1       1.310   2.148  18.932  0.00  0.00    +0.000 A 
ATOM     17  C   UNL     1       1.880   2.421  20.167  0.00  0.00    +0.000 A 
ATOM     18  C   UNL     1       3.190   2.904  20.237  0.00  0.00    +0.000 A 
BRANCH  16  19
ATOM     19  O   UNL     1       0.088   1.549  18.916  0.00  0.00    +0.000 OA
ATOM     20  H   UNL     1      -0.164   1.343  19.833  0.00  0.00    +0.000 HD
ENDBRANCH  16  19
ENDBRANCH   4  13
BRANCH   1  21
ATOM     21  N   UNL     1       2.901   6.672  18.373  0.00  0.00    +0.000 N 
ATOM     22  H   UNL     1       2.465   6.483  19.281  0.00  0.00    +0.000 HD
BRANCH  21  23
ATOM     23  S   UNL     1       2.187   8.084  17.853  0.00  0.00    +0.000 S 
ATOM     24  O   UNL     1       1.067   7.807  16.994  0.00  0.00    +0.000 OA
ATOM     25  O   UNL     1       3.308   8.917  17.415  0.00  0.00    +0.000 OA
BRANCH  23  29
ATOM     26  C   UNL     1       0.740   9.786  21.845  0.00  0.00    +0.000 A 
ATOM     27  C   UNL     1       0.716  10.599  20.703  0.00  0.00    +0.000 A 
ATOM     28  C   UNL     1       1.132  10.104  19.457  0.00  0.00    +0.000 A 
ATOM     29  C   UNL     1       1.604   8.789  19.378  0.00  0.00    +0.000 A 
ATOM     30  C   UNL     1       1.604   7.968  20.500  0.00  0.00    +0.000 A 
ATOM     31  C   UNL     1       1.187   8.459  21.732  0.00  0.00    +0.000 A 
BRANCH  26  32
ATOM     32  O   UNL     1       0.332  10.379  23.025  0.00  0.00    +0.000 OA
BRANCH  32  34
ATOM     33  C   UNL     1      -1.550  11.885  23.085  0.00  0.00    +0.000 C 
ATOM     34  C   UNL     1      -1.081  10.448  23.222  0.00  0.00    +0.000 C 
ENDBRANCH  32  34
ENDBRANCH  26  32
ENDBRANCH  23  29
ENDBRANCH  21  23
ENDBRANCH   1  21
TORSDOF 7
ENDMDL
MODEL 8
REMARK VINA RESULT:      -7.4      2.132      5.017
REMARK  Name = 
REMARK  8 active torsions:
REMARK  status: ('A' for Active; 'I' for Inactive)
REMARK    1  A    between atoms: C_1  and  C_2
REMARK    2  A    between atoms: C_2  and  O_3
REMARK    3  A    between atoms: O_3  and  C_4
REMARK    4  A    between atoms: C_7  and  S_8
REMARK    5  A    between atoms: S_8  and  N_11
REMARK    6  A    between atoms: N_11  and  C_12
REMARK    7  A    between atoms: N_15  and  C_16
REMARK    8  A    between atoms: C_19  and  O_20
REMARK                            x       y       z     vdW  Elec       q    Type
REMARK                         _______ _______ _______ _____ _____    ______ ____
ROOT
ATOM      1  C   UNL     1       4.501   5.967  17.768  0.00  0.00    +0.000 C 
ATOM      2  C   UNL     1       4.979   5.670  18.992  0.00  0.00    +0.000 C 
ATOM      3  C   UNL     1       5.836   4.483  18.867  0.00  0.00    +0.000 C 
ATOM      4  N   UNL     1       5.461   3.235  18.832  0.00  0.00    +0.000 NA
ATOM      5  C   UNL     1       7.101   4.898  18.147  0.00  0.00    +0.000 C 
ATOM      6  O   UNL     1       8.208   4.879  18.636  0.00  0.00    +0.000 OA
ATOM      7  C   UNL     1       6.706   5.248  16.755  0.00  0.00    +0.000 A 
ATOM      8  C   UNL     1       7.588   4.820  15.761  0.00  0.00    +0.000 A 
ATOM      9  C   UNL     1       7.037   4.359  14.580  0.00  0.00    +0.000 A 
ATOM     10  C   UNL     1       5.642   4.357  14.427  0.00  0.00    +0.000 A 
ATOM     11  C   UNL     1       4.778   4.932  15.392  0.00  0.00    +0.000 A 
ATOM     12  C   UNL     1       5.292   5.461  16.571  0.00  0.00    +0.000 A 
ENDROOT
BRANCH   4  13
ATOM     13  C   UNL     1       4.091   2.879  18.957  0.00  0.00    +0.000 A 
ATOM     14  C   UNL     1       3.511   2.785  20.237  0.00  0.00    +0.000 A 
ATOM     15  C   UNL     1       2.134   2.552  20.402  0.00  0.00    +0.000 A 
ATOM     16  C   UNL     1       1.335   2.383  19.279  0.00  0.00    +0.000 A 
ATOM     17  C   UNL     1       1.898   2.380  18.012  0.00  0.00    +0.000 A 
ATOM     18  C   UNL     1       3.261   2.652  17.855  0.00  0.00    +0.000 A 
BRANCH  16  19
ATOM     19  O   UNL     1      -0.017   2.253  19.372  0.00  0.00    +0.000 OA
ATOM     20  H   UNL     1      -0.222   1.787  20.201  0.00  0.00    +0.000 HD
ENDBRANCH  16  19
ENDBRANCH   4  13
BRANCH   1  21
ATOM     21  N   UNL     1       3.124   6.314  17.910  0.00  0.00    +0.000 N 
ATOM     22  H   UNL     1       2.486   5.818  17.280  0.00  0.00    +0.000 HD
BRANCH  21  23
ATOM     23  S   UNL     1       2.305   6.389  19.358  0.00  0.00    +0.000 S 
ATOM     24  O   UNL     1       3.193   6.146  20.463  0.00  0.00    +0.000 OA
ATOM     25  O   UNL     1       1.106   5.578  19.139  0.00  0.00    +0.000 OA
BRANCH  23  29
ATOM     26  C   UNL     1       0.935  10.754  19.305  0.00  0.00    +0.000 A 
ATOM     27  C   UNL     1       0.757   9.992  20.469  0.00  0.00    +0.000 A 
ATOM     28  C   UNL     1       1.185   8.656  20.529  0.00  0.00    +0.000 A 
ATOM     29  C   UNL     1       1.765   8.083  19.392  0.00  0.00    +0.000 A 
ATOM     30  C   UNL     1       1.972   8.840  18.244  0.00  0.00    +0.000 A 
ATOM     31  C   UNL     1       1.551  10.164  18.189  0.00  0.00    +0.000 A 
BRANCH  26  32
ATOM     32  O   UNL     1       0.456  12.049  19.344  0.00  0.00    +0.000 OA
BRANCH  32  34
ATOM     33  C   UNL     1      -1.689  11.948  18.249  0.00  0.00    +0.000 C 
ATOM     34  C   UNL     1      -0.951  12.178  19.554  0.00  0.00    +0.000 C 
ENDBRANCH  32  34
ENDBRANCH  26  32
ENDBRANCH  23  29
ENDBRANCH  21  23
ENDBRANCH   1  21
TORSDOF 7
ENDMDL
MODEL 9
REMARK VINA RESULT:      -7.3      2.176      5.094
REMARK  Name = 
REMARK  8 active torsions:
REMARK  status: ('A' for Active; 'I' for Inactive)
REMARK    1  A    between atoms: C_1  and  C_2
REMARK    2  A    between atoms: C_2  and  O_3
REMARK    3  A    between atoms: O_3  and  C_4
REMARK    4  A    between atoms: C_7  and  S_8
REMARK    5  A    between atoms: S_8  and  N_11
REMARK    6  A    between atoms: N_11  and  C_12
REMARK    7  A    between atoms: N_15  and  C_16
REMARK    8  A    between atoms: C_19  and  O_20
REMARK                            x       y       z     vdW  Elec       q    Type
REMARK                         _______ _______ _______ _____ _____    ______ ____
ROOT
ATOM      1  C   UNL     1       4.503   5.974  17.775  0.00  0.00    +0.000 C 
ATOM      2  C   UNL     1       4.980   5.674  18.997  0.00  0.00    +0.000 C 
ATOM      3  C   UNL     1       5.836   4.487  18.869  0.00  0.00    +0.000 C 
ATOM      4  N   UNL     1       5.461   3.239  18.832  0.00  0.00    +0.000 NA
ATOM      5  C   UNL     1       7.101   4.903  18.150  0.00  0.00    +0.000 C 
ATOM      6  O   UNL     1       8.209   4.881  18.638  0.00  0.00    +0.000 OA
ATOM      7  C   UNL     1       6.706   5.256  16.758  0.00  0.00    +0.000 A 
ATOM      8  C   UNL     1       7.587   4.829  15.762  0.00  0.00    +0.000 A 
ATOM      9  C   UNL     1       7.034   4.371  14.581  0.00  0.00    +0.000 A 
ATOM     10  C   UNL     1       5.639   4.371  14.429  0.00  0.00    +0.000 A 
ATOM     11  C   UNL     1       4.777   4.945  15.396  0.00  0.00    +0.000 A 
ATOM     12  C   UNL     1       5.292   5.470  16.576  0.00  0.00    +0.000 A 
ENDROOT
BRANCH   4  13
ATOM     13  C   UNL     1       4.091   2.884  18.957  0.00  0.00    +0.000 A 
ATOM     14  C   UNL     1       3.512   2.785  20.238  0.00  0.00    +0.000 A 
ATOM     15  C   UNL     1       2.135   2.553  20.403  0.00  0.00    +0.000 A 
ATOM     16  C   UNL     1       1.334   2.390  19.280  0.00  0.00    +0.000 A 
ATOM     17  C   UNL     1       1.896   2.392  18.013  0.00  0.00    +0.000 A 
ATOM     18  C   UNL     1       3.259   2.662  17.856  0.00  0.00    +0.000 A 
BRANCH  16  19
ATOM     19  O   UNL     1      -0.018   2.261  19.375  0.00  0.00    +0.000 OA
ATOM     20  H   UNL     1      -0.270   2.363  20.309  0.00  0.00    +0.000 HD
ENDBRANCH  16  19
ENDBRANCH   4  13
BRANCH   1  21
ATOM     21  N   UNL     1       3.125   6.322  17.919  0.00  0.00    +0.000 N 
ATOM     22  H   UNL     1       2.488   5.837  17.280  0.00  0.00    +0.000 HD
BRANCH  21  23
ATOM     23  S   UNL     1       2.303   6.379  19.366  0.00  0.00    +0.000 S 
ATOM     24  O   UNL     1       3.190   6.127  20.470  0.00  0.00    +0.000 OA
ATOM     25  O   UNL     1       1.108   5.567  19.136  0.00  0.00    +0.000 OA
BRANCH  23  29
ATOM     26  C   UNL     1       0.889  10.721  19.640  0.00  0.00    +0.000 A 
ATOM     27  C   UNL     1       1.402  10.241  18.426  0.00  0.00    +0.000 A 
ATOM     28  C   UNL     1       1.826   8.909  18.299  0.00  0.00    +0.000 A 
ATOM     29  C   UNL     1       1.758   8.070  19.417  0.00  0.00    +0.000 A 
ATOM     30  C   UNL     1       1.223   8.530  20.616  0.00  0.00    +0.000 A 
ATOM     31  C   UNL     1       0.801   9.849  20.738  0.00  0.00    +0.000 A 
BRANCH  26  32
ATOM     32  O   UNL     1       0.525  12.053  19.664  0.00  0.00    +0.000 OA
BRANCH  32  34
ATOM     33  C   UNL     1       2.360  13.400  20.460  0.00  0.00    +0.000 C 
ATOM     34  C   UNL     1       1.538  12.975  19.257  0.00  0.00    +0.000 C 
ENDBRANCH  32  34
ENDBRANCH  26  32
ENDBRANCH  23  29
ENDBRANCH  21  23
ENDBRANCH   1  21
TORSDOF 7
ENDMDL
