MODEL 1
REMARK VINA RESULT:      -8.1      0.000      0.000
REMARK  Name = 
REMARK  5 active torsions:
REMARK  status: ('A' for Active; 'I' for Inactive)
REMARK    1  A    between atoms: C_2  and  C_3
REMARK    2  A    between atoms: C_3  and  N_4
REMARK    3  A    between atoms: C_6  and  C_7
REMARK    4  A    between atoms: N_16  and  C_17
REMARK    5  A    between atoms: C_17  and  C_18
REMARK                            x       y       z     vdW  Elec       q    Type
REMARK                         _______ _______ _______ _____ _____    ______ ____
ROOT
ATOM      1  C   UNL     1       7.696   6.336  17.921  0.00  0.00    +0.000 C 
ENDROOT
BRANCH   1   2
ATOM      2  N   UNL     1       6.626   5.535  17.331  0.00  0.00    +0.000 N 
ATOM      3  C   UNL     1       5.499   5.244  18.084  0.00  0.00    +0.000 A 
ATOM      4  C   UNL     1       4.478   4.526  17.583  0.00  0.00    +0.000 A 
ATOM      5  C   UNL     1       4.583   4.027  16.222  0.00  0.00    +0.000 A 
ATOM      6  C   UNL     1       5.638   4.321  15.450  0.00  0.00    +0.000 A 
ATOM      7 CL   UNL     1       5.758   3.737  13.837  0.00  0.00    +0.000 Cl
ATOM      8  C   UNL     1       6.754   5.168  15.988  0.00  0.00    +0.000 A 
ATOM      9  O   UNL     1       7.707   5.512  15.291  0.00  0.00    +0.000 OA
BRANCH   4  10
ATOM     10  C   UNL     1       3.244   4.234  18.389  0.00  0.00    +0.000 C 
ATOM     11  F   UNL     1       3.329   4.680  19.669  0.00  0.00    +0.000 F 
ATOM     12  F   UNL     1       2.144   4.814  17.845  0.00  0.00    +0.000 F 
ATOM     13  F   UNL     1       2.994   2.901  18.457  0.00  0.00    +0.000 F 
ENDBRANCH   4  10
ENDBRANCH   1   2
BRANCH   1  15
ATOM     14  O   UNL     1       6.563   8.190  16.871  0.00  0.00    +0.000 OA
ATOM     15  C   UNL     1       7.459   7.815  17.623  0.00  0.00    +0.000 C 
ATOM     16  N   UNL     1       8.385   8.659  18.192  0.00  0.00    +0.000 N 
ATOM     17  H   UNL     1       9.145   8.263  18.737  0.00  0.00    +0.000 HD
BRANCH  16  18
ATOM     18  C   UNL     1       8.299  10.096  18.077  0.00  0.00    +0.000 C 
BRANCH  18  19
ATOM     19  C   UNL     1       9.494  10.751  18.718  0.00  0.00    +0.000 A 
ATOM     20  C   UNL     1       9.505  11.041  20.089  0.00  0.00    +0.000 A 
ATOM     21  C   UNL     1      10.590  11.707  20.663  0.00  0.00    +0.000 A 
ATOM     22  C   UNL     1      11.672  12.091  19.872  0.00  0.00    +0.000 A 
ATOM     23  C   UNL     1      11.675  11.803  18.509  0.00  0.00    +0.000 A 
ATOM     24  C   UNL     1      10.591  11.138  17.934  0.00  0.00    +0.000 A 
ENDBRANCH  18  19
ENDBRANCH  16  18
ENDBRANCH   1  15
TORSDOF 5
ENDMDL
MODEL 2
REMARK VINA RESULT:      -8.1      2.556      3.234
REMARK  Name = 
REMARK  5 active torsions:
REMARK  status: ('A' for Active; 'I' for Inactive)
REMARK    1  A    between atoms: C_2  and  C_3
REMARK    2  A    between atoms: C_3  and  N_4
REMARK    3  A    between atoms: C_6  and  C_7
REMARK    4  A    between atoms: N_16  and  C_17
REMARK    5  A    between atoms: C_17  and  C_18
REMARK                            x       y       z     vdW  Elec       q    Type
REMARK                         _______ _______ _______ _____ _____    ______ ____
ROOT
ATOM      1  C   UNL     1       7.893   6.436  18.258  0.00  0.00    +0.000 C 
ENDROOT
BRANCH   1   2
ATOM      2  N   UNL     1       6.887   5.561  17.660  0.00  0.00    +0.000 N 
ATOM      3  C   UNL     1       6.910   5.331  16.294  0.00  0.00    +0.000 A 
ATOM      4  C   UNL     1       6.019   4.520  15.696  0.00  0.00    +0.000 A 
ATOM      5  C   UNL     1       4.994   3.893  16.514  0.00  0.00    +0.000 A 
ATOM      6  C   UNL     1       4.963   4.059  17.844  0.00  0.00    +0.000 A 
ATOM      7 CL   UNL     1       3.756   3.311  18.813  0.00  0.00    +0.000 Cl
ATOM      8  C   UNL     1       5.990   4.919  18.521  0.00  0.00    +0.000 A 
ATOM      9  O   UNL     1       6.034   5.044  19.744  0.00  0.00    +0.000 OA
BRANCH   4  10
ATOM     10  C   UNL     1       6.060   4.248  14.219  0.00  0.00    +0.000 C 
ATOM     11  F   UNL     1       6.440   2.979  13.925  0.00  0.00    +0.000 F 
ATOM     12  F   UNL     1       4.845   4.436  13.644  0.00  0.00    +0.000 F 
ATOM     13  F   UNL     1       6.929   5.073  13.582  0.00  0.00    +0.000 F 
ENDBRANCH   4  10
ENDBRANCH   1   2
BRANCH   1  15
ATOM     14  O   UNL     1       6.866   8.151  16.907  0.00  0.00    +0.000 OA
ATOM     15  C   UNL     1       7.671   7.873  17.792  0.00  0.00    +0.000 C 
ATOM     16  N   UNL     1       8.510   8.791  18.381  0.00  0.00    +0.000 N 
ATOM     17  H   UNL     1       9.205   8.469  19.048  0.00  0.00    +0.000 HD
BRANCH  16  18
ATOM     18  C   UNL     1       8.417  10.208  18.117  0.00  0.00    +0.000 C 
BRANCH  18  19
ATOM     19  C   UNL     1       9.592  10.936  18.714  0.00  0.00    +0.000 A 
ATOM     20  C   UNL     1      10.702  11.274  17.927  0.00  0.00    +0.000 A 
ATOM     21  C   UNL     1      11.815  11.891  18.503  0.00  0.00    +0.000 A 
ATOM     22  C   UNL     1      11.830  12.172  19.868  0.00  0.00    +0.000 A 
ATOM     23  C   UNL     1      10.731  11.846  20.659  0.00  0.00    +0.000 A 
ATOM     24  C   UNL     1       9.618  11.228  20.086  0.00  0.00    +0.000 A 
ENDBRANCH  18  19
ENDBRANCH  16  18
ENDBRANCH   1  15
TORSDOF 5
ENDMDL
MODEL 3
REMARK VINA RESULT:      -8.1      2.551      3.054
REMARK  Name = 
REMARK  5 active torsions:
REMARK  status: ('A' for Active; 'I' for Inactive)
REMARK    1  A    between atoms: C_2  and  C_3
REMARK    2  A    between atoms: C_3  and  N_4
REMARK    3  A    between atoms: C_6  and  C_7
REMARK    4  A    between atoms: N_16  and  C_17
REMARK    5  A    between atoms: C_17  and  C_18
REMARK                            x       y       z     vdW  Elec       q    Type
REMARK                         _______ _______ _______ _____ _____    ______ ____
ROOT
ATOM      1  C   UNL     1       7.952   6.393  18.218  0.00  0.00    +0.000 C 
ENDROOT
BRANCH   1   2
ATOM      2  N   UNL     1       6.916   5.545  17.635  0.00  0.00    +0.000 N 
ATOM      3  C   UNL     1       6.922   5.302  16.271  0.00  0.00    +0.000 A 
ATOM      4  C   UNL     1       6.002   4.514  15.687  0.00  0.00    +0.000 A 
ATOM      5  C   UNL     1       4.963   3.928  16.517  0.00  0.00    +0.000 A 
ATOM      6  C   UNL     1       4.946   4.108  17.845  0.00  0.00    +0.000 A 
ATOM      7 CL   UNL     1       3.721   3.408  18.829  0.00  0.00    +0.000 Cl
ATOM      8  C   UNL     1       6.004   4.941  18.507  0.00  0.00    +0.000 A 
ATOM      9  O   UNL     1       6.060   5.077  19.728  0.00  0.00    +0.000 OA
BRANCH   4  10
ATOM     10  C   UNL     1       6.025   4.227  14.212  0.00  0.00    +0.000 C 
ATOM     11  F   UNL     1       4.814   4.393  13.621  0.00  0.00    +0.000 F 
ATOM     12  F   UNL     1       6.893   5.040  13.559  0.00  0.00    +0.000 F 
ATOM     13  F   UNL     1       6.411   2.951  13.956  0.00  0.00    +0.000 F 
ENDBRANCH   4  10
ENDBRANCH   1   2
BRANCH   1  15
ATOM     14  O   UNL     1       6.984   8.137  16.861  0.00  0.00    +0.000 OA
ATOM     15  C   UNL     1       7.744   7.841  17.779  0.00  0.00    +0.000 C 
ATOM     16  N   UNL     1       8.545   8.748  18.434  0.00  0.00    +0.000 N 
ATOM     17  H   UNL     1       9.208   8.413  19.126  0.00  0.00    +0.000 HD
BRANCH  16  18
ATOM     18  C   UNL     1       8.456  10.171  18.202  0.00  0.00    +0.000 C 
BRANCH  18  19
ATOM     19  C   UNL     1       9.649  10.879  18.787  0.00  0.00    +0.000 A 
ATOM     20  C   UNL     1       9.691  11.211  20.148  0.00  0.00    +0.000 A 
ATOM     21  C   UNL     1      10.773  11.925  20.669  0.00  0.00    +0.000 A 
ATOM     22  C   UNL     1      11.819  12.315  19.834  0.00  0.00    +0.000 A 
ATOM     23  C   UNL     1      11.791  11.985  18.481  0.00  0.00    +0.000 A 
ATOM     24  C   UNL     1      10.711  11.273  17.959  0.00  0.00    +0.000 A 
ENDBRANCH  18  19
ENDBRANCH  16  18
ENDBRANCH   1  15
TORSDOF 5
ENDMDL
MODEL 4
REMARK VINA RESULT:      -8.1      4.704      6.429
REMARK  Name = 
REMARK  5 active torsions:
REMARK  status: ('A' for Active; 'I' for Inactive)
REMARK    1  A    between atoms: C_2  and  C_3
REMARK    2  A    between atoms: C_3  and  N_4
REMARK    3  A    between atoms: C_6  and  C_7
REMARK    4  A    between atoms: N_16  and  C_17
REMARK    5  A    between atoms: C_17  and  C_18
REMARK                            x       y       z     vdW  Elec       q    Type
REMARK                         _______ _______ _______ _____ _____    ______ ____
ROOT
ATOM      1  C   UNL     1       4.621   3.312  18.989  0.00  0.00    +0.000 C 
ENDROOT
BRANCH   1   2
ATOM      2  N   UNL     1       5.479   4.109  18.116  0.00  0.00    +0.000 N 
ATOM      3  C   UNL     1       5.440   3.898  16.747  0.00  0.00    +0.000 A 
ATOM      4  C   UNL     1       6.195   4.616  15.897  0.00  0.00    +0.000 A 
ATOM      5  C   UNL     1       7.092   5.621  16.444  0.00  0.00    +0.000 A 
ATOM      6  C   UNL     1       7.129   5.881  17.759  0.00  0.00    +0.000 A 
ATOM      7 CL   UNL     1       8.184   7.075  18.406  0.00  0.00    +0.000 Cl
ATOM      8  C   UNL     1       6.247   5.119  18.704  0.00  0.00    +0.000 A 
ATOM      9  O   UNL     1       6.206   5.372  19.907  0.00  0.00    +0.000 OA
BRANCH   4  10
ATOM     10  C   UNL     1       6.132   4.408  14.410  0.00  0.00    +0.000 C 
ATOM     11  F   UNL     1       6.444   3.140  14.039  0.00  0.00    +0.000 F 
ATOM     12  F   UNL     1       4.892   4.664  13.923  0.00  0.00    +0.000 F 
ATOM     13  F   UNL     1       6.991   5.229  13.752  0.00  0.00    +0.000 F 
ENDBRANCH   4  10
ENDBRANCH   1   2
BRANCH   1  15
ATOM     14  O   UNL     1       2.286   3.668  18.501  0.00  0.00    +0.000 OA
ATOM     15  C   UNL     1       3.270   4.002  19.156  0.00  0.00    +0.000 C 
ATOM     16  N   UNL     1       3.286   5.070  20.024  0.00  0.00    +0.000 N 
ATOM     17  H   UNL     1       4.161   5.332  20.467  0.00  0.00    +0.000 HD
BRANCH  16  18
ATOM     18  C   UNL     1       2.095   5.814  20.360  0.00  0.00    +0.000 C 
BRANCH  18  19
ATOM     19  C   UNL     1       2.060   7.122  19.616  0.00  0.00    +0.000 A 
ATOM     20  C   UNL     1       1.409   8.239  20.157  0.00  0.00    +0.000 A 
ATOM     21  C   UNL     1       1.325   9.430  19.431  0.00  0.00    +0.000 A 
ATOM     22  C   UNL     1       1.889   9.514  18.159  0.00  0.00    +0.000 A 
ATOM     23  C   UNL     1       2.543   8.412  17.613  0.00  0.00    +0.000 A 
ATOM     24  C   UNL     1       2.627   7.221  18.336  0.00  0.00    +0.000 A 
ENDBRANCH  18  19
ENDBRANCH  16  18
ENDBRANCH   1  15
TORSDOF 5
ENDMDL
MODEL 5
REMARK VINA RESULT:      -8.1      0.428      1.382
REMARK  Name = 
REMARK  5 active torsions:
REMARK  status: ('A' for Active; 'I' for Inactive)
REMARK    1  A    between atoms: C_2  and  C_3
REMARK    2  A    between atoms: C_3  and  N_4
REMARK    3  A    between atoms: C_6  and  C_7
REMARK    4  A    between atoms: N_16  and  C_17
REMARK    5  A    between atoms: C_17  and  C_18
REMARK                            x       y       z     vdW  Elec       q    Type
REMARK                         _______ _______ _______ _____ _____    ______ ____
ROOT
ATOM      1  C   UNL     1       7.757   6.511  18.117  0.00  0.00    +0.000 C 
ENDROOT
BRANCH   1   2
ATOM      2  N   UNL     1       6.658   5.697  17.603  0.00  0.00    +0.000 N 
ATOM      3  C   UNL     1       5.546   5.475  18.398  0.00  0.00    +0.000 A 
ATOM      4  C   UNL     1       4.499   4.749  17.967  0.00  0.00    +0.000 A 
ATOM      5  C   UNL     1       4.560   4.166  16.636  0.00  0.00    +0.000 A 
ATOM      6  C   UNL     1       5.602   4.390  15.823  0.00  0.00    +0.000 A 
ATOM      7 CL   UNL     1       5.671   3.707  14.247  0.00  0.00    +0.000 Cl
ATOM      8  C   UNL     1       6.746   5.246  16.281  0.00  0.00    +0.000 A 
ATOM      9  O   UNL     1       7.688   5.528  15.542  0.00  0.00    +0.000 OA
BRANCH   4  10
ATOM     10  C   UNL     1       3.280   4.531  18.818  0.00  0.00    +0.000 C 
ATOM     11  F   UNL     1       2.132   4.476  18.094  0.00  0.00    +0.000 F 
ATOM     12  F   UNL     1       3.359   3.368  19.514  0.00  0.00    +0.000 F 
ATOM     13  F   UNL     1       3.120   5.525  19.728  0.00  0.00    +0.000 F 
ENDBRANCH   4  10
ENDBRANCH   1   2
BRANCH   1  15
ATOM     14  O   UNL     1       6.695   8.306  16.904  0.00  0.00    +0.000 OA
ATOM     15  C   UNL     1       7.549   7.971  17.721  0.00  0.00    +0.000 C 
ATOM     16  N   UNL     1       8.453   8.841  18.285  0.00  0.00    +0.000 N 
ATOM     17  H   UNL     1       9.181   8.474  18.891  0.00  0.00    +0.000 HD
BRANCH  16  18
ATOM     18  C   UNL     1       8.386  10.269  18.082  0.00  0.00    +0.000 C 
BRANCH  18  19
ATOM     19  C   UNL     1       9.573  10.950  18.711  0.00  0.00    +0.000 A 
ATOM     20  C   UNL     1      10.676  11.331  17.935  0.00  0.00    +0.000 A 
ATOM     21  C   UNL     1      11.800  11.902  18.536  0.00  0.00    +0.000 A 
ATOM     22  C   UNL     1      11.831  12.096  19.916  0.00  0.00    +0.000 A 
ATOM     23  C   UNL     1      10.738  11.727  20.697  0.00  0.00    +0.000 A 
ATOM     24  C   UNL     1       9.615  11.155  20.098  0.00  0.00    +0.000 A 
ENDBRANCH  18  19
ENDBRANCH  16  18
ENDBRANCH   1  15
TORSDOF 5
ENDMDL
MODEL 6
REMARK VINA RESULT:      -8.0      4.623      6.494
REMARK  Name = 
REMARK  5 active torsions:
REMARK  status: ('A' for Active; 'I' for Inactive)
REMARK    1  A    between atoms: C_2  and  C_3
REMARK    2  A    between atoms: C_3  and  N_4
REMARK    3  A    between atoms: C_6  and  C_7
REMARK    4  A    between atoms: N_16  and  C_17
REMARK    5  A    between atoms: C_17  and  C_18
REMARK                            x       y       z     vdW  Elec       q    Type
REMARK                         _______ _______ _______ _____ _____    ______ ____
ROOT
ATOM      1  C   UNL     1       4.825   3.356  19.198  0.00  0.00    +0.000 C 
ENDROOT
BRANCH   1   2
ATOM      2  N   UNL     1       5.617   4.182  18.289  0.00  0.00    +0.000 N 
ATOM      3  C   UNL     1       5.505   3.989  16.922  0.00  0.00    +0.000 A 
ATOM      4  C   UNL     1       6.197   4.734  16.042  0.00  0.00    +0.000 A 
ATOM      5  C   UNL     1       7.104   5.749  16.554  0.00  0.00    +0.000 A 
ATOM      6  C   UNL     1       7.210   5.992  17.868  0.00  0.00    +0.000 A 
ATOM      7 CL   UNL     1       8.276   7.197  18.473  0.00  0.00    +0.000 Cl
ATOM      8  C   UNL     1       6.397   5.200  18.849  0.00  0.00    +0.000 A 
ATOM      9  O   UNL     1       6.418   5.435  20.056  0.00  0.00    +0.000 OA
BRANCH   4  10
ATOM     10  C   UNL     1       6.055   4.545  14.558  0.00  0.00    +0.000 C 
ATOM     11  F   UNL     1       6.261   3.262  14.166  0.00  0.00    +0.000 F 
ATOM     12  F   UNL     1       4.816   4.892  14.127  0.00  0.00    +0.000 F 
ATOM     13  F   UNL     1       6.940   5.310  13.868  0.00  0.00    +0.000 F 
ENDBRANCH   4  10
ENDBRANCH   1   2
BRANCH   1  15
ATOM     14  O   UNL     1       2.452   3.483  18.784  0.00  0.00    +0.000 OA
ATOM     15  C   UNL     1       3.429   3.955  19.357  0.00  0.00    +0.000 C 
ATOM     16  N   UNL     1       3.393   5.104  20.114  0.00  0.00    +0.000 N 
ATOM     17  H   UNL     1       4.260   5.476  20.489  0.00  0.00    +0.000 HD
BRANCH  16  18
ATOM     18  C   UNL     1       2.160   5.787  20.429  0.00  0.00    +0.000 C 
BRANCH  18  19
ATOM     19  C   UNL     1       2.032   7.050  19.620  0.00  0.00    +0.000 A 
ATOM     20  C   UNL     1       2.593   7.142  18.339  0.00  0.00    +0.000 A 
ATOM     21  C   UNL     1       2.526   8.338  17.621  0.00  0.00    +0.000 A 
ATOM     22  C   UNL     1       1.900   9.452  18.178  0.00  0.00    +0.000 A 
ATOM     23  C   UNL     1       1.334   9.371  19.448  0.00  0.00    +0.000 A 
ATOM     24  C   UNL     1       1.401   8.177  20.167  0.00  0.00    +0.000 A 
ENDBRANCH  18  19
ENDBRANCH  16  18
ENDBRANCH   1  15
TORSDOF 5
ENDMDL
MODEL 7
REMARK VINA RESULT:      -7.7      4.748      7.191
REMARK  Name = 
REMARK  5 active torsions:
REMARK  status: ('A' for Active; 'I' for Inactive)
REMARK    1  A    between atoms: C_2  and  C_3
REMARK    2  A    between atoms: C_3  and  N_4
REMARK    3  A    between atoms: C_6  and  C_7
REMARK    4  A    between atoms: N_16  and  C_17
REMARK    5  A    between atoms: C_17  and  C_18
REMARK                            x       y       z     vdW  Elec       q    Type
REMARK                         _______ _______ _______ _____ _____    ______ ____
ROOT
ATOM      1  C   UNL     1       6.659   4.579  17.274  0.00  0.00    +0.000 C 
ENDROOT
BRANCH   1   2
ATOM      2  N   UNL     1       5.236   4.813  17.508  0.00  0.00    +0.000 N 
ATOM      3  C   UNL     1       4.388   3.731  17.684  0.00  0.00    +0.000 A 
ATOM      4  C   UNL     1       3.074   3.892  17.920  0.00  0.00    +0.000 A 
ATOM      5  C   UNL     1       2.536   5.242  17.965  0.00  0.00    +0.000 A 
ATOM      6  C   UNL     1       3.331   6.314  17.838  0.00  0.00    +0.000 A 
ATOM      7 CL   UNL     1       2.697   7.911  17.899  0.00  0.00    +0.000 Cl
ATOM      8  C   UNL     1       4.807   6.139  17.630  0.00  0.00    +0.000 A 
ATOM      9  O   UNL     1       5.577   7.096  17.574  0.00  0.00    +0.000 OA
BRANCH   4  10
ATOM     10  C   UNL     1       2.158   2.721  18.140  0.00  0.00    +0.000 C 
ATOM     11  F   UNL     1       2.274   1.771  17.176  0.00  0.00    +0.000 F 
ATOM     12  F   UNL     1       2.408   2.107  19.325  0.00  0.00    +0.000 F 
ATOM     13  F   UNL     1       0.855   3.099  18.159  0.00  0.00    +0.000 F 
ENDBRANCH   4  10
ENDBRANCH   1   2
BRANCH   1  15
ATOM     14  O   UNL     1       7.716   6.188  15.821  0.00  0.00    +0.000 OA
ATOM     15  C   UNL     1       7.062   5.153  15.918  0.00  0.00    +0.000 C 
ATOM     16  N   UNL     1       6.552   4.465  14.842  0.00  0.00    +0.000 N 
ATOM     17  H   UNL     1       5.952   3.662  15.008  0.00  0.00    +0.000 HD
BRANCH  16  18
ATOM     18  C   UNL     1       6.867   4.815  13.477  0.00  0.00    +0.000 C 
BRANCH  18  19
ATOM     19  C   UNL     1       6.482   3.700  12.541  0.00  0.00    +0.000 A 
ATOM     20  C   UNL     1       5.134   3.415  12.281  0.00  0.00    +0.000 A 
ATOM     21  C   UNL     1       4.784   2.338  11.463  0.00  0.00    +0.000 A 
ATOM     22  C   UNL     1       5.776   1.537  10.901  0.00  0.00    +0.000 A 
ATOM     23  C   UNL     1       7.119   1.814  11.147  0.00  0.00    +0.000 A 
ATOM     24  C   UNL     1       7.471   2.889  11.965  0.00  0.00    +0.000 A 
ENDBRANCH  18  19
ENDBRANCH  16  18
ENDBRANCH   1  15
TORSDOF 5
ENDMDL
MODEL 8
REMARK VINA RESULT:      -7.7      4.667      6.927
REMARK  Name = 
REMARK  5 active torsions:
REMARK  status: ('A' for Active; 'I' for Inactive)
REMARK    1  A    between atoms: C_2  and  C_3
REMARK    2  A    between atoms: C_3  and  N_4
REMARK    3  A    between atoms: C_6  and  C_7
REMARK    4  A    between atoms: N_16  and  C_17
REMARK    5  A    between atoms: C_17  and  C_18
REMARK                            x       y       z     vdW  Elec       q    Type
REMARK                         _______ _______ _______ _____ _____    ______ ____
ROOT
ATOM      1  C   UNL     1       4.085   7.295  17.458  0.00  0.00    +0.000 C 
ENDROOT
BRANCH   1   2
ATOM      2  N   UNL     1       4.438   5.968  16.959  0.00  0.00    +0.000 N 
ATOM      3  C   UNL     1       3.952   4.845  17.608  0.00  0.00    +0.000 A 
ATOM      4  C   UNL     1       4.232   3.601  17.179  0.00  0.00    +0.000 A 
ATOM      5  C   UNL     1       5.089   3.445  16.016  0.00  0.00    +0.000 A 
ATOM      6  C   UNL     1       5.546   4.507  15.338  0.00  0.00    +0.000 A 
ATOM      7 CL   UNL     1       6.554   4.323  13.957  0.00  0.00    +0.000 Cl
ATOM      8  C   UNL     1       5.190   5.896  15.781  0.00  0.00    +0.000 A 
ATOM      9  O   UNL     1       5.536   6.893  15.149  0.00  0.00    +0.000 OA
BRANCH   4  10
ATOM     10  C   UNL     1       3.683   2.383  17.866  0.00  0.00    +0.000 C 
ATOM     11  F   UNL     1       2.345   2.234  17.690  0.00  0.00    +0.000 F 
ATOM     12  F   UNL     1       4.267   1.247  17.408  0.00  0.00    +0.000 F 
ATOM     13  F   UNL     1       3.897   2.424  19.206  0.00  0.00    +0.000 F 
ENDBRANCH   4  10
ENDBRANCH   1   2
BRANCH   1  15
ATOM     14  O   UNL     1       1.736   7.609  17.910  0.00  0.00    +0.000 OA
ATOM     15  C   UNL     1       2.824   7.207  18.314  0.00  0.00    +0.000 C 
ATOM     16  N   UNL     1       3.040   6.731  19.587  0.00  0.00    +0.000 N 
ATOM     17  H   UNL     1       3.986   6.494  19.872  0.00  0.00    +0.000 HD
BRANCH  16  18
ATOM     18  C   UNL     1       1.966   6.519  20.529  0.00  0.00    +0.000 C 
BRANCH  18  19
ATOM     19  C   UNL     1       1.717   5.046  20.723  0.00  0.00    +0.000 A 
ATOM     20  C   UNL     1       2.457   4.310  21.658  0.00  0.00    +0.000 A 
ATOM     21  C   UNL     1       2.264   2.932  21.786  0.00  0.00    +0.000 A 
ATOM     22  C   UNL     1       1.334   2.279  20.980  0.00  0.00    +0.000 A 
ATOM     23  C   UNL     1       0.588   3.002  20.051  0.00  0.00    +0.000 A 
ATOM     24  C   UNL     1       0.780   4.378  19.921  0.00  0.00    +0.000 A 
ENDBRANCH  18  19
ENDBRANCH  16  18
ENDBRANCH   1  15
TORSDOF 5
ENDMDL
MODEL 9
REMARK VINA RESULT:      -7.6      4.110      6.350
REMARK  Name = 
REMARK  5 active torsions:
REMARK  status: ('A' for Active; 'I' for Inactive)
REMARK    1  A    between atoms: C_2  and  C_3
REMARK    2  A    between atoms: C_3  and  N_4
REMARK    3  A    between atoms: C_6  and  C_7
REMARK    4  A    between atoms: N_16  and  C_17
REMARK    5  A    between atoms: C_17  and  C_18
REMARK                            x       y       z     vdW  Elec       q    Type
REMARK                         _______ _______ _______ _____ _____    ______ ____
ROOT
ATOM      1  C   UNL     1       4.438   3.963  19.297  0.00  0.00    +0.000 C 
ENDROOT
BRANCH   1   2
ATOM      2  N   UNL     1       5.130   4.602  18.180  0.00  0.00    +0.000 N 
ATOM      3  C   UNL     1       5.958   5.685  18.422  0.00  0.00    +0.000 A 
ATOM      4  C   UNL     1       6.632   6.298  17.432  0.00  0.00    +0.000 A 
ATOM      5  C   UNL     1       6.458   5.814  16.072  0.00  0.00    +0.000 A 
ATOM      6  C   UNL     1       5.697   4.745  15.803  0.00  0.00    +0.000 A 
ATOM      7 CL   UNL     1       5.497   4.168  14.195  0.00  0.00    +0.000 Cl
ATOM      8  C   UNL     1       4.987   4.026  16.913  0.00  0.00    +0.000 A 
ATOM      9  O   UNL     1       4.332   3.003  16.715  0.00  0.00    +0.000 OA
BRANCH   4  10
ATOM     10  C   UNL     1       7.553   7.455  17.697  0.00  0.00    +0.000 C 
ATOM     11  F   UNL     1       6.889   8.605  17.983  0.00  0.00    +0.000 F 
ATOM     12  F   UNL     1       8.376   7.207  18.747  0.00  0.00    +0.000 F 
ATOM     13  F   UNL     1       8.347   7.719  16.628  0.00  0.00    +0.000 F 
ENDBRANCH   4  10
ENDBRANCH   1   2
BRANCH   1  15
ATOM     14  O   UNL     1       2.061   4.203  18.962  0.00  0.00    +0.000 OA
ATOM     15  C   UNL     1       3.078   4.623  19.509  0.00  0.00    +0.000 C 
ATOM     16  N   UNL     1       3.119   5.763  20.278  0.00  0.00    +0.000 N 
ATOM     17  H   UNL     1       4.013   6.090  20.629  0.00  0.00    +0.000 HD
BRANCH  16  18
ATOM     18  C   UNL     1       1.929   6.496  20.642  0.00  0.00    +0.000 C 
BRANCH  18  19
ATOM     19  C   UNL     1       1.813   7.755  19.823  0.00  0.00    +0.000 A 
ATOM     20  C   UNL     1       1.084   8.855  20.297  0.00  0.00    +0.000 A 
ATOM     21  C   UNL     1       0.927   9.994  19.504  0.00  0.00    +0.000 A 
ATOM     22  C   UNL     1       1.493  10.043  18.231  0.00  0.00    +0.000 A 
ATOM     23  C   UNL     1       2.224   8.958  17.752  0.00  0.00    +0.000 A 
ATOM     24  C   UNL     1       2.382   7.818  18.543  0.00  0.00    +0.000 A 
ENDBRANCH  18  19
ENDBRANCH  16  18
ENDBRANCH   1  15
TORSDOF 5
ENDMDL
