MODEL 1
REMARK VINA RESULT:      -7.5      0.000      0.000
REMARK  Name = 
REMARK  5 active torsions:
REMARK  status: ('A' for Active; 'I' for Inactive)
REMARK    1  A    between atoms: N_1  and  C_2
REMARK    2  A    between atoms: N_5  and  C_6
REMARK    3  A    between atoms: C_15  and  C_16
REMARK    4  A    between atoms: C_16  and  O_18
REMARK    5  A    between atoms: N_20  and  C_21
REMARK                            x       y       z     vdW  Elec       q    Type
REMARK                         _______ _______ _______ _____ _____    ______ ____
ROOT
ATOM      1  C   UNL     1       1.731   8.104  19.378  0.00  0.00    +0.000 A 
ATOM      2  N   UNL     1       2.620   7.450  18.579  0.00  0.00    +0.000 NA
ATOM      3  C   UNL     1       3.019   6.190  18.886  0.00  0.00    +0.000 A 
ATOM      4  C   UNL     1       2.509   5.530  20.009  0.00  0.00    +0.000 A 
ATOM      5  C   UNL     1       1.592   6.170  20.829  0.00  0.00    +0.000 A 
ATOM      6  C   UNL     1       1.205   7.459  20.506  0.00  0.00    +0.000 A 
ATOM      7  F   UNL     1       0.348   8.071  21.337  0.00  0.00    +0.000 F 
ATOM      8  C   UNL     1       2.959   4.162  20.336  0.00  0.00    +0.000 A 
ATOM      9  O   UNL     1       2.538   3.570  21.328  0.00  0.00    +0.000 OA
ATOM     10  C   UNL     1       3.925   3.504  19.436  0.00  0.00    +0.000 A 
ATOM     11  C   UNL     1       4.355   4.217  18.383  0.00  0.00    +0.000 A 
ATOM     12  N   UNL     1       3.993   5.519  18.091  0.00  0.00    +0.000 N 
ENDROOT
BRANCH   1  16
ATOM     13  C   UNL     1       0.560  11.618  19.079  0.00  0.00    +0.000 C 
ATOM     14  C   UNL     1       1.963  11.580  18.463  0.00  0.00    +0.000 C 
ATOM     15  C   UNL     1       2.162  10.132  18.032  0.00  0.00    +0.000 C 
ATOM     16  N   UNL     1       1.456   9.411  19.075  0.00  0.00    +0.000 N 
ATOM     17  C   UNL     1       0.258  10.143  19.466  0.00  0.00    +0.000 C 
BRANCH  13  18
ATOM     18  N   UNL     1      -0.416  12.204  18.156  0.00  0.00    +0.000 NA
ATOM     19  H   UNL     1      -1.223  11.583  18.085  0.00  0.00    +0.000 HD
ATOM     20  H   UNL     1      -0.015  12.246  17.219  0.00  0.00    +0.000 HD
ENDBRANCH  13  18
ENDBRANCH   1  16
BRANCH  12  21
ATOM     21  C   UNL     1       4.509   6.135  16.857  0.00  0.00    +0.000 C 
ATOM     22  C   UNL     1       5.981   6.291  16.571  0.00  0.00    +0.000 C 
ATOM     23  C   UNL     1       5.181   5.294  15.794  0.00  0.00    +0.000 C 
ENDBRANCH  12  21
BRANCH  10  24
ATOM     24  C   UNL     1       4.431   2.132  19.643  0.00  0.00    +0.000 C 
ATOM     25  O   UNL     1       5.135   1.818  20.594  0.00  0.00    +0.000 OA
BRANCH  24  26
ATOM     26  O   UNL     1       4.051   1.244  18.701  0.00  0.00    +0.000 OA
ATOM     27  H   UNL     1       4.512   1.348  17.833  0.00  0.00    +0.000 HD
ENDBRANCH  24  26
ENDBRANCH  10  24
TORSDOF 5
ENDMDL
MODEL 2
REMARK VINA RESULT:      -7.5      4.709      6.433
REMARK  Name = 
REMARK  5 active torsions:
REMARK  status: ('A' for Active; 'I' for Inactive)
REMARK    1  A    between atoms: N_1  and  C_2
REMARK    2  A    between atoms: N_5  and  C_6
REMARK    3  A    between atoms: C_15  and  C_16
REMARK    4  A    between atoms: C_16  and  O_18
REMARK    5  A    between atoms: N_20  and  C_21
REMARK                            x       y       z     vdW  Elec       q    Type
REMARK                         _______ _______ _______ _____ _____    ______ ____
ROOT
ATOM      1  C   UNL     1       3.676   4.002  18.153  0.00  0.00    +0.000 A 
ATOM      2  N   UNL     1       4.678   4.914  18.017  0.00  0.00    +0.000 NA
ATOM      3  C   UNL     1       5.417   4.957  16.879  0.00  0.00    +0.000 A 
ATOM      4  C   UNL     1       5.148   4.087  15.817  0.00  0.00    +0.000 A 
ATOM      5  C   UNL     1       4.123   3.159  15.927  0.00  0.00    +0.000 A 
ATOM      6  C   UNL     1       3.388   3.123  17.099  0.00  0.00    +0.000 A 
ATOM      7  F   UNL     1       2.429   2.190  17.196  0.00  0.00    +0.000 F 
ATOM      8  C   UNL     1       5.964   4.139  14.589  0.00  0.00    +0.000 A 
ATOM      9  O   UNL     1       5.758   3.372  13.650  0.00  0.00    +0.000 OA
ATOM     10  C   UNL     1       7.039   5.146  14.498  0.00  0.00    +0.000 A 
ATOM     11  C   UNL     1       7.219   5.937  15.567  0.00  0.00    +0.000 A 
ATOM     12  N   UNL     1       6.506   5.867  16.750  0.00  0.00    +0.000 N 
ENDROOT
BRANCH   1  16
ATOM     13  C   UNL     1       2.480   3.426  21.624  0.00  0.00    +0.000 C 
ATOM     14  C   UNL     1       1.885   4.768  21.183  0.00  0.00    +0.000 C 
ATOM     15  C   UNL     1       1.845   4.697  19.661  0.00  0.00    +0.000 C 
ATOM     16  N   UNL     1       3.045   3.936  19.366  0.00  0.00    +0.000 N 
ATOM     17  C   UNL     1       3.240   2.900  20.373  0.00  0.00    +0.000 C 
BRANCH  13  18
ATOM     18  N   UNL     1       1.443   2.516  22.118  0.00  0.00    +0.000 NA
ATOM     19  H   UNL     1       1.027   2.024  21.326  0.00  0.00    +0.000 HD
ATOM     20  H   UNL     1       0.687   3.057  22.537  0.00  0.00    +0.000 HD
ENDBRANCH  13  18
ENDBRANCH   1  16
BRANCH  12  21
ATOM     21  C   UNL     1       6.788   6.855  17.804  0.00  0.00    +0.000 C 
ATOM     22  C   UNL     1       8.077   6.877  18.586  0.00  0.00    +0.000 C 
ATOM     23  C   UNL     1       7.805   7.954  17.585  0.00  0.00    +0.000 C 
ENDBRANCH  12  21
BRANCH  10  24
ATOM     24  C   UNL     1       7.905   5.312  13.315  0.00  0.00    +0.000 C 
ATOM     25  O   UNL     1       8.949   5.952  13.337  0.00  0.00    +0.000 OA
BRANCH  24  26
ATOM     26  O   UNL     1       7.460   4.697  12.200  0.00  0.00    +0.000 OA
ATOM     27  H   UNL     1       6.885   3.911  12.369  0.00  0.00    +0.000 HD
ENDBRANCH  24  26
ENDBRANCH  10  24
TORSDOF 5
ENDMDL
MODEL 3
REMARK VINA RESULT:      -7.4      0.999      1.240
REMARK  Name = 
REMARK  5 active torsions:
REMARK  status: ('A' for Active; 'I' for Inactive)
REMARK    1  A    between atoms: N_1  and  C_2
REMARK    2  A    between atoms: N_5  and  C_6
REMARK    3  A    between atoms: C_15  and  C_16
REMARK    4  A    between atoms: C_16  and  O_18
REMARK    5  A    between atoms: N_20  and  C_21
REMARK                            x       y       z     vdW  Elec       q    Type
REMARK                         _______ _______ _______ _____ _____    ______ ____
ROOT
ATOM      1  C   UNL     1       1.956   7.424  19.585  0.00  0.00    +0.000 A 
ATOM      2  N   UNL     1       3.018   6.869  18.937  0.00  0.00    +0.000 NA
ATOM      3  C   UNL     1       3.410   5.601  19.223  0.00  0.00    +0.000 A 
ATOM      4  C   UNL     1       2.719   4.833  20.165  0.00  0.00    +0.000 A 
ATOM      5  C   UNL     1       1.626   5.372  20.828  0.00  0.00    +0.000 A 
ATOM      6  C   UNL     1       1.248   6.669  20.531  0.00  0.00    +0.000 A 
ATOM      7  F   UNL     1       0.213   7.180  21.214  0.00  0.00    +0.000 F 
ATOM      8  C   UNL     1       3.162   3.459  20.473  0.00  0.00    +0.000 A 
ATOM      9  O   UNL     1       2.581   2.772  21.311  0.00  0.00    +0.000 OA
ATOM     10  C   UNL     1       4.321   2.911  19.741  0.00  0.00    +0.000 A 
ATOM     11  C   UNL     1       4.916   3.724  18.855  0.00  0.00    +0.000 A 
ATOM     12  N   UNL     1       4.556   5.033  18.594  0.00  0.00    +0.000 N 
ENDROOT
BRANCH   1  16
ATOM     13  C   UNL     1       1.251  10.819  18.250  0.00  0.00    +0.000 C 
ATOM     14  C   UNL     1       0.614  10.765  19.643  0.00  0.00    +0.000 C 
ATOM     15  C   UNL     1       1.396   9.692  20.391  0.00  0.00    +0.000 C 
ATOM     16  N   UNL     1       1.682   8.741  19.332  0.00  0.00    +0.000 N 
ATOM     17  C   UNL     1       1.964   9.447  18.089  0.00  0.00    +0.000 C 
BRANCH  13  18
ATOM     18  N   UNL     1       2.143  11.974  18.113  0.00  0.00    +0.000 NA
ATOM     19  H   UNL     1       2.926  11.721  17.510  0.00  0.00    +0.000 HD
ATOM     20  H   UNL     1       2.552  12.198  19.020  0.00  0.00    +0.000 HD
ENDBRANCH  13  18
ENDBRANCH   1  16
BRANCH  12  21
ATOM     21  C   UNL     1       5.276   5.767  17.541  0.00  0.00    +0.000 C 
ATOM     22  C   UNL     1       6.365   5.144  16.704  0.00  0.00    +0.000 C 
ATOM     23  C   UNL     1       5.043   5.454  16.079  0.00  0.00    +0.000 C 
ENDBRANCH  12  21
BRANCH  10  24
ATOM     24  C   UNL     1       4.842   1.545  19.943  0.00  0.00    +0.000 C 
ATOM     25  O   UNL     1       5.487   1.216  20.931  0.00  0.00    +0.000 OA
BRANCH  24  26
ATOM     26  O   UNL     1       4.549   0.678  18.952  0.00  0.00    +0.000 OA
ATOM     27  H   UNL     1       4.023  -0.108  19.239  0.00  0.00    +0.000 HD
ENDBRANCH  24  26
ENDBRANCH  10  24
TORSDOF 5
ENDMDL
MODEL 4
REMARK VINA RESULT:      -7.4      2.426      3.781
REMARK  Name = 
REMARK  5 active torsions:
REMARK  status: ('A' for Active; 'I' for Inactive)
REMARK    1  A    between atoms: N_1  and  C_2
REMARK    2  A    between atoms: N_5  and  C_6
REMARK    3  A    between atoms: C_15  and  C_16
REMARK    4  A    between atoms: C_16  and  O_18
REMARK    5  A    between atoms: N_20  and  C_21
REMARK                            x       y       z     vdW  Elec       q    Type
REMARK                         _______ _______ _______ _____ _____    ______ ____
ROOT
ATOM      1  C   UNL     1       1.666   8.419  19.855  0.00  0.00    +0.000 A 
ATOM      2  N   UNL     1       1.836   7.116  20.214  0.00  0.00    +0.000 NA
ATOM      3  C   UNL     1       2.552   6.275  19.424  0.00  0.00    +0.000 A 
ATOM      4  C   UNL     1       3.150   6.733  18.246  0.00  0.00    +0.000 A 
ATOM      5  C   UNL     1       3.002   8.060  17.868  0.00  0.00    +0.000 A 
ATOM      6  C   UNL     1       2.259   8.899  18.679  0.00  0.00    +0.000 A 
ATOM      7  F   UNL     1       2.099  10.167  18.271  0.00  0.00    +0.000 F 
ATOM      8  C   UNL     1       3.918   5.806  17.393  0.00  0.00    +0.000 A 
ATOM      9  O   UNL     1       4.437   6.183  16.343  0.00  0.00    +0.000 OA
ATOM     10  C   UNL     1       4.067   4.405  17.830  0.00  0.00    +0.000 A 
ATOM     11  C   UNL     1       3.460   4.060  18.976  0.00  0.00    +0.000 A 
ATOM     12  N   UNL     1       2.686   4.896  19.759  0.00  0.00    +0.000 N 
ENDROOT
BRANCH   1  16
ATOM     13  C   UNL     1      -0.089  10.434  22.437  0.00  0.00    +0.000 C 
ATOM     14  C   UNL     1      -0.623  10.913  21.083  0.00  0.00    +0.000 C 
ATOM     15  C   UNL     1      -0.405   9.738  20.138  0.00  0.00    +0.000 C 
ATOM     16  N   UNL     1       0.841   9.184  20.635  0.00  0.00    +0.000 N 
ATOM     17  C   UNL     1       0.880   9.269  22.090  0.00  0.00    +0.000 C 
BRANCH  13  18
ATOM     18  N   UNL     1      -1.180  10.053  23.340  0.00  0.00    +0.000 NA
ATOM     19  H   UNL     1      -2.016  10.583  23.094  0.00  0.00    +0.000 HD
ATOM     20  H   UNL     1      -0.945  10.330  24.293  0.00  0.00    +0.000 HD
ENDBRANCH  13  18
ENDBRANCH   1  16
BRANCH  12  21
ATOM     21  C   UNL     1       2.142   4.374  21.024  0.00  0.00    +0.000 C 
ATOM     22  C   UNL     1       1.111   3.275  21.084  0.00  0.00    +0.000 C 
ATOM     23  C   UNL     1       2.514   2.993  21.517  0.00  0.00    +0.000 C 
ENDBRANCH  12  21
BRANCH  10  24
ATOM     24  C   UNL     1       4.831   3.391  17.077  0.00  0.00    +0.000 C 
ATOM     25  O   UNL     1       5.739   3.677  16.306  0.00  0.00    +0.000 OA
BRANCH  24  26
ATOM     26  O   UNL     1       4.454   2.117  17.306  0.00  0.00    +0.000 OA
ATOM     27  H   UNL     1       5.205   1.481  17.410  0.00  0.00    +0.000 HD
ENDBRANCH  24  26
ENDBRANCH  10  24
TORSDOF 5
ENDMDL
MODEL 5
REMARK VINA RESULT:      -7.2      0.701      1.176
REMARK  Name = 
REMARK  5 active torsions:
REMARK  status: ('A' for Active; 'I' for Inactive)
REMARK    1  A    between atoms: N_1  and  C_2
REMARK    2  A    between atoms: N_5  and  C_6
REMARK    3  A    between atoms: C_15  and  C_16
REMARK    4  A    between atoms: C_16  and  O_18
REMARK    5  A    between atoms: N_20  and  C_21
REMARK                            x       y       z     vdW  Elec       q    Type
REMARK                         _______ _______ _______ _____ _____    ______ ____
ROOT
ATOM      1  C   UNL     1       1.552   8.153  19.725  0.00  0.00    +0.000 A 
ATOM      2  N   UNL     1       2.453   7.587  18.874  0.00  0.00    +0.000 NA
ATOM      3  C   UNL     1       2.842   6.298  19.045  0.00  0.00    +0.000 A 
ATOM      4  C   UNL     1       2.310   5.520  20.078  0.00  0.00    +0.000 A 
ATOM      5  C   UNL     1       1.381   6.070  20.949  0.00  0.00    +0.000 A 
ATOM      6  C   UNL     1       1.005   7.389  20.765  0.00  0.00    +0.000 A 
ATOM      7  F   UNL     1       0.135   7.910  21.644  0.00  0.00    +0.000 F 
ATOM      8  C   UNL     1       2.750   4.123  20.259  0.00  0.00    +0.000 A 
ATOM      9  O   UNL     1       2.309   3.426  21.171  0.00  0.00    +0.000 OA
ATOM     10  C   UNL     1       3.729   3.564  19.307  0.00  0.00    +0.000 A 
ATOM     11  C   UNL     1       4.180   4.387  18.348  0.00  0.00    +0.000 A 
ATOM     12  N   UNL     1       3.828   5.715  18.197  0.00  0.00    +0.000 N 
ENDROOT
BRANCH   1  16
ATOM     13  C   UNL     1       0.749  11.615  18.641  0.00  0.00    +0.000 C 
ATOM     14  C   UNL     1       0.365  11.530  20.123  0.00  0.00    +0.000 C 
ATOM     15  C   UNL     1       1.227  10.407  20.686  0.00  0.00    +0.000 C 
ATOM     16  N   UNL     1       1.287   9.486  19.565  0.00  0.00    +0.000 N 
ATOM     17  C   UNL     1       1.371  10.229  18.314  0.00  0.00    +0.000 C 
BRANCH  13  18
ATOM     18  N   UNL     1       1.645  12.746  18.383  0.00  0.00    +0.000 NA
ATOM     19  H   UNL     1       1.937  12.724  17.406  0.00  0.00    +0.000 HD
ATOM     20  H   UNL     1       2.498  12.637  18.931  0.00  0.00    +0.000 HD
ENDBRANCH  13  18
ENDBRANCH   1  16
BRANCH  12  21
ATOM     21  C   UNL     1       4.367   6.462  17.048  0.00  0.00    +0.000 C 
ATOM     22  C   UNL     1       5.834   6.771  16.886  0.00  0.00    +0.000 C 
ATOM     23  C   UNL     1       5.190   5.764  15.987  0.00  0.00    +0.000 C 
ENDBRANCH  12  21
BRANCH  10  24
ATOM     24  C   UNL     1       4.226   2.175  19.369  0.00  0.00    +0.000 C 
ATOM     25  O   UNL     1       3.855   1.299  18.598  0.00  0.00    +0.000 OA
BRANCH  24  26
ATOM     26  O   UNL     1       5.130   1.943  20.343  0.00  0.00    +0.000 OA
ATOM     27  H   UNL     1       5.380   2.742  20.868  0.00  0.00    +0.000 HD
ENDBRANCH  24  26
ENDBRANCH  10  24
TORSDOF 5
ENDMDL
MODEL 6
REMARK VINA RESULT:      -7.2      2.752      4.045
REMARK  Name = 
REMARK  5 active torsions:
REMARK  status: ('A' for Active; 'I' for Inactive)
REMARK    1  A    between atoms: N_1  and  C_2
REMARK    2  A    between atoms: N_5  and  C_6
REMARK    3  A    between atoms: C_15  and  C_16
REMARK    4  A    between atoms: C_16  and  O_18
REMARK    5  A    between atoms: N_20  and  C_21
REMARK                            x       y       z     vdW  Elec       q    Type
REMARK                         _______ _______ _______ _____ _____    ______ ____
ROOT
ATOM      1  C   UNL     1       2.263   7.891  19.379  0.00  0.00    +0.000 A 
ATOM      2  N   UNL     1       2.805   6.663  19.613  0.00  0.00    +0.000 NA
ATOM      3  C   UNL     1       3.634   6.095  18.700  0.00  0.00    +0.000 A 
ATOM      4  C   UNL     1       3.968   6.766  17.520  0.00  0.00    +0.000 A 
ATOM      5  C   UNL     1       3.440   8.023  17.267  0.00  0.00    +0.000 A 
ATOM      6  C   UNL     1       2.588   8.581  18.203  0.00  0.00    +0.000 A 
ATOM      7  F   UNL     1       2.058   9.781  17.917  0.00  0.00    +0.000 F 
ATOM      8  C   UNL     1       4.864   6.133  16.532  0.00  0.00    +0.000 A 
ATOM      9  O   UNL     1       5.157   6.696  15.479  0.00  0.00    +0.000 OA
ATOM     10  C   UNL     1       5.420   4.800  16.838  0.00  0.00    +0.000 A 
ATOM     11  C   UNL     1       5.043   4.238  17.996  0.00  0.00    +0.000 A 
ATOM     12  N   UNL     1       4.159   4.786  18.907  0.00  0.00    +0.000 N 
ENDROOT
BRANCH   1  16
ATOM     13  C   UNL     1      -0.172   9.736  21.494  0.00  0.00    +0.000 C 
ATOM     14  C   UNL     1      -0.537   8.252  21.615  0.00  0.00    +0.000 C 
ATOM     15  C   UNL     1       0.752   7.505  21.297  0.00  0.00    +0.000 C 
ATOM     16  N   UNL     1       1.348   8.357  20.285  0.00  0.00    +0.000 N 
ATOM     17  C   UNL     1       1.102   9.758  20.603  0.00  0.00    +0.000 C 
BRANCH  13  18
ATOM     18  N   UNL     1       0.011  10.352  22.811  0.00  0.00    +0.000 NA
ATOM     19  H   UNL     1       0.290  11.326  22.688  0.00  0.00    +0.000 HD
ATOM     20  H   UNL     1       0.786   9.899  23.294  0.00  0.00    +0.000 HD
ENDBRANCH  13  18
ENDBRANCH   1  16
BRANCH  12  21
ATOM     21  C   UNL     1       3.903   4.064  20.164  0.00  0.00    +0.000 C 
ATOM     22  C   UNL     1       2.598   3.366  20.458  0.00  0.00    +0.000 C 
ATOM     23  C   UNL     1       3.824   2.553  20.188  0.00  0.00    +0.000 C 
ENDBRANCH  12  21
BRANCH  10  24
ATOM     24  C   UNL     1       6.344   4.076  15.943  0.00  0.00    +0.000 C 
ATOM     25  O   UNL     1       5.986   3.556  14.893  0.00  0.00    +0.000 OA
BRANCH  24  26
ATOM     26  O   UNL     1       7.623   4.034  16.368  0.00  0.00    +0.000 OA
ATOM     27  H   UNL     1       8.212   3.446  15.835  0.00  0.00    +0.000 HD
ENDBRANCH  24  26
ENDBRANCH  10  24
TORSDOF 5
ENDMDL
MODEL 7
REMARK VINA RESULT:      -7.2      4.120      7.722
REMARK  Name = 
REMARK  5 active torsions:
REMARK  status: ('A' for Active; 'I' for Inactive)
REMARK    1  A    between atoms: N_1  and  C_2
REMARK    2  A    between atoms: N_5  and  C_6
REMARK    3  A    between atoms: C_15  and  C_16
REMARK    4  A    between atoms: C_16  and  O_18
REMARK    5  A    between atoms: N_20  and  C_21
REMARK                            x       y       z     vdW  Elec       q    Type
REMARK                         _______ _______ _______ _____ _____    ______ ____
ROOT
ATOM      1  C   UNL     1       2.274   6.535  19.425  0.00  0.00    +0.000 A 
ATOM      2  N   UNL     1       1.549   7.359  20.232  0.00  0.00    +0.000 NA
ATOM      3  C   UNL     1       1.373   8.663  19.899  0.00  0.00    +0.000 A 
ATOM      4  C   UNL     1       1.907   9.179  18.715  0.00  0.00    +0.000 A 
ATOM      5  C   UNL     1       2.638   8.355  17.871  0.00  0.00    +0.000 A 
ATOM      6  C   UNL     1       2.816   7.032  18.232  0.00  0.00    +0.000 A 
ATOM      7  F   UNL     1       3.560   6.266  17.419  0.00  0.00    +0.000 F 
ATOM      8  C   UNL     1       1.716  10.601  18.370  0.00  0.00    +0.000 A 
ATOM      9  O   UNL     1       2.192  11.081  17.343  0.00  0.00    +0.000 OA
ATOM     10  C   UNL     1       0.922  11.447  19.283  0.00  0.00    +0.000 A 
ATOM     11  C   UNL     1       0.449  10.861  20.393  0.00  0.00    +0.000 A 
ATOM     12  N   UNL     1       0.666   9.548  20.765  0.00  0.00    +0.000 N 
ENDROOT
BRANCH   1  16
ATOM     13  C   UNL     1       2.241   3.048  20.710  0.00  0.00    +0.000 C 
ATOM     14  C   UNL     1       3.518   3.185  19.874  0.00  0.00    +0.000 C 
ATOM     15  C   UNL     1       3.836   4.675  19.886  0.00  0.00    +0.000 C 
ATOM     16  N   UNL     1       2.509   5.263  19.873  0.00  0.00    +0.000 N 
ATOM     17  C   UNL     1       1.602   4.466  20.690  0.00  0.00    +0.000 C 
BRANCH  13  18
ATOM     18  N   UNL     1       2.531   2.543  22.055  0.00  0.00    +0.000 NA
ATOM     19  H   UNL     1       3.112   3.222  22.548  0.00  0.00    +0.000 HD
ATOM     20  H   UNL     1       3.092   1.695  21.986  0.00  0.00    +0.000 HD
ENDBRANCH  13  18
ENDBRANCH   1  16
BRANCH  12  21
ATOM     21  C   UNL     1       0.018   9.044  21.988  0.00  0.00    +0.000 C 
ATOM     22  C   UNL     1       0.531   9.347  23.373  0.00  0.00    +0.000 C 
ATOM     23  C   UNL     1      -0.741   9.978  22.904  0.00  0.00    +0.000 C 
ENDBRANCH  12  21
BRANCH  10  24
ATOM     24  C   UNL     1       0.641  12.875  19.035  0.00  0.00    +0.000 C 
ATOM     25  O   UNL     1       0.988  13.766  19.801  0.00  0.00    +0.000 OA
BRANCH  24  26
ATOM     26  O   UNL     1      -0.027  13.127  17.891  0.00  0.00    +0.000 OA
ATOM     27  H   UNL     1      -0.863  12.611  17.784  0.00  0.00    +0.000 HD
ENDBRANCH  24  26
ENDBRANCH  10  24
TORSDOF 5
ENDMDL
MODEL 8
REMARK VINA RESULT:      -7.1      3.915      7.650
REMARK  Name = 
REMARK  5 active torsions:
REMARK  status: ('A' for Active; 'I' for Inactive)
REMARK    1  A    between atoms: N_1  and  C_2
REMARK    2  A    between atoms: N_5  and  C_6
REMARK    3  A    between atoms: C_15  and  C_16
REMARK    4  A    between atoms: C_16  and  O_18
REMARK    5  A    between atoms: N_20  and  C_21
REMARK                            x       y       z     vdW  Elec       q    Type
REMARK                         _______ _______ _______ _____ _____    ______ ____
ROOT
ATOM      1  C   UNL     1       2.720   6.139  19.143  0.00  0.00    +0.000 A 
ATOM      2  N   UNL     1       2.073   6.932  20.043  0.00  0.00    +0.000 NA
ATOM      3  C   UNL     1       1.817   8.233  19.751  0.00  0.00    +0.000 A 
ATOM      4  C   UNL     1       2.186   8.776  18.516  0.00  0.00    +0.000 A 
ATOM      5  C   UNL     1       2.833   7.984  17.579  0.00  0.00    +0.000 A 
ATOM      6  C   UNL     1       3.095   6.664  17.899  0.00  0.00    +0.000 A 
ATOM      7  F   UNL     1       3.757   5.930  16.991  0.00  0.00    +0.000 F 
ATOM      8  C   UNL     1       1.909  10.194  18.216  0.00  0.00    +0.000 A 
ATOM      9  O   UNL     1       2.241  10.698  17.144  0.00  0.00    +0.000 OA
ATOM     10  C   UNL     1       1.208  11.006  19.229  0.00  0.00    +0.000 A 
ATOM     11  C   UNL     1       0.893  10.396  20.381  0.00  0.00    +0.000 A 
ATOM     12  N   UNL     1       1.195   9.087  20.708  0.00  0.00    +0.000 N 
ENDROOT
BRANCH   1  16
ATOM     13  C   UNL     1       4.225   2.954  20.324  0.00  0.00    +0.000 C 
ATOM     14  C   UNL     1       2.728   2.861  20.636  0.00  0.00    +0.000 C 
ATOM     15  C   UNL     1       2.063   3.810  19.645  0.00  0.00    +0.000 C 
ATOM     16  N   UNL     1       3.047   4.872  19.543  0.00  0.00    +0.000 N 
ATOM     17  C   UNL     1       4.392   4.311  19.584  0.00  0.00    +0.000 C 
BRANCH  13  18
ATOM     18  N   UNL     1       4.686   1.795  19.554  0.00  0.00    +0.000 NA
ATOM     19  H   UNL     1       5.462   2.079  18.956  0.00  0.00    +0.000 HD
ATOM     20  H   UNL     1       3.946   1.489  18.923  0.00  0.00    +0.000 HD
ENDBRANCH  13  18
ENDBRANCH   1  16
BRANCH  12  21
ATOM     21  C   UNL     1       0.718   8.552  21.994  0.00  0.00    +0.000 C 
ATOM     22  C   UNL     1       0.260   9.431  23.130  0.00  0.00    +0.000 C 
ATOM     23  C   UNL     1      -0.745   8.626  22.370  0.00  0.00    +0.000 C 
ENDBRANCH  12  21
BRANCH  10  24
ATOM     24  C   UNL     1       0.854  12.426  19.036  0.00  0.00    +0.000 C 
ATOM     25  O   UNL     1       1.174  13.307  19.825  0.00  0.00    +0.000 OA
BRANCH  24  26
ATOM     26  O   UNL     1       0.151  12.684  17.914  0.00  0.00    +0.000 OA
ATOM     27  H   UNL     1       0.474  12.206  17.111  0.00  0.00    +0.000 HD
ENDBRANCH  24  26
ENDBRANCH  10  24
TORSDOF 5
ENDMDL
MODEL 9
REMARK VINA RESULT:      -7.0      2.268      3.670
REMARK  Name = 
REMARK  5 active torsions:
REMARK  status: ('A' for Active; 'I' for Inactive)
REMARK    1  A    between atoms: N_1  and  C_2
REMARK    2  A    between atoms: N_5  and  C_6
REMARK    3  A    between atoms: C_15  and  C_16
REMARK    4  A    between atoms: C_16  and  O_18
REMARK    5  A    between atoms: N_20  and  C_21
REMARK                            x       y       z     vdW  Elec       q    Type
REMARK                         _______ _______ _______ _____ _____    ______ ____
ROOT
ATOM      1  C   UNL     1       1.690   8.465  19.687  0.00  0.00    +0.000 A 
ATOM      2  N   UNL     1       1.703   7.158  20.071  0.00  0.00    +0.000 NA
ATOM      3  C   UNL     1       2.386   6.236  19.345  0.00  0.00    +0.000 A 
ATOM      4  C   UNL     1       3.109   6.612  18.208  0.00  0.00    +0.000 A 
ATOM      5  C   UNL     1       3.122   7.939  17.806  0.00  0.00    +0.000 A 
ATOM      6  C   UNL     1       2.411   8.862  18.552  0.00  0.00    +0.000 A 
ATOM      7  F   UNL     1       2.407  10.132  18.119  0.00  0.00    +0.000 F 
ATOM      8  C   UNL     1       3.840   5.598  17.423  0.00  0.00    +0.000 A 
ATOM      9  O   UNL     1       4.467   5.903  16.410  0.00  0.00    +0.000 OA
ATOM     10  C   UNL     1       3.816   4.197  17.885  0.00  0.00    +0.000 A 
ATOM     11  C   UNL     1       3.097   3.935  18.987  0.00  0.00    +0.000 A 
ATOM     12  N   UNL     1       2.357   4.857  19.703  0.00  0.00    +0.000 N 
ENDROOT
BRANCH   1  16
ATOM     13  C   UNL     1      -0.822  10.847  21.036  0.00  0.00    +0.000 C 
ATOM     14  C   UNL     1      -0.302  10.048  22.236  0.00  0.00    +0.000 C 
ATOM     15  C   UNL     1       1.081   9.565  21.814  0.00  0.00    +0.000 C 
ATOM     16  N   UNL     1       0.892   9.321  20.396  0.00  0.00    +0.000 N 
ATOM     17  C   UNL     1       0.012  10.335  19.828  0.00  0.00    +0.000 C 
BRANCH  13  18
ATOM     18  N   UNL     1      -0.714  12.291  21.265  0.00  0.00    +0.000 NA
ATOM     19  H   UNL     1      -1.093  12.511  22.187  0.00  0.00    +0.000 HD
ATOM     20  H   UNL     1      -1.303  12.786  20.596  0.00  0.00    +0.000 HD
ENDBRANCH  13  18
ENDBRANCH   1  16
BRANCH  12  21
ATOM     21  C   UNL     1       1.675   4.415  20.931  0.00  0.00    +0.000 C 
ATOM     22  C   UNL     1       1.102   3.030  21.099  0.00  0.00    +0.000 C 
ATOM     23  C   UNL     1       2.327   3.418  21.864  0.00  0.00    +0.000 C 
ENDBRANCH  12  21
BRANCH  10  24
ATOM     24  C   UNL     1       4.527   3.099  17.200  0.00  0.00    +0.000 C 
ATOM     25  O   UNL     1       4.139   1.937  17.223  0.00  0.00    +0.000 OA
BRANCH  24  26
ATOM     26  O   UNL     1       5.640   3.475  16.539  0.00  0.00    +0.000 OA
ATOM     27  H   UNL     1       6.269   2.737  16.344  0.00  0.00    +0.000 HD
ENDBRANCH  24  26
ENDBRANCH  10  24
TORSDOF 5
ENDMDL
