MODEL 1
REMARK VINA RESULT:      -6.4      0.000      0.000
REMARK  Name = 
REMARK  10 active torsions:
REMARK  status: ('A' for Active; 'I' for Inactive)
REMARK    1  A    between atoms: C_1  and  C_2
REMARK    2  A    between atoms: C_2  and  C_3
REMARK    3  A    between atoms: C_3  and  O_4
REMARK    4  A    between atoms: O_4  and  C_5
REMARK    5  A    between atoms: C_8  and  C_9
REMARK    6  A    between atoms: N_11  and  N_12
REMARK    7  A    between atoms: N_12  and  C_13
REMARK    8  A    between atoms: C_13  and  N_15
REMARK    9  A    between atoms: C_16  and  C_18
REMARK   10  A    between atoms: C_18  and  C_19
REMARK                            x       y       z     vdW  Elec       q    Type
REMARK                         _______ _______ _______ _____ _____    ______ ____
ROOT
ATOM      1  C   UNL     1       2.915   5.927  19.702  0.00  0.00    +0.000 C 
ATOM      2  O   UNL     1       2.568   5.031  20.472  0.00  0.00    +0.000 OA
ATOM      3  N   UNL     1       3.955   5.774  18.811  0.00  0.00    +0.000 N 
ATOM      4  H   UNL     1       4.248   6.483  18.153  0.00  0.00    +0.000 HD
ENDROOT
BRANCH   1   8
ATOM      5  C   UNL     1       0.919   9.755  19.526  0.00  0.00    +0.000 A 
ATOM      6  C   UNL     1       1.628   9.239  18.441  0.00  0.00    +0.000 A 
ATOM      7  C   UNL     1       2.261   7.998  18.525  0.00  0.00    +0.000 A 
ATOM      8  C   UNL     1       2.202   7.241  19.700  0.00  0.00    +0.000 A 
ATOM      9  C   UNL     1       1.487   7.757  20.791  0.00  0.00    +0.000 A 
ATOM     10  C   UNL     1       0.854   9.005  20.701  0.00  0.00    +0.000 A 
BRANCH   5  11
ATOM     11  O   UNL     1       0.264  10.964  19.541  0.00  0.00    +0.000 OA
BRANCH  11  12
ATOM     12  C   UNL     1      -0.545  11.216  18.388  0.00  0.00    +0.000 C 
BRANCH  12  14
ATOM     13  C   UNL     1      -2.089   9.914  16.920  0.00  0.00    +0.000 C 
ATOM     14  C   UNL     1      -1.758  10.294  18.357  0.00  0.00    +0.000 C 
ENDBRANCH  12  14
ENDBRANCH  11  12
ENDBRANCH   5  11
ENDBRANCH   1   8
BRANCH   3  15
ATOM     15  N   UNL     1       4.648   4.563  18.756  0.00  0.00    +0.000 N 
ATOM     16  H   UNL     1       5.337   4.386  19.498  0.00  0.00    +0.000 HD
BRANCH  15  17
ATOM     17  C   UNL     1       4.418   3.659  17.752  0.00  0.00    +0.000 C 
ATOM     18  S   UNL     1       3.154   2.558  17.734  0.00  0.00    +0.000 S 
BRANCH  17  19
ATOM     19  N   UNL     1       5.294   3.666  16.696  0.00  0.00    +0.000 N 
ATOM     20  C   UNL     1       5.621   4.736  15.883  0.00  0.00    +0.000 C 
ATOM     21  O   UNL     1       5.155   5.861  16.017  0.00  0.00    +0.000 OA
ATOM     22  H   UNL     1       5.735   2.773  16.516  0.00  0.00    +0.000 HD
BRANCH  20  23
ATOM     23  C   UNL     1       6.625   4.377  14.800  0.00  0.00    +0.000 C 
ATOM     24  C   UNL     1       5.928   3.794  13.581  0.00  0.00    +0.000 C 
ENDBRANCH  20  23
ENDBRANCH  17  19
ENDBRANCH  15  17
ENDBRANCH   3  15
TORSDOF 8
ENDMDL
MODEL 2
REMARK VINA RESULT:      -6.3      1.896      2.248
REMARK  Name = 
REMARK  10 active torsions:
REMARK  status: ('A' for Active; 'I' for Inactive)
REMARK    1  A    between atoms: C_1  and  C_2
REMARK    2  A    between atoms: C_2  and  C_3
REMARK    3  A    between atoms: C_3  and  O_4
REMARK    4  A    between atoms: O_4  and  C_5
REMARK    5  A    between atoms: C_8  and  C_9
REMARK    6  A    between atoms: N_11  and  N_12
REMARK    7  A    between atoms: N_12  and  C_13
REMARK    8  A    between atoms: C_13  and  N_15
REMARK    9  A    between atoms: C_16  and  C_18
REMARK   10  A    between atoms: C_18  and  C_19
REMARK                            x       y       z     vdW  Elec       q    Type
REMARK                         _______ _______ _______ _____ _____    ______ ____
ROOT
ATOM      1  C   UNL     1       3.415   6.004  18.761  0.00  0.00    +0.000 C 
ATOM      2  O   UNL     1       4.107   5.522  19.658  0.00  0.00    +0.000 OA
ATOM      3  N   UNL     1       3.385   5.479  17.488  0.00  0.00    +0.000 N 
ATOM      4  H   UNL     1       2.811   5.839  16.738  0.00  0.00    +0.000 HD
ENDROOT
BRANCH   1   8
ATOM      5  C   UNL     1       0.967   9.514  19.358  0.00  0.00    +0.000 A 
ATOM      6  C   UNL     1       1.578   9.237  18.135  0.00  0.00    +0.000 A 
ATOM      7  C   UNL     1       2.361   8.093  17.969  0.00  0.00    +0.000 A 
ATOM      8  C   UNL     1       2.555   7.198  19.027  0.00  0.00    +0.000 A 
ATOM      9  C   UNL     1       1.940   7.474  20.257  0.00  0.00    +0.000 A 
ATOM     10  C   UNL     1       1.154   8.625  20.417  0.00  0.00    +0.000 A 
BRANCH   5  11
ATOM     11  O   UNL     1       0.180  10.611  19.619  0.00  0.00    +0.000 OA
BRANCH  11  12
ATOM     12  C   UNL     1      -0.565  11.089  18.495  0.00  0.00    +0.000 C 
BRANCH  12  14
ATOM     13  C   UNL     1      -2.077   9.920  16.888  0.00  0.00    +0.000 C 
ATOM     14  C   UNL     1      -1.876  10.326  18.341  0.00  0.00    +0.000 C 
ENDBRANCH  12  14
ENDBRANCH  11  12
ENDBRANCH   5  11
ENDBRANCH   1   8
BRANCH   3  15
ATOM     15  N   UNL     1       4.154   4.354  17.183  0.00  0.00    +0.000 N 
ATOM     16  H   UNL     1       3.725   3.436  17.354  0.00  0.00    +0.000 HD
BRANCH  15  17
ATOM     17  C   UNL     1       5.425   4.475  16.684  0.00  0.00    +0.000 C 
ATOM     18  S   UNL     1       5.920   3.894  15.191  0.00  0.00    +0.000 S 
BRANCH  17  19
ATOM     19  N   UNL     1       6.345   5.119  17.473  0.00  0.00    +0.000 N 
ATOM     20  C   UNL     1       6.838   6.401  17.313  0.00  0.00    +0.000 C 
ATOM     21  O   UNL     1       6.493   7.156  16.412  0.00  0.00    +0.000 OA
ATOM     22  H   UNL     1       6.681   4.568  18.252  0.00  0.00    +0.000 HD
BRANCH  20  23
ATOM     23  C   UNL     1       7.856   6.784  18.373  0.00  0.00    +0.000 C 
ATOM     24  C   UNL     1       7.965   5.707  19.440  0.00  0.00    +0.000 C 
ENDBRANCH  20  23
ENDBRANCH  17  19
ENDBRANCH  15  17
ENDBRANCH   3  15
TORSDOF 8
ENDMDL
MODEL 3
REMARK VINA RESULT:      -6.2      1.272      1.349
REMARK  Name = 
REMARK  10 active torsions:
REMARK  status: ('A' for Active; 'I' for Inactive)
REMARK    1  A    between atoms: C_1  and  C_2
REMARK    2  A    between atoms: C_2  and  C_3
REMARK    3  A    between atoms: C_3  and  O_4
REMARK    4  A    between atoms: O_4  and  C_5
REMARK    5  A    between atoms: C_8  and  C_9
REMARK    6  A    between atoms: N_11  and  N_12
REMARK    7  A    between atoms: N_12  and  C_13
REMARK    8  A    between atoms: C_13  and  N_15
REMARK    9  A    between atoms: C_16  and  C_18
REMARK   10  A    between atoms: C_18  and  C_19
REMARK                            x       y       z     vdW  Elec       q    Type
REMARK                         _______ _______ _______ _____ _____    ______ ____
ROOT
ATOM      1  C   UNL     1       3.531   6.664  18.517  0.00  0.00    +0.000 C 
ATOM      2  O   UNL     1       4.036   6.616  17.395  0.00  0.00    +0.000 OA
ATOM      3  N   UNL     1       3.890   5.799  19.527  0.00  0.00    +0.000 N 
ATOM      4  H   UNL     1       3.510   5.829  20.463  0.00  0.00    +0.000 HD
ENDROOT
BRANCH   1   8
ATOM      5  C   UNL     1       0.547   9.697  19.267  0.00  0.00    +0.000 A 
ATOM      6  C   UNL     1       1.160   9.555  18.022  0.00  0.00    +0.000 A 
ATOM      7  C   UNL     1       2.119   8.563  17.808  0.00  0.00    +0.000 A 
ATOM      8  C   UNL     1       2.491   7.690  18.835  0.00  0.00    +0.000 A 
ATOM      9  C   UNL     1       1.873   7.830  20.087  0.00  0.00    +0.000 A 
ATOM     10  C   UNL     1       0.910   8.829  20.297  0.00  0.00    +0.000 A 
BRANCH   5  11
ATOM     11  O   UNL     1      -0.406  10.640  19.576  0.00  0.00    +0.000 OA
BRANCH  11  12
ATOM     12  C   UNL     1      -1.135  11.140  18.451  0.00  0.00    +0.000 C 
BRANCH  12  14
ATOM     13  C   UNL     1      -2.325   9.936  16.616  0.00  0.00    +0.000 C 
ATOM     14  C   UNL     1      -2.308  10.229  18.109  0.00  0.00    +0.000 C 
ENDBRANCH  12  14
ENDBRANCH  11  12
ENDBRANCH   5  11
ENDBRANCH   1   8
BRANCH   3  15
ATOM     15  N   UNL     1       4.868   4.830  19.294  0.00  0.00    +0.000 N 
ATOM     16  H   UNL     1       5.821   5.042  19.615  0.00  0.00    +0.000 HD
BRANCH  15  17
ATOM     17  C   UNL     1       4.564   3.652  18.663  0.00  0.00    +0.000 C 
ATOM     18  S   UNL     1       3.869   2.322  19.411  0.00  0.00    +0.000 S 
BRANCH  17  19
ATOM     19  N   UNL     1       4.858   3.569  17.325  0.00  0.00    +0.000 N 
ATOM     20  C   UNL     1       5.996   4.026  16.686  0.00  0.00    +0.000 C 
ATOM     21  O   UNL     1       6.928   4.576  17.261  0.00  0.00    +0.000 OA
ATOM     22  H   UNL     1       4.142   3.119  16.770  0.00  0.00    +0.000 HD
BRANCH  20  23
ATOM     23  C   UNL     1       5.979   3.773  15.187  0.00  0.00    +0.000 C 
ATOM     24  C   UNL     1       6.808   4.812  14.449  0.00  0.00    +0.000 C 
ENDBRANCH  20  23
ENDBRANCH  17  19
ENDBRANCH  15  17
ENDBRANCH   3  15
TORSDOF 8
ENDMDL
MODEL 4
REMARK VINA RESULT:      -6.2      1.943      2.582
REMARK  Name = 
REMARK  10 active torsions:
REMARK  status: ('A' for Active; 'I' for Inactive)
REMARK    1  A    between atoms: C_1  and  C_2
REMARK    2  A    between atoms: C_2  and  C_3
REMARK    3  A    between atoms: C_3  and  O_4
REMARK    4  A    between atoms: O_4  and  C_5
REMARK    5  A    between atoms: C_8  and  C_9
REMARK    6  A    between atoms: N_11  and  N_12
REMARK    7  A    between atoms: N_12  and  C_13
REMARK    8  A    between atoms: C_13  and  N_15
REMARK    9  A    between atoms: C_16  and  C_18
REMARK   10  A    between atoms: C_18  and  C_19
REMARK                            x       y       z     vdW  Elec       q    Type
REMARK                         _______ _______ _______ _____ _____    ______ ____
ROOT
ATOM      1  C   UNL     1       2.945   6.274  18.120  0.00  0.00    +0.000 C 
ATOM      2  O   UNL     1       3.812   6.368  17.251  0.00  0.00    +0.000 OA
ATOM      3  N   UNL     1       2.520   5.060  18.612  0.00  0.00    +0.000 N 
ATOM      4  H   UNL     1       1.827   4.952  19.340  0.00  0.00    +0.000 HD
ENDROOT
BRANCH   1   8
ATOM      5  C   UNL     1       1.128   9.902  19.606  0.00  0.00    +0.000 A 
ATOM      6  C   UNL     1       1.500   9.754  18.270  0.00  0.00    +0.000 A 
ATOM      7  C   UNL     1       2.082   8.569  17.817  0.00  0.00    +0.000 A 
ATOM      8  C   UNL     1       2.310   7.501  18.691  0.00  0.00    +0.000 A 
ATOM      9  C   UNL     1       1.934   7.647  20.035  0.00  0.00    +0.000 A 
ATOM     10  C   UNL     1       1.349   8.841  20.485  0.00  0.00    +0.000 A 
BRANCH   5  11
ATOM     11  O   UNL     1       0.550  11.026  20.147  0.00  0.00    +0.000 OA
BRANCH  11  12
ATOM     12  C   UNL     1      -0.736  10.809  20.736  0.00  0.00    +0.000 C 
BRANCH  12  14
ATOM     13  C   UNL     1      -0.850  10.242  23.165  0.00  0.00    +0.000 C 
ATOM     14  C   UNL     1      -0.794  11.375  22.150  0.00  0.00    +0.000 C 
ENDBRANCH  12  14
ENDBRANCH  11  12
ENDBRANCH   5  11
ENDBRANCH   1   8
BRANCH   3  15
ATOM     15  N   UNL     1       3.088   3.879  18.129  0.00  0.00    +0.000 N 
ATOM     16  H   UNL     1       2.617   3.426  17.335  0.00  0.00    +0.000 HD
BRANCH  15  17
ATOM     17  C   UNL     1       4.219   3.351  18.695  0.00  0.00    +0.000 C 
ATOM     18  S   UNL     1       4.231   2.333  20.028  0.00  0.00    +0.000 S 
BRANCH  17  19
ATOM     19  N   UNL     1       5.418   3.689  18.120  0.00  0.00    +0.000 N 
ATOM     20  C   UNL     1       6.362   4.575  18.606  0.00  0.00    +0.000 C 
ATOM     21  O   UNL     1       6.243   5.188  19.660  0.00  0.00    +0.000 OA
ATOM     22  H   UNL     1       5.604   3.221  17.243  0.00  0.00    +0.000 HD
BRANCH  20  23
ATOM     23  C   UNL     1       7.572   4.713  17.698  0.00  0.00    +0.000 C 
ATOM     24  C   UNL     1       7.181   4.555  16.238  0.00  0.00    +0.000 C 
ENDBRANCH  20  23
ENDBRANCH  17  19
ENDBRANCH  15  17
ENDBRANCH   3  15
TORSDOF 8
ENDMDL
MODEL 5
REMARK VINA RESULT:      -6.2      2.576      7.690
REMARK  Name = 
REMARK  10 active torsions:
REMARK  status: ('A' for Active; 'I' for Inactive)
REMARK    1  A    between atoms: C_1  and  C_2
REMARK    2  A    between atoms: C_2  and  C_3
REMARK    3  A    between atoms: C_3  and  O_4
REMARK    4  A    between atoms: O_4  and  C_5
REMARK    5  A    between atoms: C_8  and  C_9
REMARK    6  A    between atoms: N_11  and  N_12
REMARK    7  A    between atoms: N_12  and  C_13
REMARK    8  A    between atoms: C_13  and  N_15
REMARK    9  A    between atoms: C_16  and  C_18
REMARK   10  A    between atoms: C_18  and  C_19
REMARK                            x       y       z     vdW  Elec       q    Type
REMARK                         _______ _______ _______ _____ _____    ______ ____
ROOT
ATOM      1  C   UNL     1       5.301   4.968  18.772  0.00  0.00    +0.000 C 
ATOM      2  O   UNL     1       6.126   4.977  19.686  0.00  0.00    +0.000 OA
ATOM      3  N   UNL     1       3.963   5.223  18.982  0.00  0.00    +0.000 N 
ATOM      4  H   UNL     1       3.267   5.244  18.249  0.00  0.00    +0.000 HD
ENDROOT
BRANCH   1   8
ATOM      5  C   UNL     1       6.379   4.051  14.690  0.00  0.00    +0.000 A 
ATOM      6  C   UNL     1       5.141   3.696  15.226  0.00  0.00    +0.000 A 
ATOM      7  C   UNL     1       4.818   4.008  16.547  0.00  0.00    +0.000 A 
ATOM      8  C   UNL     1       5.729   4.682  17.368  0.00  0.00    +0.000 A 
ATOM      9  C   UNL     1       6.973   5.042  16.830  0.00  0.00    +0.000 A 
ATOM     10  C   UNL     1       7.292   4.726  15.501  0.00  0.00    +0.000 A 
BRANCH   5  11
ATOM     11  O   UNL     1       6.789   3.789  13.404  0.00  0.00    +0.000 OA
BRANCH  11  12
ATOM     12  C   UNL     1       5.817   4.087  12.397  0.00  0.00    +0.000 C 
BRANCH  12  14
ATOM     13  C   UNL     1       3.933   3.103  11.086  0.00  0.00    +0.000 C 
ATOM     14  C   UNL     1       5.256   2.811  11.782  0.00  0.00    +0.000 C 
ENDBRANCH  12  14
ENDBRANCH  11  12
ENDBRANCH   5  11
ENDBRANCH   1   8
BRANCH   3  15
ATOM     15  N   UNL     1       3.506   5.513  20.269  0.00  0.00    +0.000 N 
ATOM     16  H   UNL     1       4.218   5.718  20.981  0.00  0.00    +0.000 HD
BRANCH  15  17
ATOM     17  C   UNL     1       2.167   5.519  20.563  0.00  0.00    +0.000 C 
ATOM     18  S   UNL     1       1.159   4.184  20.439  0.00  0.00    +0.000 S 
BRANCH  17  19
ATOM     19  N   UNL     1       1.628   6.708  20.985  0.00  0.00    +0.000 N 
ATOM     20  C   UNL     1       1.651   7.922  20.323  0.00  0.00    +0.000 C 
ATOM     21  O   UNL     1       2.170   8.092  19.227  0.00  0.00    +0.000 OA
ATOM     22  H   UNL     1       1.169   6.659  21.885  0.00  0.00    +0.000 HD
BRANCH  20  23
ATOM     23  C   UNL     1       0.961   9.034  21.096  0.00  0.00    +0.000 C 
ATOM     24  C   UNL     1      -0.357   8.555  21.681  0.00  0.00    +0.000 C 
ENDBRANCH  20  23
ENDBRANCH  17  19
ENDBRANCH  15  17
ENDBRANCH   3  15
TORSDOF 8
ENDMDL
MODEL 6
REMARK VINA RESULT:      -6.2      1.512      1.839
REMARK  Name = 
REMARK  10 active torsions:
REMARK  status: ('A' for Active; 'I' for Inactive)
REMARK    1  A    between atoms: C_1  and  C_2
REMARK    2  A    between atoms: C_2  and  C_3
REMARK    3  A    between atoms: C_3  and  O_4
REMARK    4  A    between atoms: O_4  and  C_5
REMARK    5  A    between atoms: C_8  and  C_9
REMARK    6  A    between atoms: N_11  and  N_12
REMARK    7  A    between atoms: N_12  and  C_13
REMARK    8  A    between atoms: C_13  and  N_15
REMARK    9  A    between atoms: C_16  and  C_18
REMARK   10  A    between atoms: C_18  and  C_19
REMARK                            x       y       z     vdW  Elec       q    Type
REMARK                         _______ _______ _______ _____ _____    ______ ____
ROOT
ATOM      1  C   UNL     1       3.037   6.371  19.049  0.00  0.00    +0.000 C 
ATOM      2  O   UNL     1       2.725   5.456  19.812  0.00  0.00    +0.000 OA
ATOM      3  N   UNL     1       4.101   6.279  18.180  0.00  0.00    +0.000 N 
ATOM      4  H   UNL     1       4.367   7.004  17.527  0.00  0.00    +0.000 HD
ENDROOT
BRANCH   1   8
ATOM      5  C   UNL     1       0.718  10.015  19.174  0.00  0.00    +0.000 A 
ATOM      6  C   UNL     1       0.906   9.218  20.303  0.00  0.00    +0.000 A 
ATOM      7  C   UNL     1       1.662   8.047  20.234  0.00  0.00    +0.000 A 
ATOM      8  C   UNL     1       2.249   7.642  19.031  0.00  0.00    +0.000 A 
ATOM      9  C   UNL     1       2.065   8.445  17.895  0.00  0.00    +0.000 A 
ATOM     10  C   UNL     1       1.303   9.620  17.970  0.00  0.00    +0.000 A 
BRANCH   5  11
ATOM     11  O   UNL     1      -0.008  11.183  19.141  0.00  0.00    +0.000 OA
BRANCH  11  12
ATOM     12  C   UNL     1      -1.423  11.008  19.264  0.00  0.00    +0.000 C 
BRANCH  12  14
ATOM     13  C   UNL     1      -2.677   9.855  17.438  0.00  0.00    +0.000 C 
ATOM     14  C   UNL     1      -2.116  11.187  17.918  0.00  0.00    +0.000 C 
ENDBRANCH  12  14
ENDBRANCH  11  12
ENDBRANCH   5  11
ENDBRANCH   1   8
BRANCH   3  15
ATOM     15  N   UNL     1       4.864   5.110  18.139  0.00  0.00    +0.000 N 
ATOM     16  H   UNL     1       4.367   4.224  18.291  0.00  0.00    +0.000 HD
BRANCH  15  17
ATOM     17  C   UNL     1       6.215   5.151  17.911  0.00  0.00    +0.000 C 
ATOM     18  S   UNL     1       7.362   5.571  19.060  0.00  0.00    +0.000 S 
BRANCH  17  19
ATOM     19  N   UNL     1       6.643   4.823  16.649  0.00  0.00    +0.000 N 
ATOM     20  C   UNL     1       6.239   5.388  15.453  0.00  0.00    +0.000 C 
ATOM     21  O   UNL     1       5.421   6.296  15.369  0.00  0.00    +0.000 OA
ATOM     22  H   UNL     1       7.331   4.082  16.624  0.00  0.00    +0.000 HD
BRANCH  20  23
ATOM     23  C   UNL     1       6.919   4.769  14.243  0.00  0.00    +0.000 C 
ATOM     24  C   UNL     1       6.002   3.772  13.553  0.00  0.00    +0.000 C 
ENDBRANCH  20  23
ENDBRANCH  17  19
ENDBRANCH  15  17
ENDBRANCH   3  15
TORSDOF 8
ENDMDL
MODEL 7
REMARK VINA RESULT:      -6.2      3.759      7.852
REMARK  Name = 
REMARK  10 active torsions:
REMARK  status: ('A' for Active; 'I' for Inactive)
REMARK    1  A    between atoms: C_1  and  C_2
REMARK    2  A    between atoms: C_2  and  C_3
REMARK    3  A    between atoms: C_3  and  O_4
REMARK    4  A    between atoms: O_4  and  C_5
REMARK    5  A    between atoms: C_8  and  C_9
REMARK    6  A    between atoms: N_11  and  N_12
REMARK    7  A    between atoms: N_12  and  C_13
REMARK    8  A    between atoms: C_13  and  N_15
REMARK    9  A    between atoms: C_16  and  C_18
REMARK   10  A    between atoms: C_18  and  C_19
REMARK                            x       y       z     vdW  Elec       q    Type
REMARK                         _______ _______ _______ _____ _____    ______ ____
ROOT
ATOM      1  C   UNL     1       5.248   4.974  18.364  0.00  0.00    +0.000 C 
ATOM      2  O   UNL     1       5.790   4.374  19.293  0.00  0.00    +0.000 OA
ATOM      3  N   UNL     1       4.195   5.839  18.557  0.00  0.00    +0.000 N 
ATOM      4  H   UNL     1       3.745   6.361  17.817  0.00  0.00    +0.000 HD
ENDROOT
BRANCH   1   8
ATOM      5  C   UNL     1       6.477   4.351  14.268  0.00  0.00    +0.000 A 
ATOM      6  C   UNL     1       5.203   4.005  14.720  0.00  0.00    +0.000 A 
ATOM      7  C   UNL     1       4.832   4.221  16.048  0.00  0.00    +0.000 A 
ATOM      8  C   UNL     1       5.729   4.786  16.960  0.00  0.00    +0.000 A 
ATOM      9  C   UNL     1       7.009   5.137  16.507  0.00  0.00    +0.000 A 
ATOM     10  C   UNL     1       7.377   4.917  15.171  0.00  0.00    +0.000 A 
BRANCH   5  11
ATOM     11  O   UNL     1       6.934   4.178  12.983  0.00  0.00    +0.000 OA
BRANCH  11  12
ATOM     12  C   UNL     1       6.143   3.295  12.183  0.00  0.00    +0.000 C 
BRANCH  12  14
ATOM     13  C   UNL     1       6.349   1.040  11.130  0.00  0.00    +0.000 C 
ATOM     14  C   UNL     1       7.024   2.391  11.329  0.00  0.00    +0.000 C 
ENDBRANCH  12  14
ENDBRANCH  11  12
ENDBRANCH   5  11
ENDBRANCH   1   8
BRANCH   3  15
ATOM     15  N   UNL     1       3.712   6.068  19.847  0.00  0.00    +0.000 N 
ATOM     16  H   UNL     1       4.408   6.121  20.602  0.00  0.00    +0.000 HD
BRANCH  15  17
ATOM     17  C   UNL     1       2.371   6.210  20.089  0.00  0.00    +0.000 C 
ATOM     18  S   UNL     1       1.640   7.632  20.594  0.00  0.00    +0.000 S 
BRANCH  17  19
ATOM     19  N   UNL     1       1.584   5.101  19.903  0.00  0.00    +0.000 N 
ATOM     20  C   UNL     1       1.662   3.894  20.574  0.00  0.00    +0.000 C 
ATOM     21  O   UNL     1       2.471   3.659  21.462  0.00  0.00    +0.000 OA
ATOM     22  H   UNL     1       0.877   5.210  19.188  0.00  0.00    +0.000 HD
BRANCH  20  23
ATOM     23  C   UNL     1       0.633   2.882  20.098  0.00  0.00    +0.000 C 
ATOM     24  C   UNL     1       0.989   2.347  18.721  0.00  0.00    +0.000 C 
ENDBRANCH  20  23
ENDBRANCH  17  19
ENDBRANCH  15  17
ENDBRANCH   3  15
TORSDOF 8
ENDMDL
MODEL 8
REMARK VINA RESULT:      -6.1      1.817      2.895
REMARK  Name = 
REMARK  10 active torsions:
REMARK  status: ('A' for Active; 'I' for Inactive)
REMARK    1  A    between atoms: C_1  and  C_2
REMARK    2  A    between atoms: C_2  and  C_3
REMARK    3  A    between atoms: C_3  and  O_4
REMARK    4  A    between atoms: O_4  and  C_5
REMARK    5  A    between atoms: C_8  and  C_9
REMARK    6  A    between atoms: N_11  and  N_12
REMARK    7  A    between atoms: N_12  and  C_13
REMARK    8  A    between atoms: C_13  and  N_15
REMARK    9  A    between atoms: C_16  and  C_18
REMARK   10  A    between atoms: C_18  and  C_19
REMARK                            x       y       z     vdW  Elec       q    Type
REMARK                         _______ _______ _______ _____ _____    ______ ____
ROOT
ATOM      1  C   UNL     1       3.320   6.383  19.010  0.00  0.00    +0.000 C 
ATOM      2  O   UNL     1       3.086   5.481  19.815  0.00  0.00    +0.000 OA
ATOM      3  N   UNL     1       4.365   6.322  18.115  0.00  0.00    +0.000 N 
ATOM      4  H   UNL     1       4.568   7.036  17.429  0.00  0.00    +0.000 HD
ENDROOT
BRANCH   1   8
ATOM      5  C   UNL     1       0.773   9.873  19.061  0.00  0.00    +0.000 A 
ATOM      6  C   UNL     1       0.970   9.084  20.194  0.00  0.00    +0.000 A 
ATOM      7  C   UNL     1       1.801   7.963  20.150  0.00  0.00    +0.000 A 
ATOM      8  C   UNL     1       2.455   7.602  18.967  0.00  0.00    +0.000 A 
ATOM      9  C   UNL     1       2.260   8.396  17.827  0.00  0.00    +0.000 A 
ATOM     10  C   UNL     1       1.423   9.521  17.878  0.00  0.00    +0.000 A 
BRANCH   5  11
ATOM     11  O   UNL     1      -0.024  10.992  19.005  0.00  0.00    +0.000 OA
BRANCH  11  12
ATOM     12  C   UNL     1      -1.429  10.721  18.965  0.00  0.00    +0.000 C 
BRANCH  12  14
ATOM     13  C   UNL     1      -2.241   9.904  16.750  0.00  0.00    +0.000 C 
ATOM     14  C   UNL     1      -2.028  11.131  17.625  0.00  0.00    +0.000 C 
ENDBRANCH  12  14
ENDBRANCH  11  12
ENDBRANCH   5  11
ENDBRANCH   1   8
BRANCH   3  15
ATOM     15  N   UNL     1       5.198   5.201  18.097  0.00  0.00    +0.000 N 
ATOM     16  H   UNL     1       5.968   5.181  18.777  0.00  0.00    +0.000 HD
BRANCH  15  17
ATOM     17  C   UNL     1       4.994   4.180  17.206  0.00  0.00    +0.000 C 
ATOM     18  S   UNL     1       5.835   3.990  15.767  0.00  0.00    +0.000 S 
BRANCH  17  19
ATOM     19  N   UNL     1       4.032   3.256  17.527  0.00  0.00    +0.000 N 
ATOM     20  C   UNL     1       3.929   2.522  18.695  0.00  0.00    +0.000 C 
ATOM     21  O   UNL     1       4.713   2.617  19.631  0.00  0.00    +0.000 OA
ATOM     22  H   UNL     1       3.333   3.119  16.809  0.00  0.00    +0.000 HD
BRANCH  20  23
ATOM     23  C   UNL     1       2.735   1.582  18.704  0.00  0.00    +0.000 C 
ATOM     24  C   UNL     1       1.430   2.357  18.768  0.00  0.00    +0.000 C 
ENDBRANCH  20  23
ENDBRANCH  17  19
ENDBRANCH  15  17
ENDBRANCH   3  15
TORSDOF 8
ENDMDL
MODEL 9
REMARK VINA RESULT:      -6.1      3.687      7.933
REMARK  Name = 
REMARK  10 active torsions:
REMARK  status: ('A' for Active; 'I' for Inactive)
REMARK    1  A    between atoms: C_1  and  C_2
REMARK    2  A    between atoms: C_2  and  C_3
REMARK    3  A    between atoms: C_3  and  O_4
REMARK    4  A    between atoms: O_4  and  C_5
REMARK    5  A    between atoms: C_8  and  C_9
REMARK    6  A    between atoms: N_11  and  N_12
REMARK    7  A    between atoms: N_12  and  C_13
REMARK    8  A    between atoms: C_13  and  N_15
REMARK    9  A    between atoms: C_16  and  C_18
REMARK   10  A    between atoms: C_18  and  C_19
REMARK                            x       y       z     vdW  Elec       q    Type
REMARK                         _______ _______ _______ _____ _____    ______ ____
ROOT
ATOM      1  C   UNL     1       5.395   5.122  18.101  0.00  0.00    +0.000 C 
ATOM      2  O   UNL     1       6.140   4.756  19.010  0.00  0.00    +0.000 OA
ATOM      3  N   UNL     1       4.238   5.831  18.334  0.00  0.00    +0.000 N 
ATOM      4  H   UNL     1       3.619   6.163  17.608  0.00  0.00    +0.000 HD
ENDROOT
BRANCH   1   8
ATOM      5  C   UNL     1       6.510   4.322  14.004  0.00  0.00    +0.000 A 
ATOM      6  C   UNL     1       7.320   5.070  14.859  0.00  0.00    +0.000 A 
ATOM      7  C   UNL     1       6.936   5.310  16.179  0.00  0.00    +0.000 A 
ATOM      8  C   UNL     1       5.729   4.809  16.678  0.00  0.00    +0.000 A 
ATOM      9  C   UNL     1       4.915   4.054  15.820  0.00  0.00    +0.000 A 
ATOM     10  C   UNL     1       5.306   3.816  14.494  0.00  0.00    +0.000 A 
BRANCH   5  11
ATOM     11  O   UNL     1       6.801   4.032  12.692  0.00  0.00    +0.000 OA
BRANCH  11  12
ATOM     12  C   UNL     1       5.978   3.016  12.110  0.00  0.00    +0.000 C 
BRANCH  12  14
ATOM     13  C   UNL     1       6.357   0.713  11.223  0.00  0.00    +0.000 C 
ATOM     14  C   UNL     1       6.767   2.175  11.113  0.00  0.00    +0.000 C 
ENDBRANCH  12  14
ENDBRANCH  11  12
ENDBRANCH   5  11
ENDBRANCH   1   8
BRANCH   3  15
ATOM     15  N   UNL     1       3.882   6.167  19.642  0.00  0.00    +0.000 N 
ATOM     16  H   UNL     1       4.648   6.308  20.312  0.00  0.00    +0.000 HD
BRANCH  15  17
ATOM     17  C   UNL     1       2.568   6.297  20.010  0.00  0.00    +0.000 C 
ATOM     18  S   UNL     1       1.751   7.757  20.121  0.00  0.00    +0.000 S 
BRANCH  17  19
ATOM     19  N   UNL     1       1.888   5.143  20.307  0.00  0.00    +0.000 N 
ATOM     20  C   UNL     1       1.530   4.131  19.434  0.00  0.00    +0.000 C 
ATOM     21  O   UNL     1       1.795   4.137  18.238  0.00  0.00    +0.000 OA
ATOM     22  H   UNL     1       1.633   5.050  21.281  0.00  0.00    +0.000 HD
BRANCH  20  23
ATOM     23  C   UNL     1       0.771   3.002  20.110  0.00  0.00    +0.000 C 
ATOM     24  C   UNL     1       1.331   2.721  21.495  0.00  0.00    +0.000 C 
ENDBRANCH  20  23
ENDBRANCH  17  19
ENDBRANCH  15  17
ENDBRANCH   3  15
TORSDOF 8
ENDMDL
