MODEL 1
REMARK VINA RESULT:      -7.2      0.000      0.000
REMARK  Name = 
REMARK  9 active torsions:
REMARK  status: ('A' for Active; 'I' for Inactive)
REMARK    1  A    between atoms: C_1  and  C_2
REMARK    2  A    between atoms: C_2  and  C_3
REMARK    3  A    between atoms: C_2  and  C_4
REMARK    4  A    between atoms: C_2  and  C_5
REMARK    5  A    between atoms: C_5  and  O_7
REMARK    6  A    between atoms: O_7  and  C_8
REMARK    7  A    between atoms: C_8  and  S_9
REMARK    8  A    between atoms: S_9  and  C_10
REMARK    9  A    between atoms: C_12  and  C_13
REMARK                            x       y       z     vdW  Elec       q    Type
REMARK                         _______ _______ _______ _____ _____    ______ ____
ROOT
ATOM      1  C   UNL     1       6.029   4.949  18.048  0.00  0.00    +0.000 A 
ATOM      2  N   UNL     1       5.717   5.057  16.783  0.00  0.00    +0.000 NA
ATOM      3  C   UNL     1       6.884   4.704  16.134  0.00  0.00    +0.000 A 
ATOM      4  N   UNL     1       7.896   4.416  16.978  0.00  0.00    +0.000 NA
ATOM      5  O   UNL     1       7.333   4.582  18.242  0.00  0.00    +0.000 OA
ENDROOT
BRANCH   3   6
ATOM      6  C   UNL     1       6.997   4.622  14.682  0.00  0.00    +0.000 A 
ATOM      7  C   UNL     1       6.226   3.731  13.943  0.00  0.00    +0.000 A 
ATOM      8  N   UNL     1       6.301   3.628  12.590  0.00  0.00    +0.000 NA
ATOM      9  C   UNL     1       7.190   4.458  12.001  0.00  0.00    +0.000 A 
ATOM     10  C   UNL     1       7.963   5.347  12.722  0.00  0.00    +0.000 A 
ATOM     11  N   UNL     1       7.884   5.458  14.067  0.00  0.00    +0.000 NA
ENDBRANCH   3   6
BRANCH   1  12
ATOM     12  S   UNL     1       4.933   5.315  19.340  0.00  0.00    +0.000 S 
BRANCH  12  13
ATOM     13  C   UNL     1       3.587   6.121  18.427  0.00  0.00    +0.000 C 
BRANCH  13  14
ATOM     14  O   UNL     1       2.310   5.506  18.708  0.00  0.00    +0.000 OA
BRANCH  14  15
ATOM     15  C   UNL     1       2.218   4.208  18.285  0.00  0.00    +0.000 C 
ATOM     16  O   UNL     1       2.521   3.834  17.163  0.00  0.00    +0.000 OA
BRANCH  15  18
ATOM     17  C   UNL     1       0.643   2.314  18.779  0.00  0.00    +0.000 C 
ATOM     18  C   UNL     1       1.682   3.277  19.384  0.00  0.00    +0.000 C 
ATOM     19  C   UNL     1       1.000   4.102  20.483  0.00  0.00    +0.000 C 
ATOM     20  C   UNL     1       2.827   2.448  19.979  0.00  0.00    +0.000 C 
ENDBRANCH  15  18
ENDBRANCH  14  15
ENDBRANCH  13  14
ENDBRANCH  12  13
ENDBRANCH   1  12
TORSDOF 6
ENDMDL
MODEL 2
REMARK VINA RESULT:      -6.8      0.667      1.373
REMARK  Name = 
REMARK  9 active torsions:
REMARK  status: ('A' for Active; 'I' for Inactive)
REMARK    1  A    between atoms: C_1  and  C_2
REMARK    2  A    between atoms: C_2  and  C_3
REMARK    3  A    between atoms: C_2  and  C_4
REMARK    4  A    between atoms: C_2  and  C_5
REMARK    5  A    between atoms: C_5  and  O_7
REMARK    6  A    between atoms: O_7  and  C_8
REMARK    7  A    between atoms: C_8  and  S_9
REMARK    8  A    between atoms: S_9  and  C_10
REMARK    9  A    between atoms: C_12  and  C_13
REMARK                            x       y       z     vdW  Elec       q    Type
REMARK                         _______ _______ _______ _____ _____    ______ ____
ROOT
ATOM      1  C   UNL     1       5.993   5.249  18.024  0.00  0.00    +0.000 A 
ATOM      2  N   UNL     1       5.721   5.351  16.749  0.00  0.00    +0.000 NA
ATOM      3  C   UNL     1       6.847   4.834  16.138  0.00  0.00    +0.000 A 
ATOM      4  N   UNL     1       7.799   4.451  17.014  0.00  0.00    +0.000 NA
ATOM      5  O   UNL     1       7.238   4.729  18.259  0.00  0.00    +0.000 OA
ENDROOT
BRANCH   3   6
ATOM      6  C   UNL     1       6.976   4.688  14.693  0.00  0.00    +0.000 A 
ATOM      7  C   UNL     1       6.229   3.749  13.988  0.00  0.00    +0.000 A 
ATOM      8  N   UNL     1       6.320   3.587  12.643  0.00  0.00    +0.000 NA
ATOM      9  C   UNL     1       7.198   4.406  12.024  0.00  0.00    +0.000 A 
ATOM     10  C   UNL     1       7.948   5.341  12.711  0.00  0.00    +0.000 A 
ATOM     11  N   UNL     1       7.852   5.512  14.049  0.00  0.00    +0.000 NA
ENDBRANCH   3   6
BRANCH   1  12
ATOM     12  S   UNL     1       4.928   5.793  19.278  0.00  0.00    +0.000 S 
BRANCH  12  13
ATOM     13  C   UNL     1       3.408   6.087  18.331  0.00  0.00    +0.000 C 
BRANCH  13  14
ATOM     14  O   UNL     1       2.558   4.918  18.311  0.00  0.00    +0.000 OA
BRANCH  14  15
ATOM     15  C   UNL     1       2.005   4.617  19.526  0.00  0.00    +0.000 C 
ATOM     16  O   UNL     1       1.701   5.454  20.362  0.00  0.00    +0.000 OA
BRANCH  15  18
ATOM     17  C   UNL     1       1.408   2.820  21.176  0.00  0.00    +0.000 C 
ATOM     18  C   UNL     1       1.817   3.104  19.718  0.00  0.00    +0.000 C 
ATOM     19  C   UNL     1       3.134   2.371  19.431  0.00  0.00    +0.000 C 
ATOM     20  C   UNL     1       0.711   2.587  18.792  0.00  0.00    +0.000 C 
ENDBRANCH  15  18
ENDBRANCH  14  15
ENDBRANCH  13  14
ENDBRANCH  12  13
ENDBRANCH   1  12
TORSDOF 6
ENDMDL
MODEL 3
REMARK VINA RESULT:      -6.6      0.635      1.434
REMARK  Name = 
REMARK  9 active torsions:
REMARK  status: ('A' for Active; 'I' for Inactive)
REMARK    1  A    between atoms: C_1  and  C_2
REMARK    2  A    between atoms: C_2  and  C_3
REMARK    3  A    between atoms: C_2  and  C_4
REMARK    4  A    between atoms: C_2  and  C_5
REMARK    5  A    between atoms: C_5  and  O_7
REMARK    6  A    between atoms: O_7  and  C_8
REMARK    7  A    between atoms: C_8  and  S_9
REMARK    8  A    between atoms: S_9  and  C_10
REMARK    9  A    between atoms: C_12  and  C_13
REMARK                            x       y       z     vdW  Elec       q    Type
REMARK                         _______ _______ _______ _____ _____    ______ ____
ROOT
ATOM      1  C   UNL     1       5.865   4.918  17.974  0.00  0.00    +0.000 A 
ATOM      2  N   UNL     1       5.571   5.009  16.703  0.00  0.00    +0.000 NA
ATOM      3  C   UNL     1       6.757   4.678  16.076  0.00  0.00    +0.000 A 
ATOM      4  N   UNL     1       7.761   4.419  16.940  0.00  0.00    +0.000 NA
ATOM      5  O   UNL     1       7.173   4.582  18.192  0.00  0.00    +0.000 OA
ENDROOT
BRANCH   3   6
ATOM      6  C   UNL     1       6.896   4.587  14.628  0.00  0.00    +0.000 A 
ATOM      7  C   UNL     1       7.766   5.419  13.928  0.00  0.00    +0.000 A 
ATOM      8  N   UNL     1       7.924   5.361  12.580  0.00  0.00    +0.000 NA
ATOM      9  C   UNL     1       7.170   4.432  11.953  0.00  0.00    +0.000 A 
ATOM     10  C   UNL     1       6.302   3.601  12.634  0.00  0.00    +0.000 A 
ATOM     11  N   UNL     1       6.149   3.649  13.977  0.00  0.00    +0.000 NA
ENDBRANCH   3   6
BRANCH   1  12
ATOM     12  S   UNL     1       4.739   5.270  19.245  0.00  0.00    +0.000 S 
BRANCH  12  13
ATOM     13  C   UNL     1       3.384   6.024  18.301  0.00  0.00    +0.000 C 
BRANCH  13  14
ATOM     14  O   UNL     1       2.116   5.399  18.598  0.00  0.00    +0.000 OA
BRANCH  14  15
ATOM     15  C   UNL     1       2.035   4.094  18.194  0.00  0.00    +0.000 C 
ATOM     16  O   UNL     1       2.248   3.721  17.051  0.00  0.00    +0.000 OA
BRANCH  15  18
ATOM     17  C   UNL     1       2.859   2.316  19.765  0.00  0.00    +0.000 C 
ATOM     18  C   UNL     1       1.638   3.155  19.344  0.00  0.00    +0.000 C 
ATOM     19  C   UNL     1       0.528   2.202  18.883  0.00  0.00    +0.000 C 
ATOM     20  C   UNL     1       1.167   3.971  20.553  0.00  0.00    +0.000 C 
ENDBRANCH  15  18
ENDBRANCH  14  15
ENDBRANCH  13  14
ENDBRANCH  12  13
ENDBRANCH   1  12
TORSDOF 6
ENDMDL
MODEL 4
REMARK VINA RESULT:      -6.4      1.477      2.064
REMARK  Name = 
REMARK  9 active torsions:
REMARK  status: ('A' for Active; 'I' for Inactive)
REMARK    1  A    between atoms: C_1  and  C_2
REMARK    2  A    between atoms: C_2  and  C_3
REMARK    3  A    between atoms: C_2  and  C_4
REMARK    4  A    between atoms: C_2  and  C_5
REMARK    5  A    between atoms: C_5  and  O_7
REMARK    6  A    between atoms: O_7  and  C_8
REMARK    7  A    between atoms: C_8  and  S_9
REMARK    8  A    between atoms: S_9  and  C_10
REMARK    9  A    between atoms: C_12  and  C_13
REMARK                            x       y       z     vdW  Elec       q    Type
REMARK                         _______ _______ _______ _____ _____    ______ ____
ROOT
ATOM      1  C   UNL     1       6.035   5.534  17.759  0.00  0.00    +0.000 A 
ATOM      2  N   UNL     1       5.736   4.847  16.687  0.00  0.00    +0.000 NA
ATOM      3  C   UNL     1       6.624   5.324  15.742  0.00  0.00    +0.000 A 
ATOM      4  N   UNL     1       7.429   6.299  16.214  0.00  0.00    +0.000 NA
ATOM      5  O   UNL     1       7.038   6.440  17.543  0.00  0.00    +0.000 OA
ENDROOT
BRANCH   3   6
ATOM      6  C   UNL     1       6.702   4.802  14.383  0.00  0.00    +0.000 A 
ATOM      7  C   UNL     1       7.640   5.281  13.474  0.00  0.00    +0.000 A 
ATOM      8  N   UNL     1       7.744   4.817  12.201  0.00  0.00    +0.000 NA
ATOM      9  C   UNL     1       6.863   3.847  11.870  0.00  0.00    +0.000 A 
ATOM     10  C   UNL     1       5.927   3.363  12.761  0.00  0.00    +0.000 A 
ATOM     11  N   UNL     1       5.826   3.817  14.032  0.00  0.00    +0.000 NA
ENDBRANCH   3   6
BRANCH   1  12
ATOM     12  S   UNL     1       5.195   5.371  19.266  0.00  0.00    +0.000 S 
BRANCH  12  13
ATOM     13  C   UNL     1       5.044   3.566  19.380  0.00  0.00    +0.000 C 
BRANCH  13  14
ATOM     14  O   UNL     1       3.774   3.172  19.943  0.00  0.00    +0.000 OA
BRANCH  14  15
ATOM     15  C   UNL     1       2.922   2.597  19.040  0.00  0.00    +0.000 C 
ATOM     16  O   UNL     1       3.197   1.606  18.381  0.00  0.00    +0.000 OA
BRANCH  15  18
ATOM     17  C   UNL     1       1.383   4.196  20.215  0.00  0.00    +0.000 C 
ATOM     18  C   UNL     1       1.584   3.346  18.946  0.00  0.00    +0.000 C 
ATOM     19  C   UNL     1       0.427   2.343  18.844  0.00  0.00    +0.000 C 
ATOM     20  C   UNL     1       1.584   4.279  17.729  0.00  0.00    +0.000 C 
ENDBRANCH  15  18
ENDBRANCH  14  15
ENDBRANCH  13  14
ENDBRANCH  12  13
ENDBRANCH   1  12
TORSDOF 6
ENDMDL
MODEL 5
REMARK VINA RESULT:      -6.2      1.594      2.171
REMARK  Name = 
REMARK  9 active torsions:
REMARK  status: ('A' for Active; 'I' for Inactive)
REMARK    1  A    between atoms: C_1  and  C_2
REMARK    2  A    between atoms: C_2  and  C_3
REMARK    3  A    between atoms: C_2  and  C_4
REMARK    4  A    between atoms: C_2  and  C_5
REMARK    5  A    between atoms: C_5  and  O_7
REMARK    6  A    between atoms: O_7  and  C_8
REMARK    7  A    between atoms: C_8  and  S_9
REMARK    8  A    between atoms: S_9  and  C_10
REMARK    9  A    between atoms: C_12  and  C_13
REMARK                            x       y       z     vdW  Elec       q    Type
REMARK                         _______ _______ _______ _____ _____    ______ ____
ROOT
ATOM      1  C   UNL     1       5.483   5.663  17.578  0.00  0.00    +0.000 A 
ATOM      2  N   UNL     1       5.963   4.806  16.715  0.00  0.00    +0.000 NA
ATOM      3  C   UNL     1       5.823   5.456  15.505  0.00  0.00    +0.000 A 
ATOM      4  N   UNL     1       5.246   6.670  15.617  0.00  0.00    +0.000 NA
ATOM      5  O   UNL     1       5.017   6.805  16.984  0.00  0.00    +0.000 OA
ENDROOT
BRANCH   3   6
ATOM      6  C   UNL     1       6.284   4.898  14.239  0.00  0.00    +0.000 A 
ATOM      7  C   UNL     1       5.613   3.846  13.622  0.00  0.00    +0.000 A 
ATOM      8  N   UNL     1       6.011   3.302  12.443  0.00  0.00    +0.000 NA
ATOM      9  C   UNL     1       7.119   3.853  11.901  0.00  0.00    +0.000 A 
ATOM     10  C   UNL     1       7.796   4.896  12.502  0.00  0.00    +0.000 A 
ATOM     11  N   UNL     1       7.397   5.446  13.672  0.00  0.00    +0.000 NA
ENDBRANCH   3   6
BRANCH   1  12
ATOM     12  S   UNL     1       5.371   5.351  19.279  0.00  0.00    +0.000 S 
BRANCH  12  13
ATOM     13  C   UNL     1       5.224   3.541  19.284  0.00  0.00    +0.000 C 
BRANCH  13  14
ATOM     14  O   UNL     1       3.896   3.114  18.906  0.00  0.00    +0.000 OA
BRANCH  14  15
ATOM     15  C   UNL     1       2.997   3.130  19.937  0.00  0.00    +0.000 C 
ATOM     16  O   UNL     1       3.171   2.558  21.002  0.00  0.00    +0.000 OA
BRANCH  15  18
ATOM     17  C   UNL     1       1.658   5.173  20.521  0.00  0.00    +0.000 C 
ATOM     18  C   UNL     1       1.739   3.944  19.596  0.00  0.00    +0.000 C 
ATOM     19  C   UNL     1       0.485   3.088  19.813  0.00  0.00    +0.000 C 
ATOM     20  C   UNL     1       1.802   4.431  18.144  0.00  0.00    +0.000 C 
ENDBRANCH  15  18
ENDBRANCH  14  15
ENDBRANCH  13  14
ENDBRANCH  12  13
ENDBRANCH   1  12
TORSDOF 6
ENDMDL
MODEL 6
REMARK VINA RESULT:      -6.2      0.824      1.015
REMARK  Name = 
REMARK  9 active torsions:
REMARK  status: ('A' for Active; 'I' for Inactive)
REMARK    1  A    between atoms: C_1  and  C_2
REMARK    2  A    between atoms: C_2  and  C_3
REMARK    3  A    between atoms: C_2  and  C_4
REMARK    4  A    between atoms: C_2  and  C_5
REMARK    5  A    between atoms: C_5  and  O_7
REMARK    6  A    between atoms: O_7  and  C_8
REMARK    7  A    between atoms: C_8  and  S_9
REMARK    8  A    between atoms: S_9  and  C_10
REMARK    9  A    between atoms: C_12  and  C_13
REMARK                            x       y       z     vdW  Elec       q    Type
REMARK                         _______ _______ _______ _____ _____    ______ ____
ROOT
ATOM      1  C   UNL     1       6.073   4.987  18.024  0.00  0.00    +0.000 A 
ATOM      2  N   UNL     1       5.776   5.134  16.759  0.00  0.00    +0.000 NA
ATOM      3  C   UNL     1       6.919   4.709  16.110  0.00  0.00    +0.000 A 
ATOM      4  N   UNL     1       7.903   4.337  16.955  0.00  0.00    +0.000 NA
ATOM      5  O   UNL     1       7.346   4.525  18.218  0.00  0.00    +0.000 OA
ENDROOT
BRANCH   3   6
ATOM      6  C   UNL     1       7.034   4.639  14.658  0.00  0.00    +0.000 A 
ATOM      7  C   UNL     1       6.267   3.749  13.911  0.00  0.00    +0.000 A 
ATOM      8  N   UNL     1       6.345   3.658  12.558  0.00  0.00    +0.000 NA
ATOM      9  C   UNL     1       7.230   4.497  11.976  0.00  0.00    +0.000 A 
ATOM     10  C   UNL     1       7.998   5.383  12.704  0.00  0.00    +0.000 A 
ATOM     11  N   UNL     1       7.917   5.483  14.051  0.00  0.00    +0.000 NA
ENDBRANCH   3   6
BRANCH   1  12
ATOM     12  S   UNL     1       4.999   5.413  19.316  0.00  0.00    +0.000 S 
BRANCH  12  13
ATOM     13  C   UNL     1       4.582   3.771  19.968  0.00  0.00    +0.000 C 
BRANCH  13  14
ATOM     14  O   UNL     1       3.874   2.975  18.993  0.00  0.00    +0.000 OA
BRANCH  14  15
ATOM     15  C   UNL     1       2.674   3.510  18.609  0.00  0.00    +0.000 C 
ATOM     16  O   UNL     1       2.509   4.139  17.576  0.00  0.00    +0.000 OA
BRANCH  15  18
ATOM     17  C   UNL     1       0.356   2.593  18.918  0.00  0.00    +0.000 C 
ATOM     18  C   UNL     1       1.562   3.232  19.633  0.00  0.00    +0.000 C 
ATOM     19  C   UNL     1       1.104   4.546  20.280  0.00  0.00    +0.000 C 
ATOM     20  C   UNL     1       2.063   2.260  20.707  0.00  0.00    +0.000 C 
ENDBRANCH  15  18
ENDBRANCH  14  15
ENDBRANCH  13  14
ENDBRANCH  12  13
ENDBRANCH   1  12
TORSDOF 6
ENDMDL
MODEL 7
REMARK VINA RESULT:      -6.2      0.929      1.564
REMARK  Name = 
REMARK  9 active torsions:
REMARK  status: ('A' for Active; 'I' for Inactive)
REMARK    1  A    between atoms: C_1  and  C_2
REMARK    2  A    between atoms: C_2  and  C_3
REMARK    3  A    between atoms: C_2  and  C_4
REMARK    4  A    between atoms: C_2  and  C_5
REMARK    5  A    between atoms: C_5  and  O_7
REMARK    6  A    between atoms: O_7  and  C_8
REMARK    7  A    between atoms: C_8  and  S_9
REMARK    8  A    between atoms: S_9  and  C_10
REMARK    9  A    between atoms: C_12  and  C_13
REMARK                            x       y       z     vdW  Elec       q    Type
REMARK                         _______ _______ _______ _____ _____    ______ ____
ROOT
ATOM      1  C   UNL     1       5.932   4.962  17.813  0.00  0.00    +0.000 A 
ATOM      2  N   UNL     1       5.549   4.927  16.563  0.00  0.00    +0.000 NA
ATOM      3  C   UNL     1       6.713   4.635  15.879  0.00  0.00    +0.000 A 
ATOM      4  N   UNL     1       7.789   4.522  16.685  0.00  0.00    +0.000 NA
ATOM      5  O   UNL     1       7.274   4.742  17.961  0.00  0.00    +0.000 OA
ENDROOT
BRANCH   3   6
ATOM      6  C   UNL     1       6.764   4.438  14.436  0.00  0.00    +0.000 A 
ATOM      7  C   UNL     1       7.687   5.113  13.642  0.00  0.00    +0.000 A 
ATOM      8  N   UNL     1       7.766   4.953  12.295  0.00  0.00    +0.000 NA
ATOM      9  C   UNL     1       6.875   4.086  11.767  0.00  0.00    +0.000 A 
ATOM     10  C   UNL     1       5.953   3.410  12.542  0.00  0.00    +0.000 A 
ATOM     11  N   UNL     1       5.877   3.560  13.884  0.00  0.00    +0.000 NA
ENDBRANCH   3   6
BRANCH   1  12
ATOM     12  S   UNL     1       4.868   5.331  19.130  0.00  0.00    +0.000 S 
BRANCH  12  13
ATOM     13  C   UNL     1       3.482   6.099  18.245  0.00  0.00    +0.000 C 
BRANCH  13  14
ATOM     14  O   UNL     1       2.438   5.142  17.959  0.00  0.00    +0.000 OA
BRANCH  14  15
ATOM     15  C   UNL     1       1.969   4.488  19.065  0.00  0.00    +0.000 C 
ATOM     16  O   UNL     1       1.585   5.051  20.078  0.00  0.00    +0.000 OA
BRANCH  15  18
ATOM     17  C   UNL     1       2.689   2.609  17.561  0.00  0.00    +0.000 C 
ATOM     18  C   UNL     1       1.987   2.962  18.887  0.00  0.00    +0.000 C 
ATOM     19  C   UNL     1       0.552   2.421  18.836  0.00  0.00    +0.000 C 
ATOM     20  C   UNL     1       2.760   2.304  20.036  0.00  0.00    +0.000 C 
ENDBRANCH  15  18
ENDBRANCH  14  15
ENDBRANCH  13  14
ENDBRANCH  12  13
ENDBRANCH   1  12
TORSDOF 6
ENDMDL
MODEL 8
REMARK VINA RESULT:      -6.1      1.597      1.969
REMARK  Name = 
REMARK  9 active torsions:
REMARK  status: ('A' for Active; 'I' for Inactive)
REMARK    1  A    between atoms: C_1  and  C_2
REMARK    2  A    between atoms: C_2  and  C_3
REMARK    3  A    between atoms: C_2  and  C_4
REMARK    4  A    between atoms: C_2  and  C_5
REMARK    5  A    between atoms: C_5  and  O_7
REMARK    6  A    between atoms: O_7  and  C_8
REMARK    7  A    between atoms: C_8  and  S_9
REMARK    8  A    between atoms: S_9  and  C_10
REMARK    9  A    between atoms: C_12  and  C_13
REMARK                            x       y       z     vdW  Elec       q    Type
REMARK                         _______ _______ _______ _____ _____    ______ ____
ROOT
ATOM      1  C   UNL     1       5.676   5.822  17.509  0.00  0.00    +0.000 A 
ATOM      2  N   UNL     1       5.401   5.220  16.381  0.00  0.00    +0.000 NA
ATOM      3  C   UNL     1       6.522   5.459  15.609  0.00  0.00    +0.000 A 
ATOM      4  N   UNL     1       7.449   6.212  16.236  0.00  0.00    +0.000 NA
ATOM      5  O   UNL     1       6.889   6.455  17.488  0.00  0.00    +0.000 OA
ENDROOT
BRANCH   3   6
ATOM      6  C   UNL     1       6.695   4.921  14.265  0.00  0.00    +0.000 A 
ATOM      7  C   UNL     1       5.927   3.857  13.803  0.00  0.00    +0.000 A 
ATOM      8  N   UNL     1       6.058   3.332  12.557  0.00  0.00    +0.000 NA
ATOM      9  C   UNL     1       6.999   3.917  11.784  0.00  0.00    +0.000 A 
ATOM     10  C   UNL     1       7.770   4.973  12.229  0.00  0.00    +0.000 A 
ATOM     11  N   UNL     1       7.635   5.504  13.465  0.00  0.00    +0.000 NA
ENDBRANCH   3   6
BRANCH   1  12
ATOM     12  S   UNL     1       4.584   5.881  18.854  0.00  0.00    +0.000 S 
BRANCH  12  13
ATOM     13  C   UNL     1       4.854   4.241  19.584  0.00  0.00    +0.000 C 
BRANCH  13  14
ATOM     14  O   UNL     1       3.735   3.360  19.341  0.00  0.00    +0.000 OA
BRANCH  14  15
ATOM     15  C   UNL     1       3.170   2.856  20.481  0.00  0.00    +0.000 C 
ATOM     16  O   UNL     1       3.789   2.234  21.330  0.00  0.00    +0.000 OA
BRANCH  15  18
ATOM     17  C   UNL     1       1.075   2.478  21.814  0.00  0.00    +0.000 C 
ATOM     18  C   UNL     1       1.666   3.158  20.564  0.00  0.00    +0.000 C 
ATOM     19  C   UNL     1       0.950   2.605  19.325  0.00  0.00    +0.000 C 
ATOM     20  C   UNL     1       1.435   4.670  20.677  0.00  0.00    +0.000 C 
ENDBRANCH  15  18
ENDBRANCH  14  15
ENDBRANCH  13  14
ENDBRANCH  12  13
ENDBRANCH   1  12
TORSDOF 6
ENDMDL
MODEL 9
REMARK VINA RESULT:      -6.1      4.782      5.910
REMARK  Name = 
REMARK  9 active torsions:
REMARK  status: ('A' for Active; 'I' for Inactive)
REMARK    1  A    between atoms: C_1  and  C_2
REMARK    2  A    between atoms: C_2  and  C_3
REMARK    3  A    between atoms: C_2  and  C_4
REMARK    4  A    between atoms: C_2  and  C_5
REMARK    5  A    between atoms: C_5  and  O_7
REMARK    6  A    between atoms: O_7  and  C_8
REMARK    7  A    between atoms: C_8  and  S_9
REMARK    8  A    between atoms: S_9  and  C_10
REMARK    9  A    between atoms: C_12  and  C_13
REMARK                            x       y       z     vdW  Elec       q    Type
REMARK                         _______ _______ _______ _____ _____    ______ ____
ROOT
ATOM      1  C   UNL     1       7.727   7.031  18.111  0.00  0.00    +0.000 A 
ATOM      2  N   UNL     1       8.539   7.771  18.820  0.00  0.00    +0.000 NA
ATOM      3  C   UNL     1       8.396   9.027  18.263  0.00  0.00    +0.000 A 
ATOM      4  N   UNL     1       7.540   9.053  17.221  0.00  0.00    +0.000 NA
ATOM      5  O   UNL     1       7.102   7.735  17.117  0.00  0.00    +0.000 OA
ENDROOT
BRANCH   3   6
ATOM      6  C   UNL     1       9.078  10.210  18.775  0.00  0.00    +0.000 A 
ATOM      7  C   UNL     1       9.528  11.214  17.923  0.00  0.00    +0.000 A 
ATOM      8  N   UNL     1      10.165  12.331  18.363  0.00  0.00    +0.000 NA
ATOM      9  C   UNL     1      10.338  12.403  19.701  0.00  0.00    +0.000 A 
ATOM     10  C   UNL     1       9.897  11.414  20.559  0.00  0.00    +0.000 A 
ATOM     11  N   UNL     1       9.255  10.306  20.125  0.00  0.00    +0.000 NA
ENDBRANCH   3   6
BRANCH   1  12
ATOM     12  S   UNL     1       7.530   5.326  18.350  0.00  0.00    +0.000 S 
BRANCH  12  13
ATOM     13  C   UNL     1       5.958   5.288  19.258  0.00  0.00    +0.000 C 
BRANCH  13  14
ATOM     14  O   UNL     1       4.897   4.715  18.462  0.00  0.00    +0.000 OA
BRANCH  14  15
ATOM     15  C   UNL     1       4.307   3.621  19.034  0.00  0.00    +0.000 C 
ATOM     16  O   UNL     1       4.902   2.811  19.728  0.00  0.00    +0.000 OA
BRANCH  15  18
ATOM     17  C   UNL     1       2.544   2.230  17.909  0.00  0.00    +0.000 C 
ATOM     18  C   UNL     1       2.811   3.527  18.696  0.00  0.00    +0.000 C 
ATOM     19  C   UNL     1       2.394   4.719  17.825  0.00  0.00    +0.000 C 
ATOM     20  C   UNL     1       1.979   3.496  19.983  0.00  0.00    +0.000 C 
ENDBRANCH  15  18
ENDBRANCH  14  15
ENDBRANCH  13  14
ENDBRANCH  12  13
ENDBRANCH   1  12
TORSDOF 6
ENDMDL
