MODEL 1
REMARK VINA RESULT:      -8.6      0.000      0.000
REMARK  Name = 
REMARK  6 active torsions:
REMARK  status: ('A' for Active; 'I' for Inactive)
REMARK    1  A    between atoms: C_1  and  O_2
REMARK    2  A    between atoms: O_2  and  C_3
REMARK    3  A    between atoms: C_7  and  C_8
REMARK    4  A    between atoms: C_12  and  C_13
REMARK    5  A    between atoms: C_13  and  C_15
REMARK    6  A    between atoms: N_19  and  C_20
REMARK                            x       y       z     vdW  Elec       q    Type
REMARK                         _______ _______ _______ _____ _____    ______ ____
ROOT
ATOM      1  C   UNL     1       2.944   5.707  19.343  0.00  0.00    +0.000 A 
ATOM      2  C   UNL     1       2.176   5.531  20.496  0.00  0.00    +0.000 A 
ATOM      3  C   UNL     1       1.440   6.603  21.008  0.00  0.00    +0.000 A 
ATOM      4  C   UNL     1       1.459   7.822  20.337  0.00  0.00    +0.000 A 
ATOM      5  N   UNL     1       0.619   8.862  20.786  0.00  0.00    +0.000 N 
ATOM      6  N   UNL     1       2.213   8.004  19.228  0.00  0.00    +0.000 NA
ATOM      7  C   UNL     1       2.924   6.956  18.752  0.00  0.00    +0.000 A 
ATOM      8  H   UNL     1       0.822   9.115  21.747  0.00  0.00    +0.000 HD
ENDROOT
BRANCH   5   9
ATOM      9  C   UNL     1       0.224   9.965  19.998  0.00  0.00    +0.000 A 
ATOM     10  C   UNL     1      -0.767   9.836  19.013  0.00  0.00    +0.000 A 
ATOM     11  C   UNL     1      -1.139  10.925  18.225  0.00  0.00    +0.000 A 
ATOM     12  C   UNL     1      -0.535  12.158  18.432  0.00  0.00    +0.000 A 
ATOM     13  F   UNL     1      -0.886  13.198  17.666  0.00  0.00    +0.000 F 
ATOM     14  C   UNL     1       0.425  12.327  19.422  0.00  0.00    +0.000 A 
ATOM     15  C   UNL     1       0.789  11.232  20.200  0.00  0.00    +0.000 A 
ATOM     16  F   UNL     1       1.722  11.394  21.153  0.00  0.00    +0.000 F 
ENDBRANCH   5   9
BRANCH   1  17
ATOM     17  C   UNL     1       3.644   4.555  18.737  0.00  0.00    +0.000 C 
ATOM     18  O   UNL     1       3.249   3.431  19.044  0.00  0.00    +0.000 OA
BRANCH  17  28
ATOM     19  C   UNL     1       6.088   4.980  18.104  0.00  0.00    +0.000 A 
ATOM     20  C   UNL     1       7.100   4.981  17.129  0.00  0.00    +0.000 A 
ATOM     21  C   UNL     1       6.727   4.701  15.816  0.00  0.00    +0.000 A 
ATOM     22  N   UNL     1       7.455   4.610  14.660  0.00  0.00    +0.000 N 
ATOM     23  C   UNL     1       6.600   4.294  13.637  0.00  0.00    +0.000 A 
ATOM     24  C   UNL     1       7.079   4.108  12.248  0.00  0.00    +0.000 C 
ATOM     25  N   UNL     1       5.364   4.182  14.080  0.00  0.00    +0.000 NA
ATOM     26  C   UNL     1       5.425   4.418  15.431  0.00  0.00    +0.000 A 
ATOM     27  C   UNL     1       4.420   4.399  16.406  0.00  0.00    +0.000 A 
ATOM     28  C   UNL     1       4.757   4.677  17.752  0.00  0.00    +0.000 A 
ATOM     29  H   UNL     1       8.453   4.742  14.577  0.00  0.00    +0.000 HD
BRANCH  19  31
ATOM     30  C   UNL     1       7.718   5.644  19.690  0.00  0.00    +0.000 C 
ATOM     31  O   UNL     1       6.384   5.203  19.427  0.00  0.00    +0.000 OA
ENDBRANCH  19  31
ENDBRANCH  17  28
ENDBRANCH   1  17
TORSDOF 4
ENDMDL
MODEL 2
REMARK VINA RESULT:      -8.5      4.224      9.516
REMARK  Name = 
REMARK  6 active torsions:
REMARK  status: ('A' for Active; 'I' for Inactive)
REMARK    1  A    between atoms: C_1  and  O_2
REMARK    2  A    between atoms: O_2  and  C_3
REMARK    3  A    between atoms: C_7  and  C_8
REMARK    4  A    between atoms: C_12  and  C_13
REMARK    5  A    between atoms: C_13  and  C_15
REMARK    6  A    between atoms: N_19  and  C_20
REMARK                            x       y       z     vdW  Elec       q    Type
REMARK                         _______ _______ _______ _____ _____    ______ ____
ROOT
ATOM      1  C   UNL     1       1.252   9.510  19.079  0.00  0.00    +0.000 A 
ATOM      2  C   UNL     1       1.180   8.844  20.304  0.00  0.00    +0.000 A 
ATOM      3  C   UNL     1       1.753   7.576  20.437  0.00  0.00    +0.000 A 
ATOM      4  C   UNL     1       2.417   7.014  19.351  0.00  0.00    +0.000 A 
ATOM      5  N   UNL     1       3.100   5.793  19.527  0.00  0.00    +0.000 N 
ATOM      6  N   UNL     1       2.478   7.647  18.158  0.00  0.00    +0.000 NA
ATOM      7  C   UNL     1       1.911   8.872  18.046  0.00  0.00    +0.000 A 
ATOM      8  H   UNL     1       2.471   5.056  19.830  0.00  0.00    +0.000 HD
ENDROOT
BRANCH   5   9
ATOM      9  C   UNL     1       4.128   5.324  18.681  0.00  0.00    +0.000 A 
ATOM     10  C   UNL     1       5.479   5.548  18.988  0.00  0.00    +0.000 A 
ATOM     11  C   UNL     1       6.490   5.100  18.137  0.00  0.00    +0.000 A 
ATOM     12  C   UNL     1       6.156   4.406  16.983  0.00  0.00    +0.000 A 
ATOM     13  F   UNL     1       7.128   3.988  16.163  0.00  0.00    +0.000 F 
ATOM     14  C   UNL     1       4.830   4.139  16.668  0.00  0.00    +0.000 A 
ATOM     15  C   UNL     1       3.830   4.593  17.523  0.00  0.00    +0.000 A 
ATOM     16  F   UNL     1       2.547   4.340  17.215  0.00  0.00    +0.000 F 
ENDBRANCH   5   9
BRANCH   1  17
ATOM     17  C   UNL     1       0.739  10.891  18.956  0.00  0.00    +0.000 C 
ATOM     18  O   UNL     1       1.540  11.763  18.621  0.00  0.00    +0.000 OA
BRANCH  17  28
ATOM     19  C   UNL     1      -1.183  11.827  20.365  0.00  0.00    +0.000 A 
ATOM     20  C   UNL     1      -2.519  12.255  20.453  0.00  0.00    +0.000 A 
ATOM     21  C   UNL     1      -3.324  12.082  19.329  0.00  0.00    +0.000 A 
ATOM     22  N   UNL     1      -4.634  12.399  19.088  0.00  0.00    +0.000 N 
ATOM     23  C   UNL     1      -4.935  12.028  17.803  0.00  0.00    +0.000 A 
ATOM     24  C   UNL     1      -6.280  12.248  17.222  0.00  0.00    +0.000 C 
ATOM     25  N   UNL     1      -3.888  11.489  17.214  0.00  0.00    +0.000 NA
ATOM     26  C   UNL     1      -2.875  11.525  18.140  0.00  0.00    +0.000 A 
ATOM     27  C   UNL     1      -1.538  11.117  18.048  0.00  0.00    +0.000 A 
ATOM     28  C   UNL     1      -0.687  11.275  19.166  0.00  0.00    +0.000 A 
ATOM     29  H   UNL     1      -5.267  12.840  19.740  0.00  0.00    +0.000 HD
BRANCH  19  31
ATOM     30  C   UNL     1      -0.804  11.576  22.690  0.00  0.00    +0.000 C 
ATOM     31  O   UNL     1      -0.316  12.003  21.416  0.00  0.00    +0.000 OA
ENDBRANCH  19  31
ENDBRANCH  17  28
ENDBRANCH   1  17
TORSDOF 4
ENDMDL
MODEL 3
REMARK VINA RESULT:      -8.4      1.076      1.183
REMARK  Name = 
REMARK  6 active torsions:
REMARK  status: ('A' for Active; 'I' for Inactive)
REMARK    1  A    between atoms: C_1  and  O_2
REMARK    2  A    between atoms: O_2  and  C_3
REMARK    3  A    between atoms: C_7  and  C_8
REMARK    4  A    between atoms: C_12  and  C_13
REMARK    5  A    between atoms: C_13  and  C_15
REMARK    6  A    between atoms: N_19  and  C_20
REMARK                            x       y       z     vdW  Elec       q    Type
REMARK                         _______ _______ _______ _____ _____    ______ ____
ROOT
ATOM      1  C   UNL     1       3.281   4.874  19.376  0.00  0.00    +0.000 A 
ATOM      2  C   UNL     1       2.178   4.488  20.141  0.00  0.00    +0.000 A 
ATOM      3  C   UNL     1       1.379   5.463  20.745  0.00  0.00    +0.000 A 
ATOM      4  C   UNL     1       1.678   6.807  20.543  0.00  0.00    +0.000 A 
ATOM      5  N   UNL     1       0.799   7.785  21.050  0.00  0.00    +0.000 N 
ATOM      6  N   UNL     1       2.753   7.187  19.816  0.00  0.00    +0.000 NA
ATOM      7  C   UNL     1       3.519   6.228  19.245  0.00  0.00    +0.000 A 
ATOM      8  H   UNL     1       0.701   7.711  22.057  0.00  0.00    +0.000 HD
ENDROOT
BRANCH   5   9
ATOM      9  C   UNL     1       0.736   9.118  20.588  0.00  0.00    +0.000 A 
ATOM     10  C   UNL     1       0.822   9.418  19.220  0.00  0.00    +0.000 A 
ATOM     11  C   UNL     1       0.779  10.738  18.773  0.00  0.00    +0.000 A 
ATOM     12  C   UNL     1       0.628  11.768  19.691  0.00  0.00    +0.000 A 
ATOM     13  F   UNL     1       0.600  13.035  19.259  0.00  0.00    +0.000 F 
ATOM     14  C   UNL     1       0.507  11.503  21.049  0.00  0.00    +0.000 A 
ATOM     15  C   UNL     1       0.553  10.181  21.484  0.00  0.00    +0.000 A 
ATOM     16  F   UNL     1       0.442   9.926  22.798  0.00  0.00    +0.000 F 
ENDBRANCH   5   9
BRANCH   1  17
ATOM     17  C   UNL     1       4.071   3.857  18.652  0.00  0.00    +0.000 C 
ATOM     18  O   UNL     1       3.823   2.675  18.891  0.00  0.00    +0.000 OA
BRANCH  17  28
ATOM     19  C   UNL     1       6.421   4.578  17.935  0.00  0.00    +0.000 A 
ATOM     20  C   UNL     1       7.368   4.767  16.914  0.00  0.00    +0.000 A 
ATOM     21  C   UNL     1       6.943   4.570  15.601  0.00  0.00    +0.000 A 
ATOM     22  N   UNL     1       7.605   4.655  14.406  0.00  0.00    +0.000 N 
ATOM     23  C   UNL     1       6.723   4.348  13.403  0.00  0.00    +0.000 A 
ATOM     24  C   UNL     1       7.132   4.335  11.980  0.00  0.00    +0.000 C 
ATOM     25  N   UNL     1       5.532   4.074  13.896  0.00  0.00    +0.000 NA
ATOM     26  C   UNL     1       5.652   4.194  15.259  0.00  0.00    +0.000 A 
ATOM     27  C   UNL     1       4.715   3.988  16.279  0.00  0.00    +0.000 A 
ATOM     28  C   UNL     1       5.105   4.176  17.625  0.00  0.00    +0.000 A 
ATOM     29  H   UNL     1       8.580   4.893  14.284  0.00  0.00    +0.000 HD
BRANCH  19  31
ATOM     30  C   UNL     1       7.703   5.759  19.539  0.00  0.00    +0.000 C 
ATOM     31  O   UNL     1       6.774   4.710  19.256  0.00  0.00    +0.000 OA
ENDBRANCH  19  31
ENDBRANCH  17  28
ENDBRANCH   1  17
TORSDOF 4
ENDMDL
MODEL 4
REMARK VINA RESULT:      -8.4      4.868      9.622
REMARK  Name = 
REMARK  6 active torsions:
REMARK  status: ('A' for Active; 'I' for Inactive)
REMARK    1  A    between atoms: C_1  and  O_2
REMARK    2  A    between atoms: O_2  and  C_3
REMARK    3  A    between atoms: C_7  and  C_8
REMARK    4  A    between atoms: C_12  and  C_13
REMARK    5  A    between atoms: C_13  and  C_15
REMARK    6  A    between atoms: N_19  and  C_20
REMARK                            x       y       z     vdW  Elec       q    Type
REMARK                         _______ _______ _______ _____ _____    ______ ____
ROOT
ATOM      1  C   UNL     1       1.202  10.198  19.014  0.00  0.00    +0.000 A 
ATOM      2  C   UNL     1       1.804   9.818  17.813  0.00  0.00    +0.000 A 
ATOM      3  C   UNL     1       2.344   8.536  17.683  0.00  0.00    +0.000 A 
ATOM      4  C   UNL     1       2.240   7.645  18.748  0.00  0.00    +0.000 A 
ATOM      5  N   UNL     1       2.673   6.315  18.570  0.00  0.00    +0.000 N 
ATOM      6  N   UNL     1       1.671   8.011  19.919  0.00  0.00    +0.000 NA
ATOM      7  C   UNL     1       1.161   9.260  20.028  0.00  0.00    +0.000 A 
ATOM      8  H   UNL     1       3.656   6.275  18.320  0.00  0.00    +0.000 HD
ENDROOT
BRANCH   5   9
ATOM      9  C   UNL     1       2.265   5.228  19.373  0.00  0.00    +0.000 A 
ATOM     10  C   UNL     1       2.653   5.133  20.718  0.00  0.00    +0.000 A 
ATOM     11  C   UNL     1       2.263   4.046  21.501  0.00  0.00    +0.000 A 
ATOM     12  C   UNL     1       1.464   3.056  20.947  0.00  0.00    +0.000 A 
ATOM     13  F   UNL     1       1.101   2.008  21.697  0.00  0.00    +0.000 F 
ATOM     14  C   UNL     1       1.035   3.137  19.628  0.00  0.00    +0.000 A 
ATOM     15  C   UNL     1       1.432   4.226  18.857  0.00  0.00    +0.000 A 
ATOM     16  F   UNL     1       1.023   4.301  17.580  0.00  0.00    +0.000 F 
ENDBRANCH   5   9
BRANCH   1  17
ATOM     17  C   UNL     1       0.540  11.515  19.126  0.00  0.00    +0.000 C 
ATOM     18  O   UNL     1       1.245  12.514  18.987  0.00  0.00    +0.000 OA
BRANCH  17  28
ATOM     19  C   UNL     1      -1.488  12.093  20.578  0.00  0.00    +0.000 A 
ATOM     20  C   UNL     1      -2.867  12.340  20.683  0.00  0.00    +0.000 A 
ATOM     21  C   UNL     1      -3.641  12.153  19.539  0.00  0.00    +0.000 A 
ATOM     22  N   UNL     1      -4.980  12.319  19.307  0.00  0.00    +0.000 N 
ATOM     23  C   UNL     1      -5.230  12.010  17.995  0.00  0.00    +0.000 A 
ATOM     24  C   UNL     1      -6.591  12.102  17.416  0.00  0.00    +0.000 C 
ATOM     25  N   UNL     1      -4.121  11.653  17.380  0.00  0.00    +0.000 NA
ATOM     26  C   UNL     1      -3.123  11.748  18.318  0.00  0.00    +0.000 A 
ATOM     27  C   UNL     1      -1.745  11.520  18.211  0.00  0.00    +0.000 A 
ATOM     28  C   UNL     1      -0.924  11.699  19.347  0.00  0.00    +0.000 A 
ATOM     29  H   UNL     1      -5.665  12.627  19.983  0.00  0.00    +0.000 HD
BRANCH  19  31
ATOM     30  C   UNL     1      -0.746  11.325  22.693  0.00  0.00    +0.000 C 
ATOM     31  O   UNL     1      -0.652  12.297  21.649  0.00  0.00    +0.000 OA
ENDBRANCH  19  31
ENDBRANCH  17  28
ENDBRANCH   1  17
TORSDOF 4
ENDMDL
MODEL 5
REMARK VINA RESULT:      -8.3      3.697      8.671
REMARK  Name = 
REMARK  6 active torsions:
REMARK  status: ('A' for Active; 'I' for Inactive)
REMARK    1  A    between atoms: C_1  and  O_2
REMARK    2  A    between atoms: O_2  and  C_3
REMARK    3  A    between atoms: C_7  and  C_8
REMARK    4  A    between atoms: C_12  and  C_13
REMARK    5  A    between atoms: C_13  and  C_15
REMARK    6  A    between atoms: N_19  and  C_20
REMARK                            x       y       z     vdW  Elec       q    Type
REMARK                         _______ _______ _______ _____ _____    ______ ____
ROOT
ATOM      1  C   UNL     1       1.595   7.927  20.253  0.00  0.00    +0.000 A 
ATOM      2  C   UNL     1       1.515   6.756  21.009  0.00  0.00    +0.000 A 
ATOM      3  C   UNL     1       2.117   5.585  20.540  0.00  0.00    +0.000 A 
ATOM      4  C   UNL     1       2.817   5.618  19.337  0.00  0.00    +0.000 A 
ATOM      5  N   UNL     1       3.527   4.470  18.930  0.00  0.00    +0.000 N 
ATOM      6  N   UNL     1       2.886   6.745  18.593  0.00  0.00    +0.000 NA
ATOM      7  C   UNL     1       2.291   7.867  19.062  0.00  0.00    +0.000 A 
ATOM      8  H   UNL     1       2.911   3.670  18.826  0.00  0.00    +0.000 HD
ENDROOT
BRANCH   5   9
ATOM      9  C   UNL     1       4.585   4.475  17.995  0.00  0.00    +0.000 A 
ATOM     10  C   UNL     1       4.369   4.130  16.652  0.00  0.00    +0.000 A 
ATOM     11  C   UNL     1       5.422   4.117  15.738  0.00  0.00    +0.000 A 
ATOM     12  C   UNL     1       6.697   4.471  16.157  0.00  0.00    +0.000 A 
ATOM     13  F   UNL     1       7.708   4.447  15.280  0.00  0.00    +0.000 F 
ATOM     14  C   UNL     1       6.938   4.850  17.472  0.00  0.00    +0.000 A 
ATOM     15  C   UNL     1       5.879   4.856  18.375  0.00  0.00    +0.000 A 
ATOM     16  F   UNL     1       6.113   5.217  19.648  0.00  0.00    +0.000 F 
ENDBRANCH   5   9
BRANCH   1  17
ATOM     17  C   UNL     1       1.049   9.192  20.789  0.00  0.00    +0.000 C 
ATOM     18  O   UNL     1       1.348   9.490  21.945  0.00  0.00    +0.000 OA
BRANCH  17  28
ATOM     19  C   UNL     1       0.526  11.499  19.810  0.00  0.00    +0.000 A 
ATOM     20  C   UNL     1      -0.265  12.305  18.974  0.00  0.00    +0.000 A 
ATOM     21  C   UNL     1      -1.377  11.714  18.377  0.00  0.00    +0.000 A 
ATOM     22  N   UNL     1      -2.321  12.207  17.517  0.00  0.00    +0.000 N 
ATOM     23  C   UNL     1      -3.199  11.198  17.218  0.00  0.00    +0.000 A 
ATOM     24  C   UNL     1      -4.339  11.403  16.295  0.00  0.00    +0.000 C 
ATOM     25  N   UNL     1      -2.866  10.088  17.845  0.00  0.00    +0.000 NA
ATOM     26  C   UNL     1      -1.731  10.385  18.559  0.00  0.00    +0.000 A 
ATOM     27  C   UNL     1      -0.930   9.578  19.377  0.00  0.00    +0.000 A 
ATOM     28  C   UNL     1       0.207  10.139  20.002  0.00  0.00    +0.000 A 
ATOM     29  H   UNL     1      -2.359  13.150  17.156  0.00  0.00    +0.000 HD
BRANCH  19  31
ATOM     30  C   UNL     1       1.689  13.416  20.577  0.00  0.00    +0.000 C 
ATOM     31  O   UNL     1       1.662  11.998  20.400  0.00  0.00    +0.000 OA
ENDBRANCH  19  31
ENDBRANCH  17  28
ENDBRANCH   1  17
TORSDOF 4
ENDMDL
MODEL 6
REMARK VINA RESULT:      -8.3      3.834      8.796
REMARK  Name = 
REMARK  6 active torsions:
REMARK  status: ('A' for Active; 'I' for Inactive)
REMARK    1  A    between atoms: C_1  and  O_2
REMARK    2  A    between atoms: O_2  and  C_3
REMARK    3  A    between atoms: C_7  and  C_8
REMARK    4  A    between atoms: C_12  and  C_13
REMARK    5  A    between atoms: C_13  and  C_15
REMARK    6  A    between atoms: N_19  and  C_20
REMARK                            x       y       z     vdW  Elec       q    Type
REMARK                         _______ _______ _______ _____ _____    ______ ____
ROOT
ATOM      1  C   UNL     1       1.555   8.081  20.319  0.00  0.00    +0.000 A 
ATOM      2  C   UNL     1       1.427   6.939  21.111  0.00  0.00    +0.000 A 
ATOM      3  C   UNL     1       2.018   5.741  20.699  0.00  0.00    +0.000 A 
ATOM      4  C   UNL     1       2.754   5.718  19.519  0.00  0.00    +0.000 A 
ATOM      5  N   UNL     1       3.451   4.542  19.172  0.00  0.00    +0.000 N 
ATOM      6  N   UNL     1       2.870   6.817  18.739  0.00  0.00    +0.000 NA
ATOM      7  C   UNL     1       2.285   7.966  19.152  0.00  0.00    +0.000 A 
ATOM      8  H   UNL     1       2.822   3.752  19.076  0.00  0.00    +0.000 HD
ENDROOT
BRANCH   5   9
ATOM      9  C   UNL     1       4.536   4.494  18.270  0.00  0.00    +0.000 A 
ATOM     10  C   UNL     1       5.824   4.889  18.661  0.00  0.00    +0.000 A 
ATOM     11  C   UNL     1       6.888   4.857  17.759  0.00  0.00    +0.000 A 
ATOM     12  C   UNL     1       6.673   4.410  16.463  0.00  0.00    +0.000 A 
ATOM     13  F   UNL     1       7.693   4.393  15.596  0.00  0.00    +0.000 F 
ATOM     14  C   UNL     1       5.417   3.981  16.054  0.00  0.00    +0.000 A 
ATOM     15  C   UNL     1       4.363   4.019  16.962  0.00  0.00    +0.000 A 
ATOM     16  F   UNL     1       3.147   3.610  16.564  0.00  0.00    +0.000 F 
ENDBRANCH   5   9
BRANCH   1  17
ATOM     17  C   UNL     1       1.021   9.375  20.794  0.00  0.00    +0.000 C 
ATOM     18  O   UNL     1       1.336   9.732  21.929  0.00  0.00    +0.000 OA
BRANCH  17  28
ATOM     19  C   UNL     1       0.497  11.628  19.697  0.00  0.00    +0.000 A 
ATOM     20  C   UNL     1      -0.303  12.392  18.830  0.00  0.00    +0.000 A 
ATOM     21  C   UNL     1      -1.429  11.777  18.287  0.00  0.00    +0.000 A 
ATOM     22  N   UNL     1      -2.384  12.230  17.417  0.00  0.00    +0.000 N 
ATOM     23  C   UNL     1      -3.275  11.213  17.191  0.00  0.00    +0.000 A 
ATOM     24  C   UNL     1      -4.430  11.375  16.277  0.00  0.00    +0.000 C 
ATOM     25  N   UNL     1      -2.939  10.137  17.873  0.00  0.00    +0.000 NA
ATOM     26  C   UNL     1      -1.790  10.464  18.550  0.00  0.00    +0.000 A 
ATOM     27  C   UNL     1      -0.981   9.698  19.398  0.00  0.00    +0.000 A 
ATOM     28  C   UNL     1       0.172  10.283  19.970  0.00  0.00    +0.000 A 
ATOM     29  H   UNL     1      -2.421  13.151  17.004  0.00  0.00    +0.000 HD
BRANCH  19  31
ATOM     30  C   UNL     1       1.524  13.460  20.793  0.00  0.00    +0.000 C 
ATOM     31  O   UNL     1       1.648  12.149  20.237  0.00  0.00    +0.000 OA
ENDBRANCH  19  31
ENDBRANCH  17  28
ENDBRANCH   1  17
TORSDOF 4
ENDMDL
MODEL 7
REMARK VINA RESULT:      -8.2      4.068      9.438
REMARK  Name = 
REMARK  6 active torsions:
REMARK  status: ('A' for Active; 'I' for Inactive)
REMARK    1  A    between atoms: C_1  and  O_2
REMARK    2  A    between atoms: O_2  and  C_3
REMARK    3  A    between atoms: C_7  and  C_8
REMARK    4  A    between atoms: C_12  and  C_13
REMARK    5  A    between atoms: C_13  and  C_15
REMARK    6  A    between atoms: N_19  and  C_20
REMARK                            x       y       z     vdW  Elec       q    Type
REMARK                         _______ _______ _______ _____ _____    ______ ____
ROOT
ATOM      1  C   UNL     1       1.461   8.846  19.562  0.00  0.00    +0.000 A 
ATOM      2  C   UNL     1       1.954   9.110  18.283  0.00  0.00    +0.000 A 
ATOM      3  C   UNL     1       2.747   8.158  17.636  0.00  0.00    +0.000 A 
ATOM      4  C   UNL     1       3.003   6.945  18.269  0.00  0.00    +0.000 A 
ATOM      5  N   UNL     1       3.697   5.941  17.564  0.00  0.00    +0.000 N 
ATOM      6  N   UNL     1       2.541   6.689  19.514  0.00  0.00    +0.000 NA
ATOM      7  C   UNL     1       1.780   7.626  20.127  0.00  0.00    +0.000 A 
ATOM      8  H   UNL     1       4.617   6.258  17.275  0.00  0.00    +0.000 HD
ENDROOT
BRANCH   5   9
ATOM      9  C   UNL     1       3.667   4.568  17.893  0.00  0.00    +0.000 A 
ATOM     10  C   UNL     1       2.791   3.685  17.244  0.00  0.00    +0.000 A 
ATOM     11  C   UNL     1       2.753   2.333  17.588  0.00  0.00    +0.000 A 
ATOM     12  C   UNL     1       3.607   1.853  18.571  0.00  0.00    +0.000 A 
ATOM     13  F   UNL     1       3.559   0.558  18.908  0.00  0.00    +0.000 F 
ATOM     14  C   UNL     1       4.509   2.695  19.209  0.00  0.00    +0.000 A 
ATOM     15  C   UNL     1       4.536   4.041  18.859  0.00  0.00    +0.000 A 
ATOM     16  F   UNL     1       5.405   4.857  19.480  0.00  0.00    +0.000 F 
ENDBRANCH   5   9
BRANCH   1  17
ATOM     17  C   UNL     1       0.540   9.803  20.212  0.00  0.00    +0.000 C 
ATOM     18  O   UNL     1       0.083   9.487  21.311  0.00  0.00    +0.000 OA
BRANCH  17  28
ATOM     19  C   UNL     1      -0.919  11.340  18.776  0.00  0.00    +0.000 A 
ATOM     20  C   UNL     1      -1.259  12.638  18.357  0.00  0.00    +0.000 A 
ATOM     21  C   UNL     1      -0.459  13.687  18.807  0.00  0.00    +0.000 A 
ATOM     22  N   UNL     1      -0.527  15.038  18.600  0.00  0.00    +0.000 N 
ATOM     23  C   UNL     1       0.501  15.630  19.287  0.00  0.00    +0.000 A 
ATOM     24  C   UNL     1       0.703  17.098  19.281  0.00  0.00    +0.000 C 
ATOM     25  N   UNL     1       1.223  14.726  19.917  0.00  0.00    +0.000 NA
ATOM     26  C   UNL     1       0.635  13.516  19.642  0.00  0.00    +0.000 A 
ATOM     27  C   UNL     1       0.961  12.224  20.074  0.00  0.00    +0.000 A 
ATOM     28  C   UNL     1       0.175  11.131  19.641  0.00  0.00    +0.000 A 
ATOM     29  H   UNL     1      -1.221  15.519  18.046  0.00  0.00    +0.000 HD
BRANCH  19  31
ATOM     30  C   UNL     1      -2.856  10.567  17.653  0.00  0.00    +0.000 C 
ATOM     31  O   UNL     1      -1.684  10.259  18.410  0.00  0.00    +0.000 OA
ENDBRANCH  19  31
ENDBRANCH  17  28
ENDBRANCH   1  17
TORSDOF 4
ENDMDL
MODEL 8
REMARK VINA RESULT:      -8.2      4.900     10.071
REMARK  Name = 
REMARK  6 active torsions:
REMARK  status: ('A' for Active; 'I' for Inactive)
REMARK    1  A    between atoms: C_1  and  O_2
REMARK    2  A    between atoms: O_2  and  C_3
REMARK    3  A    between atoms: C_7  and  C_8
REMARK    4  A    between atoms: C_12  and  C_13
REMARK    5  A    between atoms: C_13  and  C_15
REMARK    6  A    between atoms: N_19  and  C_20
REMARK                            x       y       z     vdW  Elec       q    Type
REMARK                         _______ _______ _______ _____ _____    ______ ____
ROOT
ATOM      1  C   UNL     1       1.327  10.362  19.085  0.00  0.00    +0.000 A 
ATOM      2  C   UNL     1       1.872   9.975  17.859  0.00  0.00    +0.000 A 
ATOM      3  C   UNL     1       2.361   8.676  17.696  0.00  0.00    +0.000 A 
ATOM      4  C   UNL     1       2.264   7.778  18.755  0.00  0.00    +0.000 A 
ATOM      5  N   UNL     1       2.643   6.436  18.547  0.00  0.00    +0.000 N 
ATOM      6  N   UNL     1       1.750   8.150  19.950  0.00  0.00    +0.000 NA
ATOM      7  C   UNL     1       1.288   9.414  20.089  0.00  0.00    +0.000 A 
ATOM      8  H   UNL     1       3.614   6.364  18.262  0.00  0.00    +0.000 HD
ENDROOT
BRANCH   5   9
ATOM      9  C   UNL     1       2.226   5.355  19.353  0.00  0.00    +0.000 A 
ATOM     10  C   UNL     1       2.592   5.273  20.706  0.00  0.00    +0.000 A 
ATOM     11  C   UNL     1       2.193   4.191  21.491  0.00  0.00    +0.000 A 
ATOM     12  C   UNL     1       1.406   3.193  20.933  0.00  0.00    +0.000 A 
ATOM     13  F   UNL     1       1.036   2.150  21.687  0.00  0.00    +0.000 F 
ATOM     14  C   UNL     1       1.000   3.261  19.607  0.00  0.00    +0.000 A 
ATOM     15  C   UNL     1       1.406   4.344  18.832  0.00  0.00    +0.000 A 
ATOM     16  F   UNL     1       1.018   4.406  17.548  0.00  0.00    +0.000 F 
ENDBRANCH   5   9
BRANCH   1  17
ATOM     17  C   UNL     1       0.716  11.700  19.234  0.00  0.00    +0.000 C 
ATOM     18  O   UNL     1       1.335  12.657  18.770  0.00  0.00    +0.000 OA
BRANCH  17  28
ATOM     19  C   UNL     1      -1.826  11.989  19.147  0.00  0.00    +0.000 A 
ATOM     20  C   UNL     1      -3.050  12.129  19.824  0.00  0.00    +0.000 A 
ATOM     21  C   UNL     1      -3.005  12.250  21.211  0.00  0.00    +0.000 A 
ATOM     22  N   UNL     1      -3.996  12.382  22.147  0.00  0.00    +0.000 N 
ATOM     23  C   UNL     1      -3.411  12.448  23.385  0.00  0.00    +0.000 A 
ATOM     24  C   UNL     1      -4.214  12.579  24.623  0.00  0.00    +0.000 C 
ATOM     25  N   UNL     1      -2.100  12.367  23.286  0.00  0.00    +0.000 NA
ATOM     26  C   UNL     1      -1.830  12.232  21.947  0.00  0.00    +0.000 A 
ATOM     27  C   UNL     1      -0.613  12.073  21.273  0.00  0.00    +0.000 A 
ATOM     28  C   UNL     1      -0.613  11.946  19.864  0.00  0.00    +0.000 A 
ATOM     29  H   UNL     1      -4.988  12.415  21.960  0.00  0.00    +0.000 HD
BRANCH  19  31
ATOM     30  C   UNL     1      -2.996  11.326  17.196  0.00  0.00    +0.000 C 
ATOM     31  O   UNL     1      -1.790  11.821  17.784  0.00  0.00    +0.000 OA
ENDBRANCH  19  31
ENDBRANCH  17  28
ENDBRANCH   1  17
TORSDOF 4
ENDMDL
MODEL 9
REMARK VINA RESULT:      -8.2      0.881      1.248
REMARK  Name = 
REMARK  6 active torsions:
REMARK  status: ('A' for Active; 'I' for Inactive)
REMARK    1  A    between atoms: C_1  and  O_2
REMARK    2  A    between atoms: O_2  and  C_3
REMARK    3  A    between atoms: C_7  and  C_8
REMARK    4  A    between atoms: C_12  and  C_13
REMARK    5  A    between atoms: C_13  and  C_15
REMARK    6  A    between atoms: N_19  and  C_20
REMARK                            x       y       z     vdW  Elec       q    Type
REMARK                         _______ _______ _______ _____ _____    ______ ____
ROOT
ATOM      1  C   UNL     1       2.812   5.917  19.205  0.00  0.00    +0.000 A 
ATOM      2  C   UNL     1       2.059   5.775  20.372  0.00  0.00    +0.000 A 
ATOM      3  C   UNL     1       1.408   6.886  20.917  0.00  0.00    +0.000 A 
ATOM      4  C   UNL     1       1.496   8.111  20.263  0.00  0.00    +0.000 A 
ATOM      5  N   UNL     1       0.737   9.198  20.745  0.00  0.00    +0.000 N 
ATOM      6  N   UNL     1       2.235   8.259  19.140  0.00  0.00    +0.000 NA
ATOM      7  C   UNL     1       2.864   7.173  18.632  0.00  0.00    +0.000 A 
ATOM      8  H   UNL     1       0.978   9.422  21.705  0.00  0.00    +0.000 HD
ENDROOT
BRANCH   5   9
ATOM      9  C   UNL     1       0.400  10.337  19.983  0.00  0.00    +0.000 A 
ATOM     10  C   UNL     1       1.200  11.490  20.007  0.00  0.00    +0.000 A 
ATOM     11  C   UNL     1       0.850  12.619  19.266  0.00  0.00    +0.000 A 
ATOM     12  C   UNL     1      -0.293  12.595  18.480  0.00  0.00    +0.000 A 
ATOM     13  F   UNL     1      -0.633  13.685  17.781  0.00  0.00    +0.000 F 
ATOM     14  C   UNL     1      -1.088  11.459  18.409  0.00  0.00    +0.000 A 
ATOM     15  C   UNL     1      -0.730  10.339  19.153  0.00  0.00    +0.000 A 
ATOM     16  F   UNL     1      -1.503   9.242  19.089  0.00  0.00    +0.000 F 
ENDBRANCH   5   9
BRANCH   1  17
ATOM     17  C   UNL     1       3.420   4.730  18.567  0.00  0.00    +0.000 C 
ATOM     18  O   UNL     1       2.908   3.637  18.809  0.00  0.00    +0.000 OA
BRANCH  17  28
ATOM     19  C   UNL     1       5.897   5.064  18.016  0.00  0.00    +0.000 A 
ATOM     20  C   UNL     1       6.945   5.003  17.082  0.00  0.00    +0.000 A 
ATOM     21  C   UNL     1       6.614   4.689  15.765  0.00  0.00    +0.000 A 
ATOM     22  N   UNL     1       7.383   4.539  14.643  0.00  0.00    +0.000 N 
ATOM     23  C   UNL     1       6.558   4.212  13.598  0.00  0.00    +0.000 A 
ATOM     24  C   UNL     1       7.084   3.965  12.235  0.00  0.00    +0.000 C 
ATOM     25  N   UNL     1       5.304   4.150  13.995  0.00  0.00    +0.000 NA
ATOM     26  C   UNL     1       5.320   4.431  15.339  0.00  0.00    +0.000 A 
ATOM     27  C   UNL     1       4.279   4.473  16.275  0.00  0.00    +0.000 A 
ATOM     28  C   UNL     1       4.572   4.787  17.622  0.00  0.00    +0.000 A 
ATOM     29  H   UNL     1       8.387   4.639  14.594  0.00  0.00    +0.000 HD
BRANCH  19  31
ATOM     30  C   UNL     1       7.494   5.697  19.647  0.00  0.00    +0.000 C 
ATOM     31  O   UNL     1       6.149   5.323  19.341  0.00  0.00    +0.000 OA
ENDBRANCH  19  31
ENDBRANCH  17  28
ENDBRANCH   1  17
TORSDOF 4
ENDMDL
