MODEL 1
REMARK VINA RESULT:      -6.8      0.000      0.000
REMARK  Name = 
REMARK  10 active torsions:
REMARK  status: ('A' for Active; 'I' for Inactive)
REMARK    1  A    between atoms: C_1  and  C_2
REMARK    2  A    between atoms: C_2  and  O_3
REMARK    3  A    between atoms: O_3  and  C_4
REMARK    4  A    between atoms: C_8  and  C_9
REMARK    5  A    between atoms: C_9  and  N_10
REMARK    6  A    between atoms: N_10  and  C_11
REMARK    7  A    between atoms: C_11  and  C_12
REMARK    8  A    between atoms: C_11  and  C_13
REMARK    9  A    between atoms: N_16  and  C_17
REMARK   10  A    between atoms: C_17  and  C_18
REMARK                            x       y       z     vdW  Elec       q    Type
REMARK                         _______ _______ _______ _____ _____    ______ ____
ROOT
ATOM      1  C   UNL     1       2.012   3.776  20.256  0.00  0.00    +0.000 C 
ATOM      2  C   UNL     1       1.420   2.892  21.370  0.00  0.00    +0.000 C 
ENDROOT
BRANCH   1   3
ATOM      3  C   UNL     1       1.796   3.109  18.853  0.00  0.00    +0.000 C 
ATOM      4  C   UNL     1       2.845   2.030  18.515  0.00  0.00    +0.000 C 
ATOM      5  C   UNL     1       4.221   2.631  18.218  0.00  0.00    +0.000 C 
ATOM      6  N   UNL     1       4.140   3.543  17.070  0.00  0.00    +0.000 NA
ATOM      7  C   UNL     1       3.175   4.628  17.313  0.00  0.00    +0.000 C 
ATOM      8  C   UNL     1       1.783   4.090  17.660  0.00  0.00    +0.000 C 
BRANCH   6   9
ATOM      9  C   UNL     1       5.471   4.104  16.704  0.00  0.00    +0.000 C 
BRANCH   9  10
ATOM     10  C   UNL     1       5.677   4.762  15.317  0.00  0.00    +0.000 C 
ATOM     11  F   UNL     1       6.962   4.772  14.904  0.00  0.00    +0.000 F 
ATOM     12  F   UNL     1       4.956   4.119  14.367  0.00  0.00    +0.000 F 
ATOM     13  F   UNL     1       5.248   6.049  15.338  0.00  0.00    +0.000 F 
ENDBRANCH   9  10
ENDBRANCH   6   9
ENDBRANCH   1   3
BRANCH   1  14
ATOM     14  N   UNL     1       1.371   5.105  20.289  0.00  0.00    +0.000 NA
ATOM     15  H   UNL     1       0.992   5.328  19.366  0.00  0.00    +0.000 HD
BRANCH  14  16
ATOM     16  C   UNL     1       2.280   6.211  20.628  0.00  0.00    +0.000 C 
BRANCH  16  21
ATOM     17  C   UNL     1       0.940   9.539  19.775  0.00  0.00    +0.000 A 
ATOM     18  C   UNL     1       1.407   9.796  18.497  0.00  0.00    +0.000 A 
ATOM     19  C   UNL     1       2.162   8.815  17.866  0.00  0.00    +0.000 A 
ATOM     20  C   UNL     1       2.444   7.630  18.542  0.00  0.00    +0.000 A 
ATOM     21  C   UNL     1       1.948   7.461  19.835  0.00  0.00    +0.000 A 
ATOM     22  N   UNL     1       1.203   8.404  20.460  0.00  0.00    +0.000 NA
BRANCH  17  23
ATOM     23  O   UNL     1       0.206  10.536  20.386  0.00  0.00    +0.000 OA
BRANCH  23  25
ATOM     24  C   UNL     1      -1.373  12.290  20.002  0.00  0.00    +0.000 C 
ATOM     25  C   UNL     1      -0.955  10.880  19.628  0.00  0.00    +0.000 C 
ENDBRANCH  23  25
ENDBRANCH  17  23
ENDBRANCH  16  21
ENDBRANCH  14  16
ENDBRANCH   1  14
TORSDOF 8
ENDMDL
MODEL 2
REMARK VINA RESULT:      -6.8      3.204      5.953
REMARK  Name = 
REMARK  10 active torsions:
REMARK  status: ('A' for Active; 'I' for Inactive)
REMARK    1  A    between atoms: C_1  and  C_2
REMARK    2  A    between atoms: C_2  and  O_3
REMARK    3  A    between atoms: O_3  and  C_4
REMARK    4  A    between atoms: C_8  and  C_9
REMARK    5  A    between atoms: C_9  and  N_10
REMARK    6  A    between atoms: N_10  and  C_11
REMARK    7  A    between atoms: C_11  and  C_12
REMARK    8  A    between atoms: C_11  and  C_13
REMARK    9  A    between atoms: N_16  and  C_17
REMARK   10  A    between atoms: C_17  and  C_18
REMARK                            x       y       z     vdW  Elec       q    Type
REMARK                         _______ _______ _______ _____ _____    ______ ____
ROOT
ATOM      1  C   UNL     1       3.449   2.174  19.281  0.00  0.00    +0.000 C 
ATOM      2  C   UNL     1       3.946   2.096  20.737  0.00  0.00    +0.000 C 
ENDROOT
BRANCH   1   3
ATOM      3  C   UNL     1       1.981   2.725  19.232  0.00  0.00    +0.000 C 
ATOM      4  C   UNL     1       1.688   3.587  17.986  0.00  0.00    +0.000 C 
ATOM      5  C   UNL     1       2.389   4.947  18.044  0.00  0.00    +0.000 C 
ATOM      6  N   UNL     1       1.938   5.702  19.219  0.00  0.00    +0.000 NA
ATOM      7  C   UNL     1       2.201   4.964  20.465  0.00  0.00    +0.000 C 
ATOM      8  C   UNL     1       1.561   3.572  20.453  0.00  0.00    +0.000 C 
BRANCH   6   9
ATOM      9  C   UNL     1       2.547   7.061  19.281  0.00  0.00    +0.000 C 
BRANCH   9  10
ATOM     10  C   UNL     1       2.510   7.981  18.036  0.00  0.00    +0.000 C 
ATOM     11  F   UNL     1       2.696   9.288  18.318  0.00  0.00    +0.000 F 
ATOM     12  F   UNL     1       3.467   7.624  17.145  0.00  0.00    +0.000 F 
ATOM     13  F   UNL     1       1.316   7.870  17.402  0.00  0.00    +0.000 F 
ENDBRANCH   9  10
ENDBRANCH   6   9
ENDBRANCH   1   3
BRANCH   1  14
ATOM     14  N   UNL     1       4.344   3.050  18.501  0.00  0.00    +0.000 NA
ATOM     15  H   UNL     1       4.890   2.489  17.844  0.00  0.00    +0.000 HD
BRANCH  14  16
ATOM     16  C   UNL     1       5.328   3.790  19.310  0.00  0.00    +0.000 C 
BRANCH  16  21
ATOM     17  C   UNL     1       6.454   5.746  16.394  0.00  0.00    +0.000 A 
ATOM     18  C   UNL     1       7.326   6.688  16.911  0.00  0.00    +0.000 A 
ATOM     19  C   UNL     1       7.592   6.657  18.275  0.00  0.00    +0.000 A 
ATOM     20  C   UNL     1       6.959   5.705  19.071  0.00  0.00    +0.000 A 
ATOM     21  C   UNL     1       6.081   4.803  18.469  0.00  0.00    +0.000 A 
ATOM     22  N   UNL     1       5.819   4.816  17.141  0.00  0.00    +0.000 NA
BRANCH  17  23
ATOM     23  O   UNL     1       6.195   5.809  15.039  0.00  0.00    +0.000 OA
BRANCH  23  25
ATOM     24  C   UNL     1       5.896   3.883  13.654  0.00  0.00    +0.000 C 
ATOM     25  C   UNL     1       6.905   4.803  14.315  0.00  0.00    +0.000 C 
ENDBRANCH  23  25
ENDBRANCH  17  23
ENDBRANCH  16  21
ENDBRANCH  14  16
ENDBRANCH   1  14
TORSDOF 8
ENDMDL
MODEL 3
REMARK VINA RESULT:      -6.7      4.683      7.846
REMARK  Name = 
REMARK  10 active torsions:
REMARK  status: ('A' for Active; 'I' for Inactive)
REMARK    1  A    between atoms: C_1  and  C_2
REMARK    2  A    between atoms: C_2  and  O_3
REMARK    3  A    between atoms: O_3  and  C_4
REMARK    4  A    between atoms: C_8  and  C_9
REMARK    5  A    between atoms: C_9  and  N_10
REMARK    6  A    between atoms: N_10  and  C_11
REMARK    7  A    between atoms: C_11  and  C_12
REMARK    8  A    between atoms: C_11  and  C_13
REMARK    9  A    between atoms: N_16  and  C_17
REMARK   10  A    between atoms: C_17  and  C_18
REMARK                            x       y       z     vdW  Elec       q    Type
REMARK                         _______ _______ _______ _____ _____    ______ ____
ROOT
ATOM      1  C   UNL     1       5.005   4.334  17.926  0.00  0.00    +0.000 C 
ATOM      2  C   UNL     1       5.838   5.023  19.023  0.00  0.00    +0.000 C 
ENDROOT
BRANCH   1   3
ATOM      3  C   UNL     1       3.723   5.178  17.599  0.00  0.00    +0.000 C 
ATOM      4  C   UNL     1       3.331   6.162  18.721  0.00  0.00    +0.000 C 
ATOM      5  C   UNL     1       2.765   5.446  19.950  0.00  0.00    +0.000 C 
ATOM      6  N   UNL     1       1.562   4.687  19.587  0.00  0.00    +0.000 NA
ATOM      7  C   UNL     1       1.847   3.698  18.535  0.00  0.00    +0.000 C 
ATOM      8  C   UNL     1       2.458   4.348  17.289  0.00  0.00    +0.000 C 
BRANCH   6   9
ATOM      9  C   UNL     1       0.940   4.025  20.768  0.00  0.00    +0.000 C 
BRANCH   9  10
ATOM     10  C   UNL     1       1.562   2.728  21.344  0.00  0.00    +0.000 C 
ATOM     11  F   UNL     1       0.922   2.253  22.432  0.00  0.00    +0.000 F 
ATOM     12  F   UNL     1       1.561   1.741  20.415  0.00  0.00    +0.000 F 
ATOM     13  F   UNL     1       2.855   2.941  21.696  0.00  0.00    +0.000 F 
ENDBRANCH   9  10
ENDBRANCH   6   9
ENDBRANCH   1   3
BRANCH   1  14
ATOM     14  N   UNL     1       5.826   4.172  16.712  0.00  0.00    +0.000 NA
ATOM     15  H   UNL     1       6.813   4.312  16.940  0.00  0.00    +0.000 HD
BRANCH  14  16
ATOM     16  C   UNL     1       5.522   5.133  15.639  0.00  0.00    +0.000 C 
BRANCH  16  21
ATOM     17  C   UNL     1       5.802   3.514  12.338  0.00  0.00    +0.000 A 
ATOM     18  C   UNL     1       7.033   3.913  11.847  0.00  0.00    +0.000 A 
ATOM     19  C   UNL     1       7.831   4.717  12.652  0.00  0.00    +0.000 A 
ATOM     20  C   UNL     1       7.358   5.112  13.902  0.00  0.00    +0.000 A 
ATOM     21  C   UNL     1       6.098   4.678  14.311  0.00  0.00    +0.000 A 
ATOM     22  N   UNL     1       5.313   3.887  13.541  0.00  0.00    +0.000 NA
BRANCH  17  23
ATOM     23  O   UNL     1       5.023   2.729  11.512  0.00  0.00    +0.000 OA
BRANCH  23  25
ATOM     24  C   UNL     1       3.453   3.752  10.028  0.00  0.00    +0.000 C 
ATOM     25  C   UNL     1       3.682   3.214  11.427  0.00  0.00    +0.000 C 
ENDBRANCH  23  25
ENDBRANCH  17  23
ENDBRANCH  16  21
ENDBRANCH  14  16
ENDBRANCH   1  14
TORSDOF 8
ENDMDL
MODEL 4
REMARK VINA RESULT:      -6.6      4.912      8.135
REMARK  Name = 
REMARK  10 active torsions:
REMARK  status: ('A' for Active; 'I' for Inactive)
REMARK    1  A    between atoms: C_1  and  C_2
REMARK    2  A    between atoms: C_2  and  O_3
REMARK    3  A    between atoms: O_3  and  C_4
REMARK    4  A    between atoms: C_8  and  C_9
REMARK    5  A    between atoms: C_9  and  N_10
REMARK    6  A    between atoms: N_10  and  C_11
REMARK    7  A    between atoms: C_11  and  C_12
REMARK    8  A    between atoms: C_11  and  C_13
REMARK    9  A    between atoms: N_16  and  C_17
REMARK   10  A    between atoms: C_17  and  C_18
REMARK                            x       y       z     vdW  Elec       q    Type
REMARK                         _______ _______ _______ _____ _____    ______ ____
ROOT
ATOM      1  C   UNL     1       6.553   4.662  17.006  0.00  0.00    +0.000 C 
ATOM      2  C   UNL     1       7.368   5.788  17.670  0.00  0.00    +0.000 C 
ENDROOT
BRANCH   1   3
ATOM      3  C   UNL     1       5.073   5.124  16.767  0.00  0.00    +0.000 C 
ATOM      4  C   UNL     1       4.543   6.082  17.855  0.00  0.00    +0.000 C 
ATOM      5  C   UNL     1       4.295   5.368  19.186  0.00  0.00    +0.000 C 
ATOM      6  N   UNL     1       3.302   4.301  19.014  0.00  0.00    +0.000 NA
ATOM      7  C   UNL     1       3.736   3.319  18.007  0.00  0.00    +0.000 C 
ATOM      8  C   UNL     1       4.043   3.979  16.658  0.00  0.00    +0.000 C 
BRANCH   6   9
ATOM      9  C   UNL     1       2.981   3.620  20.300  0.00  0.00    +0.000 C 
BRANCH   9  10
ATOM     10  C   UNL     1       1.513   3.264  20.640  0.00  0.00    +0.000 C 
ATOM     11  F   UNL     1       0.690   4.332  20.691  0.00  0.00    +0.000 F 
ATOM     12  F   UNL     1       1.001   2.407  19.724  0.00  0.00    +0.000 F 
ATOM     13  F   UNL     1       1.445   2.644  21.845  0.00  0.00    +0.000 F 
ENDBRANCH   9  10
ENDBRANCH   6   9
ENDBRANCH   1   3
BRANCH   1  14
ATOM     14  N   UNL     1       7.180   4.291  15.723  0.00  0.00    +0.000 NA
ATOM     15  H   UNL     1       8.187   4.459  15.768  0.00  0.00    +0.000 HD
BRANCH  14  16
ATOM     16  C   UNL     1       6.697   5.061  14.564  0.00  0.00    +0.000 C 
BRANCH  16  21
ATOM     17  C   UNL     1       4.708   3.291  12.013  0.00  0.00    +0.000 A 
ATOM     18  C   UNL     1       5.637   2.605  11.249  0.00  0.00    +0.000 A 
ATOM     19  C   UNL     1       6.976   2.690  11.611  0.00  0.00    +0.000 A 
ATOM     20  C   UNL     1       7.338   3.476  12.702  0.00  0.00    +0.000 A 
ATOM     21  C   UNL     1       6.338   4.148  13.406  0.00  0.00    +0.000 A 
ATOM     22  N   UNL     1       5.029   4.067  13.071  0.00  0.00    +0.000 NA
BRANCH  17  23
ATOM     23  O   UNL     1       3.387   3.202  11.622  0.00  0.00    +0.000 OA
BRANCH  23  25
ATOM     24  C   UNL     1       2.846   4.336   9.588  0.00  0.00    +0.000 C 
ATOM     25  C   UNL     1       3.262   3.016  10.211  0.00  0.00    +0.000 C 
ENDBRANCH  23  25
ENDBRANCH  17  23
ENDBRANCH  16  21
ENDBRANCH  14  16
ENDBRANCH   1  14
TORSDOF 8
ENDMDL
MODEL 5
REMARK VINA RESULT:      -6.5      3.377      6.190
REMARK  Name = 
REMARK  10 active torsions:
REMARK  status: ('A' for Active; 'I' for Inactive)
REMARK    1  A    between atoms: C_1  and  C_2
REMARK    2  A    between atoms: C_2  and  O_3
REMARK    3  A    between atoms: O_3  and  C_4
REMARK    4  A    between atoms: C_8  and  C_9
REMARK    5  A    between atoms: C_9  and  N_10
REMARK    6  A    between atoms: N_10  and  C_11
REMARK    7  A    between atoms: C_11  and  C_12
REMARK    8  A    between atoms: C_11  and  C_13
REMARK    9  A    between atoms: N_16  and  C_17
REMARK   10  A    between atoms: C_17  and  C_18
REMARK                            x       y       z     vdW  Elec       q    Type
REMARK                         _______ _______ _______ _____ _____    ______ ____
ROOT
ATOM      1  C   UNL     1       3.017   2.222  19.458  0.00  0.00    +0.000 C 
ATOM      2  C   UNL     1       3.448   2.368  20.929  0.00  0.00    +0.000 C 
ENDROOT
BRANCH   1   3
ATOM      3  C   UNL     1       1.603   2.865  19.234  0.00  0.00    +0.000 C 
ATOM      4  C   UNL     1       1.509   3.714  17.949  0.00  0.00    +0.000 C 
ATOM      5  C   UNL     1       2.287   5.027  18.063  0.00  0.00    +0.000 C 
ATOM      6  N   UNL     1       1.759   5.837  19.167  0.00  0.00    +0.000 NA
ATOM      7  C   UNL     1       1.833   5.114  20.447  0.00  0.00    +0.000 C 
ATOM      8  C   UNL     1       1.108   3.766  20.386  0.00  0.00    +0.000 C 
BRANCH   6   9
ATOM      9  C   UNL     1       2.446   7.155  19.274  0.00  0.00    +0.000 C 
BRANCH   9  10
ATOM     10  C   UNL     1       2.363   8.168  18.105  0.00  0.00    +0.000 C 
ATOM     11  F   UNL     1       1.259   8.028  17.341  0.00  0.00    +0.000 F 
ATOM     12  F   UNL     1       2.371   9.441  18.569  0.00  0.00    +0.000 F 
ATOM     13  F   UNL     1       3.438   8.036  17.289  0.00  0.00    +0.000 F 
ENDBRANCH   9  10
ENDBRANCH   6   9
ENDBRANCH   1   3
BRANCH   1  14
ATOM     14  N   UNL     1       4.013   2.875  18.586  0.00  0.00    +0.000 NA
ATOM     15  H   UNL     1       4.495   2.171  18.024  0.00  0.00    +0.000 HD
BRANCH  14  16
ATOM     16  C   UNL     1       5.068   3.605  19.307  0.00  0.00    +0.000 C 
BRANCH  16  21
ATOM     17  C   UNL     1       6.768   4.792  16.258  0.00  0.00    +0.000 A 
ATOM     18  C   UNL     1       7.239   6.054  16.580  0.00  0.00    +0.000 A 
ATOM     19  C   UNL     1       7.027   6.524  17.870  0.00  0.00    +0.000 A 
ATOM     20  C   UNL     1       6.332   5.729  18.780  0.00  0.00    +0.000 A 
ATOM     21  C   UNL     1       5.878   4.476  18.366  0.00  0.00    +0.000 A 
ATOM     22  N   UNL     1       6.085   4.002  17.116  0.00  0.00    +0.000 NA
BRANCH  17  23
ATOM     23  O   UNL     1       6.978   4.356  14.966  0.00  0.00    +0.000 OA
BRANCH  23  25
ATOM     24  C   UNL     1       6.059   3.631  12.881  0.00  0.00    +0.000 C 
ATOM     25  C   UNL     1       5.751   4.214  14.247  0.00  0.00    +0.000 C 
ENDBRANCH  23  25
ENDBRANCH  17  23
ENDBRANCH  16  21
ENDBRANCH  14  16
ENDBRANCH   1  14
TORSDOF 8
ENDMDL
MODEL 6
REMARK VINA RESULT:      -6.5      1.205      1.544
REMARK  Name = 
REMARK  10 active torsions:
REMARK  status: ('A' for Active; 'I' for Inactive)
REMARK    1  A    between atoms: C_1  and  C_2
REMARK    2  A    between atoms: C_2  and  O_3
REMARK    3  A    between atoms: O_3  and  C_4
REMARK    4  A    between atoms: C_8  and  C_9
REMARK    5  A    between atoms: C_9  and  N_10
REMARK    6  A    between atoms: N_10  and  C_11
REMARK    7  A    between atoms: C_11  and  C_12
REMARK    8  A    between atoms: C_11  and  C_13
REMARK    9  A    between atoms: N_16  and  C_17
REMARK   10  A    between atoms: C_17  and  C_18
REMARK                            x       y       z     vdW  Elec       q    Type
REMARK                         _______ _______ _______ _____ _____    ______ ____
ROOT
ATOM      1  C   UNL     1       2.309   3.625  20.421  0.00  0.00    +0.000 C 
ATOM      2  C   UNL     1       0.873   3.680  19.867  0.00  0.00    +0.000 C 
ENDROOT
BRANCH   1   3
ATOM      3  C   UNL     1       3.171   2.595  19.610  0.00  0.00    +0.000 C 
ATOM      4  C   UNL     1       4.689   2.851  19.706  0.00  0.00    +0.000 C 
ATOM      5  C   UNL     1       5.118   4.096  18.926  0.00  0.00    +0.000 C 
ATOM      6  N   UNL     1       4.785   3.947  17.505  0.00  0.00    +0.000 NA
ATOM      7  C   UNL     1       3.343   3.723  17.312  0.00  0.00    +0.000 C 
ATOM      8  C   UNL     1       2.840   2.511  18.104  0.00  0.00    +0.000 C 
BRANCH   6   9
ATOM      9  C   UNL     1       5.243   5.111  16.695  0.00  0.00    +0.000 C 
BRANCH   9  10
ATOM     10  C   UNL     1       6.726   5.211  16.257  0.00  0.00    +0.000 C 
ATOM     11  F   UNL     1       7.372   6.283  16.763  0.00  0.00    +0.000 F 
ATOM     12  F   UNL     1       7.416   4.110  16.640  0.00  0.00    +0.000 F 
ATOM     13  F   UNL     1       6.814   5.286  14.906  0.00  0.00    +0.000 F 
ENDBRANCH   9  10
ENDBRANCH   6   9
ENDBRANCH   1   3
BRANCH   1  14
ATOM     14  N   UNL     1       2.919   4.967  20.342  0.00  0.00    +0.000 NA
ATOM     15  H   UNL     1       3.743   5.008  20.945  0.00  0.00    +0.000 HD
BRANCH  14  16
ATOM     16  C   UNL     1       2.041   6.061  20.788  0.00  0.00    +0.000 C 
BRANCH  16  21
ATOM     17  C   UNL     1       1.419   9.367  19.279  0.00  0.00    +0.000 A 
ATOM     18  C   UNL     1       2.021   9.311  18.033  0.00  0.00    +0.000 A 
ATOM     19  C   UNL     1       2.624   8.119  17.650  0.00  0.00    +0.000 A 
ATOM     20  C   UNL     1       2.626   7.041  18.533  0.00  0.00    +0.000 A 
ATOM     21  C   UNL     1       2.010   7.191  19.775  0.00  0.00    +0.000 A 
ATOM     22  N   UNL     1       1.411   8.342  20.159  0.00  0.00    +0.000 NA
BRANCH  17  23
ATOM     23  O   UNL     1       0.841  10.567  19.641  0.00  0.00    +0.000 OA
BRANCH  23  25
ATOM     24  C   UNL     1      -1.383  10.354  18.790  0.00  0.00    +0.000 C 
ATOM     25  C   UNL     1      -0.047  11.055  18.633  0.00  0.00    +0.000 C 
ENDBRANCH  23  25
ENDBRANCH  17  23
ENDBRANCH  16  21
ENDBRANCH  14  16
ENDBRANCH   1  14
TORSDOF 8
ENDMDL
MODEL 7
REMARK VINA RESULT:      -6.5      4.388      7.128
REMARK  Name = 
REMARK  10 active torsions:
REMARK  status: ('A' for Active; 'I' for Inactive)
REMARK    1  A    between atoms: C_1  and  C_2
REMARK    2  A    between atoms: C_2  and  O_3
REMARK    3  A    between atoms: O_3  and  C_4
REMARK    4  A    between atoms: C_8  and  C_9
REMARK    5  A    between atoms: C_9  and  N_10
REMARK    6  A    between atoms: N_10  and  C_11
REMARK    7  A    between atoms: C_11  and  C_12
REMARK    8  A    between atoms: C_11  and  C_13
REMARK    9  A    between atoms: N_16  and  C_17
REMARK   10  A    between atoms: C_17  and  C_18
REMARK                            x       y       z     vdW  Elec       q    Type
REMARK                         _______ _______ _______ _____ _____    ______ ____
ROOT
ATOM      1  C   UNL     1       1.712   4.264  18.404  0.00  0.00    +0.000 C 
ATOM      2  C   UNL     1       1.055   3.068  19.118  0.00  0.00    +0.000 C 
ENDROOT
BRANCH   1   3
ATOM      3  C   UNL     1       2.803   4.920  19.322  0.00  0.00    +0.000 C 
ATOM      4  C   UNL     1       2.309   5.207  20.756  0.00  0.00    +0.000 C 
ATOM      5  C   UNL     1       1.312   6.367  20.805  0.00  0.00    +0.000 C 
ATOM      6  N   UNL     1       1.935   7.595  20.298  0.00  0.00    +0.000 NA
ATOM      7  C   UNL     1       2.416   7.424  18.917  0.00  0.00    +0.000 C 
ATOM      8  C   UNL     1       3.389   6.247  18.792  0.00  0.00    +0.000 C 
BRANCH   6   9
ATOM      9  C   UNL     1       1.019   8.767  20.388  0.00  0.00    +0.000 C 
BRANCH   9  10
ATOM     10  C   UNL     1       0.373   9.141  21.745  0.00  0.00    +0.000 C 
ATOM     11  F   UNL     1      -0.730   8.422  22.040  0.00  0.00    +0.000 F 
ATOM     12  F   UNL     1       1.252   8.963  22.761  0.00  0.00    +0.000 F 
ATOM     13  F   UNL     1       0.016  10.450  21.753  0.00  0.00    +0.000 F 
ENDBRANCH   9  10
ENDBRANCH   6   9
ENDBRANCH   1   3
BRANCH   1  14
ATOM     14  N   UNL     1       2.323   3.809  17.141  0.00  0.00    +0.000 NA
ATOM     15  H   UNL     1       1.677   3.188  16.648  0.00  0.00    +0.000 HD
BRANCH  14  16
ATOM     16  C   UNL     1       3.568   3.041  17.309  0.00  0.00    +0.000 C 
BRANCH  16  21
ATOM     17  C   UNL     1       6.843   4.643  16.754  0.00  0.00    +0.000 A 
ATOM     18  C   UNL     1       6.916   4.841  15.386  0.00  0.00    +0.000 A 
ATOM     19  C   UNL     1       5.824   4.472  14.610  0.00  0.00    +0.000 A 
ATOM     20  C   UNL     1       4.715   3.896  15.225  0.00  0.00    +0.000 A 
ATOM     21  C   UNL     1       4.731   3.717  16.608  0.00  0.00    +0.000 A 
ATOM     22  N   UNL     1       5.784   4.080  17.378  0.00  0.00    +0.000 NA
BRANCH  17  23
ATOM     23  O   UNL     1       7.947   5.004  17.500  0.00  0.00    +0.000 OA
BRANCH  23  25
ATOM     24  C   UNL     1       7.841   5.728  19.776  0.00  0.00    +0.000 C 
ATOM     25  C   UNL     1       7.682   6.140  18.324  0.00  0.00    +0.000 C 
ENDBRANCH  23  25
ENDBRANCH  17  23
ENDBRANCH  16  21
ENDBRANCH  14  16
ENDBRANCH   1  14
TORSDOF 8
ENDMDL
MODEL 8
REMARK VINA RESULT:      -6.5      0.655      1.044
REMARK  Name = 
REMARK  10 active torsions:
REMARK  status: ('A' for Active; 'I' for Inactive)
REMARK    1  A    between atoms: C_1  and  C_2
REMARK    2  A    between atoms: C_2  and  O_3
REMARK    3  A    between atoms: O_3  and  C_4
REMARK    4  A    between atoms: C_8  and  C_9
REMARK    5  A    between atoms: C_9  and  N_10
REMARK    6  A    between atoms: N_10  and  C_11
REMARK    7  A    between atoms: C_11  and  C_12
REMARK    8  A    between atoms: C_11  and  C_13
REMARK    9  A    between atoms: N_16  and  C_17
REMARK   10  A    between atoms: C_17  and  C_18
REMARK                            x       y       z     vdW  Elec       q    Type
REMARK                         _______ _______ _______ _____ _____    ______ ____
ROOT
ATOM      1  C   UNL     1       2.265   3.688  20.498  0.00  0.00    +0.000 C 
ATOM      2  C   UNL     1       1.433   2.955  21.568  0.00  0.00    +0.000 C 
ENDROOT
BRANCH   1   3
ATOM      3  C   UNL     1       2.532   2.746  19.272  0.00  0.00    +0.000 C 
ATOM      4  C   UNL     1       3.994   2.263  19.174  0.00  0.00    +0.000 C 
ATOM      5  C   UNL     1       4.948   3.383  18.751  0.00  0.00    +0.000 C 
ATOM      6  N   UNL     1       4.567   3.907  17.435  0.00  0.00    +0.000 NA
ATOM      7  C   UNL     1       3.186   4.418  17.439  0.00  0.00    +0.000 C 
ATOM      8  C   UNL     1       2.183   3.354  17.896  0.00  0.00    +0.000 C 
BRANCH   6   9
ATOM      9  C   UNL     1       5.509   4.957  16.954  0.00  0.00    +0.000 C 
BRANCH   9  10
ATOM     10  C   UNL     1       5.642   5.240  15.437  0.00  0.00    +0.000 C 
ATOM     11  F   UNL     1       5.068   6.397  15.046  0.00  0.00    +0.000 F 
ATOM     12  F   UNL     1       6.946   5.296  15.072  0.00  0.00    +0.000 F 
ATOM     13  F   UNL     1       5.071   4.241  14.719  0.00  0.00    +0.000 F 
ENDBRANCH   9  10
ENDBRANCH   6   9
ENDBRANCH   1   3
BRANCH   1  14
ATOM     14  N   UNL     1       1.545   4.899  20.058  0.00  0.00    +0.000 NA
ATOM     15  H   UNL     1       1.675   5.032  19.053  0.00  0.00    +0.000 HD
BRANCH  14  16
ATOM     16  C   UNL     1       2.008   6.145  20.692  0.00  0.00    +0.000 C 
BRANCH  16  21
ATOM     17  C   UNL     1       1.316   9.478  19.274  0.00  0.00    +0.000 A 
ATOM     18  C   UNL     1       1.958   9.484  18.047  0.00  0.00    +0.000 A 
ATOM     19  C   UNL     1       2.615   8.328  17.644  0.00  0.00    +0.000 A 
ATOM     20  C   UNL     1       2.627   7.221  18.490  0.00  0.00    +0.000 A 
ATOM     21  C   UNL     1       1.968   7.306  19.717  0.00  0.00    +0.000 A 
ATOM     22  N   UNL     1       1.317   8.423  20.119  0.00  0.00    +0.000 NA
BRANCH  17  23
ATOM     23  O   UNL     1       0.685  10.644  19.657  0.00  0.00    +0.000 OA
BRANCH  23  25
ATOM     24  C   UNL     1      -1.491  11.630  19.750  0.00  0.00    +0.000 C 
ATOM     25  C   UNL     1      -0.658  10.406  20.082  0.00  0.00    +0.000 C 
ENDBRANCH  23  25
ENDBRANCH  17  23
ENDBRANCH  16  21
ENDBRANCH  14  16
ENDBRANCH   1  14
TORSDOF 8
ENDMDL
MODEL 9
REMARK VINA RESULT:      -6.5      1.307      1.902
REMARK  Name = 
REMARK  10 active torsions:
REMARK  status: ('A' for Active; 'I' for Inactive)
REMARK    1  A    between atoms: C_1  and  C_2
REMARK    2  A    between atoms: C_2  and  O_3
REMARK    3  A    between atoms: O_3  and  C_4
REMARK    4  A    between atoms: C_8  and  C_9
REMARK    5  A    between atoms: C_9  and  N_10
REMARK    6  A    between atoms: N_10  and  C_11
REMARK    7  A    between atoms: C_11  and  C_12
REMARK    8  A    between atoms: C_11  and  C_13
REMARK    9  A    between atoms: N_16  and  C_17
REMARK   10  A    between atoms: C_17  and  C_18
REMARK                            x       y       z     vdW  Elec       q    Type
REMARK                         _______ _______ _______ _____ _____    ______ ____
ROOT
ATOM      1  C   UNL     1       2.172   4.580  20.443  0.00  0.00    +0.000 C 
ATOM      2  C   UNL     1       1.810   3.523  21.503  0.00  0.00    +0.000 C 
ENDROOT
BRANCH   1   3
ATOM      3  C   UNL     1       1.831   4.055  19.004  0.00  0.00    +0.000 C 
ATOM      4  C   UNL     1       2.602   2.776  18.616  0.00  0.00    +0.000 C 
ATOM      5  C   UNL     1       4.086   3.049  18.360  0.00  0.00    +0.000 C 
ATOM      6  N   UNL     1       4.245   4.011  17.263  0.00  0.00    +0.000 NA
ATOM      7  C   UNL     1       3.559   5.280  17.557  0.00  0.00    +0.000 C 
ATOM      8  C   UNL     1       2.073   5.070  17.866  0.00  0.00    +0.000 C 
BRANCH   6   9
ATOM      9  C   UNL     1       5.678   4.258  16.935  0.00  0.00    +0.000 C 
BRANCH   9  10
ATOM     10  C   UNL     1       6.107   4.479  15.464  0.00  0.00    +0.000 C 
ATOM     11  F   UNL     1       6.049   3.365  14.705  0.00  0.00    +0.000 F 
ATOM     12  F   UNL     1       5.322   5.410  14.869  0.00  0.00    +0.000 F 
ATOM     13  F   UNL     1       7.381   4.941  15.409  0.00  0.00    +0.000 F 
ENDBRANCH   9  10
ENDBRANCH   6   9
ENDBRANCH   1   3
BRANCH   1  14
ATOM     14  N   UNL     1       1.430   5.826  20.715  0.00  0.00    +0.000 NA
ATOM     15  H   UNL     1       0.607   5.877  20.112  0.00  0.00    +0.000 HD
BRANCH  14  16
ATOM     16  C   UNL     1       2.194   7.058  20.458  0.00  0.00    +0.000 C 
BRANCH  16  21
ATOM     17  C   UNL     1       0.191  10.092  19.842  0.00  0.00    +0.000 A 
ATOM     18  C   UNL     1      -0.271  10.474  21.090  0.00  0.00    +0.000 A 
ATOM     19  C   UNL     1       0.125   9.728  22.193  0.00  0.00    +0.000 A 
ATOM     20  C   UNL     1       0.944   8.617  22.006  0.00  0.00    +0.000 A 
ATOM     21  C   UNL     1       1.350   8.293  20.711  0.00  0.00    +0.000 A 
ATOM     22  N   UNL     1       0.980   9.015  19.628  0.00  0.00    +0.000 NA
BRANCH  17  23
ATOM     23  O   UNL     1      -0.230  10.841  18.762  0.00  0.00    +0.000 OA
BRANCH  23  25
ATOM     24  C   UNL     1      -2.396  10.238  17.949  0.00  0.00    +0.000 C 
ATOM     25  C   UNL     1      -0.901  10.038  17.788  0.00  0.00    +0.000 C 
ENDBRANCH  23  25
ENDBRANCH  17  23
ENDBRANCH  16  21
ENDBRANCH  14  16
ENDBRANCH   1  14
TORSDOF 8
ENDMDL
