MODEL 1
REMARK VINA RESULT:      -7.8      0.000      0.000
REMARK  Name = 
REMARK  7 active torsions:
REMARK  status: ('A' for Active; 'I' for Inactive)
REMARK    1  A    between atoms: C_2  and  C_3
REMARK    2  A    between atoms: C_3  and  O_4
REMARK    3  A    between atoms: O_4  and  C_5
REMARK    4  A    between atoms: C_5  and  C_7
REMARK    5  A    between atoms: C_7  and  N_8
REMARK    6  A    between atoms: C_15  and  N_16
REMARK    7  A    between atoms: N_22  and  C_23
REMARK                            x       y       z     vdW  Elec       q    Type
REMARK                         _______ _______ _______ _____ _____    ______ ____
ROOT
ATOM      1  C   UNL     1       6.995   7.041  17.212  0.00  0.00    +0.000 C 
ATOM      2  O   UNL     1       7.867   6.213  17.462  0.00  0.00    +0.000 OA
ENDROOT
BRANCH   1   3
ATOM      3  O   UNL     1       7.136   8.382  17.378  0.00  0.00    +0.000 OA
BRANCH   3   4
ATOM      4  C   UNL     1       8.276   8.822  18.117  0.00  0.00    +0.000 C 
BRANCH   4   6
ATOM      5  O   UNL     1       7.769  11.080  17.357  0.00  0.00    +0.000 OA
ATOM      6  C   UNL     1       8.575  10.315  17.876  0.00  0.00    +0.000 C 
ATOM      7  N   UNL     1       9.830  10.721  18.294  0.00  0.00    +0.000 N 
ATOM      8  H   UNL     1      10.501   9.958  18.417  0.00  0.00    +0.000 HD
BRANCH   7   9
ATOM      9  C   UNL     1      10.372  12.062  18.079  0.00  0.00    +0.000 C 
ATOM     10  C   UNL     1      11.868  12.077  18.428  0.00  0.00    +0.000 C 
ATOM     11  C   UNL     1      11.946  12.097  19.950  0.00  0.00    +0.000 C 
ATOM     12  S   UNL     1      10.686  13.249  20.433  0.00  0.00    +0.000 S 
ATOM     13  O   UNL     1      11.291  14.565  20.535  0.00  0.00    +0.000 OA
ATOM     14  O   UNL     1       9.934  12.661  21.529  0.00  0.00    +0.000 OA
ATOM     15  C   UNL     1       9.726  13.166  18.934  0.00  0.00    +0.000 C 
ENDBRANCH   7   9
ENDBRANCH   4   6
ENDBRANCH   3   4
ENDBRANCH   1   3
BRANCH   1  16
ATOM     16  C   UNL     1       5.581   6.717  16.778  0.00  0.00    +0.000 C 
BRANCH  16  17
ATOM     17  N   UNL     1       4.802   6.101  17.827  0.00  0.00    +0.000 N 
ATOM     18  C   UNL     1       3.670   6.656  18.343  0.00  0.00    +0.000 C 
ATOM     19  O   UNL     1       3.139   7.717  18.079  0.00  0.00    +0.000 OA
ATOM     20  C   UNL     1       3.091   5.653  19.230  0.00  0.00    +0.000 A 
ATOM     21  C   UNL     1       1.966   5.750  20.032  0.00  0.00    +0.000 A 
ATOM     22  C   UNL     1       1.573   4.609  20.735  0.00  0.00    +0.000 A 
ATOM     23  C   UNL     1       2.291   3.407  20.600  0.00  0.00    +0.000 A 
ATOM     24  C   UNL     1       3.423   3.354  19.770  0.00  0.00    +0.000 A 
ATOM     25  C   UNL     1       3.829   4.488  19.103  0.00  0.00    +0.000 A 
ATOM     26  C   UNL     1       4.904   4.775  18.153  0.00  0.00    +0.000 C 
ATOM     27  O   UNL     1       5.673   3.950  17.706  0.00  0.00    +0.000 OA
BRANCH  24  28
ATOM     28  N   UNL     1       4.114   2.096  19.620  0.00  0.00    +0.000 N 
ATOM     29  O   UNL     1       3.705   1.345  18.725  0.00  0.00    +0.000 OA
ATOM     30  O   UNL     1       4.988   1.830  20.451  0.00  0.00    +0.000 OA
ENDBRANCH  24  28
ENDBRANCH  16  17
ENDBRANCH   1  16
TORSDOF 7
ENDMDL
MODEL 2
REMARK VINA RESULT:      -7.7      1.302      1.739
REMARK  Name = 
REMARK  7 active torsions:
REMARK  status: ('A' for Active; 'I' for Inactive)
REMARK    1  A    between atoms: C_2  and  C_3
REMARK    2  A    between atoms: C_3  and  O_4
REMARK    3  A    between atoms: O_4  and  C_5
REMARK    4  A    between atoms: C_5  and  C_7
REMARK    5  A    between atoms: C_7  and  N_8
REMARK    6  A    between atoms: C_15  and  N_16
REMARK    7  A    between atoms: N_22  and  C_23
REMARK                            x       y       z     vdW  Elec       q    Type
REMARK                         _______ _______ _______ _____ _____    ______ ____
ROOT
ATOM      1  C   UNL     1       6.708   6.505  16.315  0.00  0.00    +0.000 C 
ATOM      2  O   UNL     1       7.556   6.002  15.583  0.00  0.00    +0.000 OA
ENDROOT
BRANCH   1   3
ATOM      3  O   UNL     1       6.982   7.167  17.469  0.00  0.00    +0.000 OA
BRANCH   3   4
ATOM      4  C   UNL     1       7.430   8.518  17.346  0.00  0.00    +0.000 C 
BRANCH   4   6
ATOM      5  O   UNL     1       8.909   8.058  19.226  0.00  0.00    +0.000 OA
ATOM      6  C   UNL     1       8.486   8.872  18.411  0.00  0.00    +0.000 C 
ATOM      7  N   UNL     1       8.919  10.186  18.372  0.00  0.00    +0.000 N 
ATOM      8  H   UNL     1       8.290  10.822  17.876  0.00  0.00    +0.000 HD
BRANCH   7   9
ATOM      9  C   UNL     1       9.839  10.774  19.344  0.00  0.00    +0.000 C 
ATOM     10  C   UNL     1       9.130  11.905  20.106  0.00  0.00    +0.000 C 
ATOM     11  C   UNL     1       9.092  13.096  19.156  0.00  0.00    +0.000 C 
ATOM     12  S   UNL     1      10.701  13.104  18.407  0.00  0.00    +0.000 S 
ATOM     13  O   UNL     1      11.565  13.960  19.202  0.00  0.00    +0.000 OA
ATOM     14  O   UNL     1      10.532  13.298  16.976  0.00  0.00    +0.000 OA
ATOM     15  C   UNL     1      11.107  11.401  18.738  0.00  0.00    +0.000 C 
ENDBRANCH   7   9
ENDBRANCH   4   6
ENDBRANCH   3   4
ENDBRANCH   1   3
BRANCH   1  16
ATOM     16  C   UNL     1       5.210   6.392  16.124  0.00  0.00    +0.000 C 
BRANCH  16  17
ATOM     17  N   UNL     1       4.521   6.001  17.331  0.00  0.00    +0.000 N 
ATOM     18  C   UNL     1       3.594   6.785  17.951  0.00  0.00    +0.000 C 
ATOM     19  O   UNL     1       3.210   7.902  17.665  0.00  0.00    +0.000 OA
ATOM     20  C   UNL     1       3.009   5.967  19.008  0.00  0.00    +0.000 A 
ATOM     21  C   UNL     1       2.060   6.320  19.953  0.00  0.00    +0.000 A 
ATOM     22  C   UNL     1       1.604   5.320  20.814  0.00  0.00    +0.000 A 
ATOM     23  C   UNL     1       2.082   4.003  20.695  0.00  0.00    +0.000 A 
ATOM     24  C   UNL     1       3.040   3.690  19.716  0.00  0.00    +0.000 A 
ATOM     25  C   UNL     1       3.514   4.683  18.888  0.00  0.00    +0.000 A 
ATOM     26  C   UNL     1       4.454   4.705  17.767  0.00  0.00    +0.000 C 
ATOM     27  O   UNL     1       4.993   3.726  17.295  0.00  0.00    +0.000 OA
BRANCH  24  28
ATOM     28  N   UNL     1       3.481   2.321  19.590  0.00  0.00    +0.000 N 
ATOM     29  O   UNL     1       2.785   1.580  18.884  0.00  0.00    +0.000 OA
ATOM     30  O   UNL     1       4.455   1.978  20.269  0.00  0.00    +0.000 OA
ENDBRANCH  24  28
ENDBRANCH  16  17
ENDBRANCH   1  16
TORSDOF 7
ENDMDL
MODEL 3
REMARK VINA RESULT:      -7.7      4.992      7.714
REMARK  Name = 
REMARK  7 active torsions:
REMARK  status: ('A' for Active; 'I' for Inactive)
REMARK    1  A    between atoms: C_2  and  C_3
REMARK    2  A    between atoms: C_3  and  O_4
REMARK    3  A    between atoms: O_4  and  C_5
REMARK    4  A    between atoms: C_5  and  C_7
REMARK    5  A    between atoms: C_7  and  N_8
REMARK    6  A    between atoms: C_15  and  N_16
REMARK    7  A    between atoms: N_22  and  C_23
REMARK                            x       y       z     vdW  Elec       q    Type
REMARK                         _______ _______ _______ _____ _____    ______ ____
ROOT
ATOM      1  C   UNL     1       1.739   2.789  18.985  0.00  0.00    +0.000 C 
ATOM      2  O   UNL     1       0.658   2.606  18.432  0.00  0.00    +0.000 OA
ENDROOT
BRANCH   1   3
ATOM      3  O   UNL     1       1.909   3.518  20.119  0.00  0.00    +0.000 OA
BRANCH   3   4
ATOM      4  C   UNL     1       1.029   4.627  20.309  0.00  0.00    +0.000 C 
BRANCH   4   6
ATOM      5  O   UNL     1       2.883   6.098  19.731  0.00  0.00    +0.000 OA
ATOM      6  C   UNL     1       1.781   5.972  20.254  0.00  0.00    +0.000 C 
ATOM      7  N   UNL     1       1.109   7.027  20.846  0.00  0.00    +0.000 N 
ATOM      8  H   UNL     1       0.373   6.745  21.499  0.00  0.00    +0.000 HD
BRANCH   7   9
ATOM      9  C   UNL     1       1.667   8.369  21.003  0.00  0.00    +0.000 C 
ATOM     10  C   UNL     1       1.040   9.048  22.231  0.00  0.00    +0.000 C 
ATOM     11  C   UNL     1      -0.356   9.486  21.803  0.00  0.00    +0.000 C 
ATOM     12  S   UNL     1      -0.123  10.145  20.172  0.00  0.00    +0.000 S 
ATOM     13  O   UNL     1       0.123  11.572  20.292  0.00  0.00    +0.000 OA
ATOM     14  O   UNL     1      -1.173   9.614  19.317  0.00  0.00    +0.000 OA
ATOM     15  C   UNL     1       1.415   9.318  19.818  0.00  0.00    +0.000 C 
ENDBRANCH   7   9
ENDBRANCH   4   6
ENDBRANCH   3   4
ENDBRANCH   1   3
BRANCH   1  16
ATOM     16  C   UNL     1       3.081   2.331  18.455  0.00  0.00    +0.000 C 
BRANCH  16  17
ATOM     17  N   UNL     1       4.050   3.400  18.389  0.00  0.00    +0.000 N 
ATOM     18  C   UNL     1       5.008   3.602  19.337  0.00  0.00    +0.000 C 
ATOM     19  O   UNL     1       5.210   3.000  20.373  0.00  0.00    +0.000 OA
ATOM     20  C   UNL     1       5.885   4.645  18.815  0.00  0.00    +0.000 A 
ATOM     21  C   UNL     1       6.976   5.244  19.422  0.00  0.00    +0.000 A 
ATOM     22  C   UNL     1       7.703   6.171  18.673  0.00  0.00    +0.000 A 
ATOM     23  C   UNL     1       7.342   6.454  17.343  0.00  0.00    +0.000 A 
ATOM     24  C   UNL     1       6.230   5.817  16.767  0.00  0.00    +0.000 A 
ATOM     25  C   UNL     1       5.493   4.927  17.518  0.00  0.00    +0.000 A 
ATOM     26  C   UNL     1       4.336   4.079  17.234  0.00  0.00    +0.000 C 
ATOM     27  O   UNL     1       3.806   3.969  16.149  0.00  0.00    +0.000 OA
BRANCH  24  28
ATOM     28  N   UNL     1       5.908   6.097  15.388  0.00  0.00    +0.000 N 
ATOM     29  O   UNL     1       5.024   6.940  15.189  0.00  0.00    +0.000 OA
ATOM     30  O   UNL     1       6.468   5.409  14.528  0.00  0.00    +0.000 OA
ENDBRANCH  24  28
ENDBRANCH  16  17
ENDBRANCH   1  16
TORSDOF 7
ENDMDL
MODEL 4
REMARK VINA RESULT:      -7.7      4.993      7.223
REMARK  Name = 
REMARK  7 active torsions:
REMARK  status: ('A' for Active; 'I' for Inactive)
REMARK    1  A    between atoms: C_2  and  C_3
REMARK    2  A    between atoms: C_3  and  O_4
REMARK    3  A    between atoms: O_4  and  C_5
REMARK    4  A    between atoms: C_5  and  C_7
REMARK    5  A    between atoms: C_7  and  N_8
REMARK    6  A    between atoms: C_15  and  N_16
REMARK    7  A    between atoms: N_22  and  C_23
REMARK                            x       y       z     vdW  Elec       q    Type
REMARK                         _______ _______ _______ _____ _____    ______ ____
ROOT
ATOM      1  C   UNL     1       2.359   4.677  20.268  0.00  0.00    +0.000 C 
ATOM      2  O   UNL     1       2.247   4.768  21.488  0.00  0.00    +0.000 OA
ENDROOT
BRANCH   1   3
ATOM      3  O   UNL     1       2.086   5.681  19.393  0.00  0.00    +0.000 OA
BRANCH   3   4
ATOM      4  C   UNL     1       2.455   7.001  19.794  0.00  0.00    +0.000 C 
BRANCH   4   6
ATOM      5  O   UNL     1       2.566   7.998  17.574  0.00  0.00    +0.000 OA
ATOM      6  C   UNL     1       2.112   8.046  18.713  0.00  0.00    +0.000 C 
ATOM      7  N   UNL     1       1.250   9.043  19.135  0.00  0.00    +0.000 N 
ATOM      8  H   UNL     1       1.193   9.149  20.151  0.00  0.00    +0.000 HD
BRANCH   7   9
ATOM      9  C   UNL     1       0.865  10.192  18.317  0.00  0.00    +0.000 C 
ATOM     10  C   UNL     1       1.711  11.413  18.711  0.00  0.00    +0.000 C 
ATOM     11  C   UNL     1       1.128  11.925  20.022  0.00  0.00    +0.000 C 
ATOM     12  S   UNL     1      -0.627  11.827  19.784  0.00  0.00    +0.000 S 
ATOM     13  O   UNL     1      -1.085  13.101  19.259  0.00  0.00    +0.000 OA
ATOM     14  O   UNL     1      -1.211  11.231  20.976  0.00  0.00    +0.000 OA
ATOM     15  C   UNL     1      -0.603  10.628  18.466  0.00  0.00    +0.000 C 
ENDBRANCH   7   9
ENDBRANCH   4   6
ENDBRANCH   3   4
ENDBRANCH   1   3
BRANCH   1  16
ATOM     16  C   UNL     1       2.715   3.413  19.515  0.00  0.00    +0.000 C 
BRANCH  16  17
ATOM     17  N   UNL     1       3.727   3.629  18.508  0.00  0.00    +0.000 N 
ATOM     18  C   UNL     1       3.461   3.647  17.172  0.00  0.00    +0.000 C 
ATOM     19  O   UNL     1       2.411   3.463  16.589  0.00  0.00    +0.000 OA
ATOM     20  C   UNL     1       4.694   4.072  16.516  0.00  0.00    +0.000 A 
ATOM     21  C   UNL     1       4.957   4.198  15.162  0.00  0.00    +0.000 A 
ATOM     22  C   UNL     1       6.204   4.705  14.791  0.00  0.00    +0.000 A 
ATOM     23  C   UNL     1       7.136   5.093  15.771  0.00  0.00    +0.000 A 
ATOM     24  C   UNL     1       6.822   4.952  17.133  0.00  0.00    +0.000 A 
ATOM     25  C   UNL     1       5.605   4.422  17.498  0.00  0.00    +0.000 A 
ATOM     26  C   UNL     1       4.950   4.178  18.784  0.00  0.00    +0.000 C 
ATOM     27  O   UNL     1       5.407   4.489  19.864  0.00  0.00    +0.000 OA
BRANCH  24  28
ATOM     28  N   UNL     1       7.782   5.397  18.115  0.00  0.00    +0.000 N 
ATOM     29  O   UNL     1       8.420   4.514  18.702  0.00  0.00    +0.000 OA
ATOM     30  O   UNL     1       7.821   6.608  18.357  0.00  0.00    +0.000 OA
ENDBRANCH  24  28
ENDBRANCH  16  17
ENDBRANCH   1  16
TORSDOF 7
ENDMDL
MODEL 5
REMARK VINA RESULT:      -7.6      5.250      7.509
REMARK  Name = 
REMARK  7 active torsions:
REMARK  status: ('A' for Active; 'I' for Inactive)
REMARK    1  A    between atoms: C_2  and  C_3
REMARK    2  A    between atoms: C_3  and  O_4
REMARK    3  A    between atoms: O_4  and  C_5
REMARK    4  A    between atoms: C_5  and  C_7
REMARK    5  A    between atoms: C_7  and  N_8
REMARK    6  A    between atoms: C_15  and  N_16
REMARK    7  A    between atoms: N_22  and  C_23
REMARK                            x       y       z     vdW  Elec       q    Type
REMARK                         _______ _______ _______ _____ _____    ______ ____
ROOT
ATOM      1  C   UNL     1       2.441   4.004  20.512  0.00  0.00    +0.000 C 
ATOM      2  O   UNL     1       2.411   3.955  21.738  0.00  0.00    +0.000 OA
ENDROOT
BRANCH   1   3
ATOM      3  O   UNL     1       2.059   5.080  19.775  0.00  0.00    +0.000 OA
BRANCH   3   4
ATOM      4  C   UNL     1       1.669   6.248  20.498  0.00  0.00    +0.000 C 
BRANCH   4   6
ATOM      5  O   UNL     1       2.675   7.575  18.719  0.00  0.00    +0.000 OA
ATOM      6  C   UNL     1       1.924   7.536  19.688  0.00  0.00    +0.000 C 
ATOM      7  N   UNL     1       1.236   8.645  20.147  0.00  0.00    +0.000 N 
ATOM      8  H   UNL     1       0.901   8.565  21.111  0.00  0.00    +0.000 HD
BRANCH   7   9
ATOM      9  C   UNL     1       1.396   9.992  19.602  0.00  0.00    +0.000 C 
ATOM     10  C   UNL     1       0.778  11.016  20.567  0.00  0.00    +0.000 C 
ATOM     11  C   UNL     1      -0.731  10.924  20.370  0.00  0.00    +0.000 C 
ATOM     12  S   UNL     1      -0.931  10.800  18.611  0.00  0.00    +0.000 S 
ATOM     13  O   UNL     1      -1.095  12.141  18.078  0.00  0.00    +0.000 OA
ATOM     14  O   UNL     1      -1.890   9.741  18.340  0.00  0.00    +0.000 OA
ATOM     15  C   UNL     1       0.715  10.226  18.242  0.00  0.00    +0.000 C 
ENDBRANCH   7   9
ENDBRANCH   4   6
ENDBRANCH   3   4
ENDBRANCH   1   3
BRANCH   1  16
ATOM     16  C   UNL     1       2.803   2.851  19.600  0.00  0.00    +0.000 C 
BRANCH  16  17
ATOM     17  N   UNL     1       3.699   3.240  18.536  0.00  0.00    +0.000 N 
ATOM     18  C   UNL     1       3.279   3.536  17.274  0.00  0.00    +0.000 C 
ATOM     19  O   UNL     1       2.159   3.503  16.804  0.00  0.00    +0.000 OA
ATOM     20  C   UNL     1       4.446   4.053  16.566  0.00  0.00    +0.000 A 
ATOM     21  C   UNL     1       4.554   4.445  15.242  0.00  0.00    +0.000 A 
ATOM     22  C   UNL     1       5.772   4.983  14.825  0.00  0.00    +0.000 A 
ATOM     23  C   UNL     1       6.832   5.138  15.737  0.00  0.00    +0.000 A 
ATOM     24  C   UNL     1       6.675   4.732  17.073  0.00  0.00    +0.000 A 
ATOM     25  C   UNL     1       5.483   4.172  17.476  0.00  0.00    +0.000 A 
ATOM     26  C   UNL     1       4.973   3.689  18.759  0.00  0.00    +0.000 C 
ATOM     27  O   UNL     1       5.569   3.761  19.814  0.00  0.00    +0.000 OA
BRANCH  24  28
ATOM     28  N   UNL     1       7.765   4.942  17.995  0.00  0.00    +0.000 N 
ATOM     29  O   UNL     1       8.626   4.055  18.042  0.00  0.00    +0.000 OA
ATOM     30  O   UNL     1       7.702   5.936  18.726  0.00  0.00    +0.000 OA
ENDBRANCH  24  28
ENDBRANCH  16  17
ENDBRANCH   1  16
TORSDOF 7
ENDMDL
MODEL 6
REMARK VINA RESULT:      -7.5      4.956      7.271
REMARK  Name = 
REMARK  7 active torsions:
REMARK  status: ('A' for Active; 'I' for Inactive)
REMARK    1  A    between atoms: C_2  and  C_3
REMARK    2  A    between atoms: C_3  and  O_4
REMARK    3  A    between atoms: O_4  and  C_5
REMARK    4  A    between atoms: C_5  and  C_7
REMARK    5  A    between atoms: C_7  and  N_8
REMARK    6  A    between atoms: C_15  and  N_16
REMARK    7  A    between atoms: N_22  and  C_23
REMARK                            x       y       z     vdW  Elec       q    Type
REMARK                         _______ _______ _______ _____ _____    ______ ____
ROOT
ATOM      1  C   UNL     1       2.319   4.490  20.390  0.00  0.00    +0.000 C 
ATOM      2  O   UNL     1       2.391   4.567  21.613  0.00  0.00    +0.000 OA
ENDROOT
BRANCH   1   3
ATOM      3  O   UNL     1       1.818   5.465  19.586  0.00  0.00    +0.000 OA
BRANCH   3   4
ATOM      4  C   UNL     1       2.442   6.747  19.664  0.00  0.00    +0.000 C 
BRANCH   4   6
ATOM      5  O   UNL     1       1.317   7.571  21.662  0.00  0.00    +0.000 OA
ATOM      6  C   UNL     1       1.599   7.747  20.481  0.00  0.00    +0.000 C 
ATOM      7  N   UNL     1       1.187   8.861  19.771  0.00  0.00    +0.000 N 
ATOM      8  H   UNL     1       1.216   8.747  18.754  0.00  0.00    +0.000 HD
BRANCH   7   9
ATOM      9  C   UNL     1       0.298   9.891  20.305  0.00  0.00    +0.000 C 
ATOM     10  C   UNL     1      -0.808  10.199  19.284  0.00  0.00    +0.000 C 
ATOM     11  C   UNL     1      -0.161  11.065  18.210  0.00  0.00    +0.000 C 
ATOM     12  S   UNL     1       0.852  12.202  19.121  0.00  0.00    +0.000 S 
ATOM     13  O   UNL     1       0.065  13.392  19.391  0.00  0.00    +0.000 OA
ATOM     14  O   UNL     1       2.151  12.270  18.471  0.00  0.00    +0.000 OA
ATOM     15  C   UNL     1       0.978  11.236  20.613  0.00  0.00    +0.000 C 
ENDBRANCH   7   9
ENDBRANCH   4   6
ENDBRANCH   3   4
ENDBRANCH   1   3
BRANCH   1  16
ATOM     16  C   UNL     1       2.672   3.269  19.568  0.00  0.00    +0.000 C 
BRANCH  16  17
ATOM     17  N   UNL     1       3.664   3.545  18.555  0.00  0.00    +0.000 N 
ATOM     18  C   UNL     1       3.374   3.625  17.226  0.00  0.00    +0.000 C 
ATOM     19  O   UNL     1       2.315   3.459  16.653  0.00  0.00    +0.000 OA
ATOM     20  C   UNL     1       4.590   4.096  16.571  0.00  0.00    +0.000 A 
ATOM     21  C   UNL     1       4.828   4.291  15.220  0.00  0.00    +0.000 A 
ATOM     22  C   UNL     1       6.062   4.829  14.853  0.00  0.00    +0.000 A 
ATOM     23  C   UNL     1       7.008   5.179  15.834  0.00  0.00    +0.000 A 
ATOM     24  C   UNL     1       6.720   4.969  17.193  0.00  0.00    +0.000 A 
ATOM     25  C   UNL     1       5.515   4.408  17.553  0.00  0.00    +0.000 A 
ATOM     26  C   UNL     1       4.886   4.094  18.836  0.00  0.00    +0.000 C 
ATOM     27  O   UNL     1       5.359   4.357  19.922  0.00  0.00    +0.000 OA
BRANCH  24  28
ATOM     28  N   UNL     1       7.693   5.376  18.178  0.00  0.00    +0.000 N 
ATOM     29  O   UNL     1       7.785   6.591  18.392  0.00  0.00    +0.000 OA
ATOM     30  O   UNL     1       8.416   4.495  18.654  0.00  0.00    +0.000 OA
ENDBRANCH  24  28
ENDBRANCH  16  17
ENDBRANCH   1  16
TORSDOF 7
ENDMDL
MODEL 7
REMARK VINA RESULT:      -7.5      4.708      7.441
REMARK  Name = 
REMARK  7 active torsions:
REMARK  status: ('A' for Active; 'I' for Inactive)
REMARK    1  A    between atoms: C_2  and  C_3
REMARK    2  A    between atoms: C_3  and  O_4
REMARK    3  A    between atoms: O_4  and  C_5
REMARK    4  A    between atoms: C_5  and  C_7
REMARK    5  A    between atoms: C_7  and  N_8
REMARK    6  A    between atoms: C_15  and  N_16
REMARK    7  A    between atoms: N_22  and  C_23
REMARK                            x       y       z     vdW  Elec       q    Type
REMARK                         _______ _______ _______ _____ _____    ______ ____
ROOT
ATOM      1  C   UNL     1       2.055   4.561  19.866  0.00  0.00    +0.000 C 
ATOM      2  O   UNL     1       1.096   4.302  19.145  0.00  0.00    +0.000 OA
ENDROOT
BRANCH   1   3
ATOM      3  O   UNL     1       2.196   5.712  20.574  0.00  0.00    +0.000 OA
BRANCH   3   4
ATOM      4  C   UNL     1       2.161   6.932  19.831  0.00  0.00    +0.000 C 
BRANCH   4   6
ATOM      5  O   UNL     1       1.573   8.130  21.869  0.00  0.00    +0.000 OA
ATOM      6  C   UNL     1       1.531   8.081  20.644  0.00  0.00    +0.000 C 
ATOM      7  N   UNL     1       0.913   9.052  19.877  0.00  0.00    +0.000 N 
ATOM      8  H   UNL     1       0.679   8.753  18.927  0.00  0.00    +0.000 HD
BRANCH   7   9
ATOM      9  C   UNL     1       0.164  10.179  20.429  0.00  0.00    +0.000 C 
ATOM     10  C   UNL     1      -0.990  10.545  19.482  0.00  0.00    +0.000 C 
ATOM     11  C   UNL     1      -0.359  11.305  18.322  0.00  0.00    +0.000 C 
ATOM     12  S   UNL     1       0.819  12.381  19.098  0.00  0.00    +0.000 S 
ATOM     13  O   UNL     1       0.163  13.647  19.371  0.00  0.00    +0.000 OA
ATOM     14  O   UNL     1       2.062  12.304  18.347  0.00  0.00    +0.000 OA
ATOM     15  C   UNL     1       0.981  11.469  20.620  0.00  0.00    +0.000 C 
ENDBRANCH   7   9
ENDBRANCH   4   6
ENDBRANCH   3   4
ENDBRANCH   1   3
BRANCH   1  16
ATOM     16  C   UNL     1       3.293   3.703  20.016  0.00  0.00    +0.000 C 
BRANCH  16  17
ATOM     17  N   UNL     1       4.222   3.867  18.922  0.00  0.00    +0.000 N 
ATOM     18  C   UNL     1       4.047   3.294  17.699  0.00  0.00    +0.000 C 
ATOM     19  O   UNL     1       3.166   2.553  17.310  0.00  0.00    +0.000 OA
ATOM     20  C   UNL     1       5.087   3.846  16.836  0.00  0.00    +0.000 A 
ATOM     21  C   UNL     1       5.369   3.544  15.515  0.00  0.00    +0.000 A 
ATOM     22  C   UNL     1       6.376   4.277  14.885  0.00  0.00    +0.000 A 
ATOM     23  C   UNL     1       7.052   5.300  15.576  0.00  0.00    +0.000 A 
ATOM     24  C   UNL     1       6.727   5.575  16.915  0.00  0.00    +0.000 A 
ATOM     25  C   UNL     1       5.756   4.830  17.545  0.00  0.00    +0.000 A 
ATOM     26  C   UNL     1       5.154   4.870  18.878  0.00  0.00    +0.000 C 
ATOM     27  O   UNL     1       5.406   5.698  19.728  0.00  0.00    +0.000 OA
BRANCH  24  28
ATOM     28  N   UNL     1       7.408   6.658  17.584  0.00  0.00    +0.000 N 
ATOM     29  O   UNL     1       8.084   6.354  18.575  0.00  0.00    +0.000 OA
ATOM     30  O   UNL     1       7.186   7.802  17.176  0.00  0.00    +0.000 OA
ENDBRANCH  24  28
ENDBRANCH  16  17
ENDBRANCH   1  16
TORSDOF 7
ENDMDL
MODEL 8
REMARK VINA RESULT:      -7.5      1.547      1.991
REMARK  Name = 
REMARK  7 active torsions:
REMARK  status: ('A' for Active; 'I' for Inactive)
REMARK    1  A    between atoms: C_2  and  C_3
REMARK    2  A    between atoms: C_3  and  O_4
REMARK    3  A    between atoms: O_4  and  C_5
REMARK    4  A    between atoms: C_5  and  C_7
REMARK    5  A    between atoms: C_7  and  N_8
REMARK    6  A    between atoms: C_15  and  N_16
REMARK    7  A    between atoms: N_22  and  C_23
REMARK                            x       y       z     vdW  Elec       q    Type
REMARK                         _______ _______ _______ _____ _____    ______ ____
ROOT
ATOM      1  C   UNL     1       7.581   7.262  18.019  0.00  0.00    +0.000 C 
ATOM      2  O   UNL     1       8.340   6.756  18.842  0.00  0.00    +0.000 OA
ENDROOT
BRANCH   1   3
ATOM      3  O   UNL     1       7.300   8.589  17.947  0.00  0.00    +0.000 OA
BRANCH   3   4
ATOM      4  C   UNL     1       8.345   9.444  17.478  0.00  0.00    +0.000 C 
BRANCH   4   6
ATOM      5  O   UNL     1       9.326   9.813  19.676  0.00  0.00    +0.000 OA
ATOM      6  C   UNL     1       8.944  10.295  18.615  0.00  0.00    +0.000 C 
ATOM      7  N   UNL     1       9.015  11.649  18.338  0.00  0.00    +0.000 N 
ATOM      8  H   UNL     1       8.402  11.957  17.580  0.00  0.00    +0.000 HD
BRANCH   7   9
ATOM      9  C   UNL     1       9.452  12.659  19.300  0.00  0.00    +0.000 C 
ATOM     10  C   UNL     1       8.586  13.920  19.154  0.00  0.00    +0.000 C 
ATOM     11  C   UNL     1       9.088  14.635  17.905  0.00  0.00    +0.000 C 
ATOM     12  S   UNL     1      10.855  14.514  18.018  0.00  0.00    +0.000 S 
ATOM     13  O   UNL     1      11.346  15.694  18.707  0.00  0.00    +0.000 OA
ATOM     14  O   UNL     1      11.363  14.116  16.715  0.00  0.00    +0.000 OA
ATOM     15  C   UNL     1      10.909  13.125  19.132  0.00  0.00    +0.000 C 
ENDBRANCH   7   9
ENDBRANCH   4   6
ENDBRANCH   3   4
ENDBRANCH   1   3
BRANCH   1  16
ATOM     16  C   UNL     1       6.746   6.498  17.014  0.00  0.00    +0.000 C 
BRANCH  16  17
ATOM     17  N   UNL     1       5.574   5.895  17.605  0.00  0.00    +0.000 N 
ATOM     18  C   UNL     1       4.309   6.355  17.393  0.00  0.00    +0.000 C 
ATOM     19  O   UNL     1       3.932   7.313  16.748  0.00  0.00    +0.000 OA
ATOM     20  C   UNL     1       3.413   5.378  18.003  0.00  0.00    +0.000 A 
ATOM     21  C   UNL     1       2.032   5.414  18.105  0.00  0.00    +0.000 A 
ATOM     22  C   UNL     1       1.398   4.306  18.671  0.00  0.00    +0.000 A 
ATOM     23  C   UNL     1       2.147   3.193  19.092  0.00  0.00    +0.000 A 
ATOM     24  C   UNL     1       3.547   3.199  18.963  0.00  0.00    +0.000 A 
ATOM     25  C   UNL     1       4.174   4.306  18.434  0.00  0.00    +0.000 A 
ATOM     26  C   UNL     1       5.568   4.629  18.126  0.00  0.00    +0.000 C 
ATOM     27  O   UNL     1       6.501   3.864  18.252  0.00  0.00    +0.000 OA
BRANCH  24  28
ATOM     28  N   UNL     1       4.285   2.027  19.365  0.00  0.00    +0.000 N 
ATOM     29  O   UNL     1       4.155   1.022  18.655  0.00  0.00    +0.000 OA
ATOM     30  O   UNL     1       4.906   2.090  20.431  0.00  0.00    +0.000 OA
ENDBRANCH  24  28
ENDBRANCH  16  17
ENDBRANCH   1  16
TORSDOF 7
ENDMDL
MODEL 9
REMARK VINA RESULT:      -7.5      1.230      1.573
REMARK  Name = 
REMARK  7 active torsions:
REMARK  status: ('A' for Active; 'I' for Inactive)
REMARK    1  A    between atoms: C_2  and  C_3
REMARK    2  A    between atoms: C_3  and  O_4
REMARK    3  A    between atoms: O_4  and  C_5
REMARK    4  A    between atoms: C_5  and  C_7
REMARK    5  A    between atoms: C_7  and  N_8
REMARK    6  A    between atoms: C_15  and  N_16
REMARK    7  A    between atoms: N_22  and  C_23
REMARK                            x       y       z     vdW  Elec       q    Type
REMARK                         _______ _______ _______ _____ _____    ______ ____
ROOT
ATOM      1  C   UNL     1       7.281   6.810  17.201  0.00  0.00    +0.000 C 
ATOM      2  O   UNL     1       7.934   6.044  17.906  0.00  0.00    +0.000 OA
ENDROOT
BRANCH   1   3
ATOM      3  O   UNL     1       7.695   8.048  16.822  0.00  0.00    +0.000 OA
BRANCH   3   4
ATOM      4  C   UNL     1       7.394   9.126  17.710  0.00  0.00    +0.000 C 
BRANCH   4   6
ATOM      5  O   UNL     1       9.262   9.109  19.273  0.00  0.00    +0.000 OA
ATOM      6  C   UNL     1       8.664   9.693  18.375  0.00  0.00    +0.000 C 
ATOM      7  N   UNL     1       9.074  10.916  17.876  0.00  0.00    +0.000 N 
ATOM      8  H   UNL     1       8.348  11.429  17.370  0.00  0.00    +0.000 HD
BRANCH   7   9
ATOM      9  C   UNL     1      10.189  11.691  18.418  0.00  0.00    +0.000 C 
ATOM     10  C   UNL     1       9.919  12.019  19.895  0.00  0.00    +0.000 C 
ATOM     11  C   UNL     1       8.900  13.152  19.896  0.00  0.00    +0.000 C 
ATOM     12  S   UNL     1       9.456  14.236  18.605  0.00  0.00    +0.000 S 
ATOM     13  O   UNL     1      10.335  15.229  19.195  0.00  0.00    +0.000 OA
ATOM     14  O   UNL     1       8.302  14.609  17.802  0.00  0.00    +0.000 OA
ATOM     15  C   UNL     1      10.438  13.040  17.722  0.00  0.00    +0.000 C 
ENDBRANCH   7   9
ENDBRANCH   4   6
ENDBRANCH   3   4
ENDBRANCH   1   3
BRANCH   1  16
ATOM     16  C   UNL     1       5.868   6.563  16.718  0.00  0.00    +0.000 C 
BRANCH  16  17
ATOM     17  N   UNL     1       5.010   6.028  17.749  0.00  0.00    +0.000 N 
ATOM     18  C   UNL     1       3.902   6.673  18.209  0.00  0.00    +0.000 C 
ATOM     19  O   UNL     1       3.457   7.762  17.903  0.00  0.00    +0.000 OA
ATOM     20  C   UNL     1       3.221   5.734  19.095  0.00  0.00    +0.000 A 
ATOM     21  C   UNL     1       2.078   5.929  19.851  0.00  0.00    +0.000 A 
ATOM     22  C   UNL     1       1.580   4.835  20.562  0.00  0.00    +0.000 A 
ATOM     23  C   UNL     1       2.215   3.582  20.481  0.00  0.00    +0.000 A 
ATOM     24  C   UNL     1       3.371   3.431  19.695  0.00  0.00    +0.000 A 
ATOM     25  C   UNL     1       3.879   4.518  19.020  0.00  0.00    +0.000 A 
ATOM     26  C   UNL     1       5.007   4.707  18.107  0.00  0.00    +0.000 C 
ATOM     27  O   UNL     1       5.731   3.819  17.706  0.00  0.00    +0.000 OA
BRANCH  24  28
ATOM     28  N   UNL     1       3.976   2.125  19.598  0.00  0.00    +0.000 N 
ATOM     29  O   UNL     1       4.914   1.893  20.371  0.00  0.00    +0.000 OA
ATOM     30  O   UNL     1       3.577   1.384  18.693  0.00  0.00    +0.000 OA
ENDBRANCH  24  28
ENDBRANCH  16  17
ENDBRANCH   1  16
TORSDOF 7
ENDMDL
