MODEL 1
REMARK VINA RESULT:      -8.1      0.000      0.000
REMARK  Name = 
REMARK  8 active torsions:
REMARK  status: ('A' for Active; 'I' for Inactive)
REMARK    1  A    between atoms: C_1  and  O_2
REMARK    2  A    between atoms: O_2  and  C_3
REMARK    3  A    between atoms: C_3  and  C_5
REMARK    4  A    between atoms: C_11  and  C_12
REMARK    5  A    between atoms: C_17  and  C_18
REMARK    6  A    between atoms: C_21  and  O_22
REMARK    7  A    between atoms: C_23  and  O_24
REMARK    8  A    between atoms: O_24  and  C_25
REMARK                            x       y       z     vdW  Elec       q    Type
REMARK                         _______ _______ _______ _____ _____    ______ ____
ROOT
ATOM      1  C   UNL     1       5.924   4.510  17.748  0.00  0.00    +0.000 C 
ATOM      2  C   UNL     1       4.908   5.036  18.737  0.00  0.00    +0.000 C 
ATOM      3  O   UNL     1       5.208   5.877  19.587  0.00  0.00    +0.000 OA
ATOM      4  C   UNL     1       3.548   4.400  18.753  0.00  0.00    +0.000 C 
ATOM      5  C   UNL     1       3.245   3.483  17.818  0.00  0.00    +0.000 C 
ATOM      6  C   UNL     1       4.145   3.128  16.662  0.00  0.00    +0.000 C 
ATOM      7  C   UNL     1       5.242   4.177  16.414  0.00  0.00    +0.000 C 
ATOM      8  C   UNL     1       6.227   3.659  15.365  0.00  0.00    +0.000 C 
ATOM      9  N   UNL     1       2.045   2.821  17.872  0.00  0.00    +0.000 N 
ATOM     10  C   UNL     1       1.073   2.963  18.819  0.00  0.00    +0.000 C 
ATOM     11  O   UNL     1       0.052   2.285  18.757  0.00  0.00    +0.000 OA
ATOM     12  C   UNL     1       1.309   3.943  19.942  0.00  0.00    +0.000 C 
ATOM     13  C   UNL     1       2.589   4.798  19.846  0.00  0.00    +0.000 C 
ATOM     14  H   UNL     1       1.821   2.128  17.161  0.00  0.00    +0.000 HD
ENDROOT
BRANCH  13  15
ATOM     15  C   UNL     1       2.198   6.266  19.730  0.00  0.00    +0.000 A 
ATOM     16  C   UNL     1       2.278   6.929  18.500  0.00  0.00    +0.000 A 
ATOM     17  C   UNL     1       1.938   8.275  18.407  0.00  0.00    +0.000 A 
ATOM     18  C   UNL     1       1.513   8.977  19.542  0.00  0.00    +0.000 A 
ATOM     19  C   UNL     1       1.409   8.330  20.776  0.00  0.00    +0.000 A 
ATOM     20  C   UNL     1       1.752   6.975  20.856  0.00  0.00    +0.000 A 
BRANCH  18  21
ATOM     21  O   UNL     1       1.210  10.302  19.397  0.00  0.00    +0.000 OA
ATOM     22  H   UNL     1       0.600  10.564  20.105  0.00  0.00    +0.000 HD
ENDBRANCH  18  21
BRANCH  19  23
ATOM     23  O   UNL     1       1.020   8.844  21.982  0.00  0.00    +0.000 OA
ATOM     24  C   UNL     1      -0.371   8.983  22.222  0.00  0.00    +0.000 C 
ENDBRANCH  19  23
ENDBRANCH  13  15
BRANCH   1  25
ATOM     25  C   UNL     1       7.110   5.431  17.581  0.00  0.00    +0.000 C 
ATOM     26  O   UNL     1       8.237   5.127  17.951  0.00  0.00    +0.000 OA
BRANCH  25  28
ATOM     27  C   UNL     1       7.457   7.732  17.419  0.00  0.00    +0.000 C 
ATOM     28  O   UNL     1       6.795   6.571  16.910  0.00  0.00    +0.000 OA
ENDBRANCH  25  28
ENDBRANCH   1  25
TORSDOF 5
ENDMDL
MODEL 2
REMARK VINA RESULT:      -7.3      0.726      1.710
REMARK  Name = 
REMARK  8 active torsions:
REMARK  status: ('A' for Active; 'I' for Inactive)
REMARK    1  A    between atoms: C_1  and  O_2
REMARK    2  A    between atoms: O_2  and  C_3
REMARK    3  A    between atoms: C_3  and  C_5
REMARK    4  A    between atoms: C_11  and  C_12
REMARK    5  A    between atoms: C_17  and  C_18
REMARK    6  A    between atoms: C_21  and  O_22
REMARK    7  A    between atoms: C_23  and  O_24
REMARK    8  A    between atoms: O_24  and  C_25
REMARK                            x       y       z     vdW  Elec       q    Type
REMARK                         _______ _______ _______ _____ _____    ______ ____
ROOT
ATOM      1  C   UNL     1       5.955   4.650  17.691  0.00  0.00    +0.000 C 
ATOM      2  C   UNL     1       4.933   5.023  18.741  0.00  0.00    +0.000 C 
ATOM      3  O   UNL     1       5.216   5.763  19.686  0.00  0.00    +0.000 OA
ATOM      4  C   UNL     1       3.590   4.353  18.685  0.00  0.00    +0.000 C 
ATOM      5  C   UNL     1       3.305   3.548  17.647  0.00  0.00    +0.000 C 
ATOM      6  C   UNL     1       4.207   3.361  16.452  0.00  0.00    +0.000 C 
ATOM      7  C   UNL     1       5.273   4.463  16.329  0.00  0.00    +0.000 C 
ATOM      8  C   UNL     1       6.264   4.103  15.221  0.00  0.00    +0.000 C 
ATOM      9  N   UNL     1       2.125   2.852  17.624  0.00  0.00    +0.000 N 
ATOM     10  C   UNL     1       1.156   2.850  18.585  0.00  0.00    +0.000 C 
ATOM     11  O   UNL     1       0.153   2.156  18.445  0.00  0.00    +0.000 OA
ATOM     12  C   UNL     1       1.373   3.693  19.818  0.00  0.00    +0.000 C 
ATOM     13  C   UNL     1       2.629   4.587  19.822  0.00  0.00    +0.000 C 
ATOM     14  H   UNL     1       1.914   2.244  16.835  0.00  0.00    +0.000 HD
ENDROOT
BRANCH  13  15
ATOM     15  C   UNL     1       2.198   6.048  19.887  0.00  0.00    +0.000 A 
ATOM     16  C   UNL     1       1.637   6.572  21.057  0.00  0.00    +0.000 A 
ATOM     17  C   UNL     1       1.227   7.902  21.102  0.00  0.00    +0.000 A 
ATOM     18  C   UNL     1       1.374   8.725  19.977  0.00  0.00    +0.000 A 
ATOM     19  C   UNL     1       1.948   8.226  18.806  0.00  0.00    +0.000 A 
ATOM     20  C   UNL     1       2.358   6.888  18.775  0.00  0.00    +0.000 A 
BRANCH  18  21
ATOM     21  O   UNL     1       0.937  10.017  20.071  0.00  0.00    +0.000 OA
ATOM     22  H   UNL     1       0.855  10.386  19.177  0.00  0.00    +0.000 HD
ENDBRANCH  18  21
BRANCH  19  23
ATOM     23  O   UNL     1       2.170   8.869  17.619  0.00  0.00    +0.000 OA
ATOM     24  C   UNL     1       2.300  10.281  17.648  0.00  0.00    +0.000 C 
ENDBRANCH  19  23
ENDBRANCH  13  15
BRANCH   1  25
ATOM     25  C   UNL     1       7.115   5.617  17.634  0.00  0.00    +0.000 C 
ATOM     26  O   UNL     1       8.214   5.356  18.107  0.00  0.00    +0.000 OA
BRANCH  25  28
ATOM     27  C   UNL     1       7.427   7.922  17.470  0.00  0.00    +0.000 C 
ATOM     28  O   UNL     1       6.819   6.744  16.933  0.00  0.00    +0.000 OA
ENDBRANCH  25  28
ENDBRANCH   1  25
TORSDOF 5
ENDMDL
MODEL 3
REMARK VINA RESULT:      -7.3      2.799      6.641
REMARK  Name = 
REMARK  8 active torsions:
REMARK  status: ('A' for Active; 'I' for Inactive)
REMARK    1  A    between atoms: C_1  and  O_2
REMARK    2  A    between atoms: O_2  and  C_3
REMARK    3  A    between atoms: C_3  and  C_5
REMARK    4  A    between atoms: C_11  and  C_12
REMARK    5  A    between atoms: C_17  and  C_18
REMARK    6  A    between atoms: C_21  and  O_22
REMARK    7  A    between atoms: C_23  and  O_24
REMARK    8  A    between atoms: O_24  and  C_25
REMARK                            x       y       z     vdW  Elec       q    Type
REMARK                         _______ _______ _______ _____ _____    ______ ____
ROOT
ATOM      1  C   UNL     1       4.017   3.222  20.103  0.00  0.00    +0.000 C 
ATOM      2  C   UNL     1       4.819   4.001  19.085  0.00  0.00    +0.000 C 
ATOM      3  O   UNL     1       5.982   3.700  18.810  0.00  0.00    +0.000 OA
ATOM      4  C   UNL     1       4.207   5.248  18.514  0.00  0.00    +0.000 C 
ATOM      5  C   UNL     1       2.939   5.557  18.831  0.00  0.00    +0.000 C 
ATOM      6  C   UNL     1       2.029   4.664  19.636  0.00  0.00    +0.000 C 
ATOM      7  C   UNL     1       2.532   3.213  19.715  0.00  0.00    +0.000 C 
ATOM      8  C   UNL     1       1.673   2.420  20.701  0.00  0.00    +0.000 C 
ATOM      9  N   UNL     1       2.393   6.739  18.399  0.00  0.00    +0.000 N 
ATOM     10  C   UNL     1       3.015   7.709  17.668  0.00  0.00    +0.000 C 
ATOM     11  O   UNL     1       2.410   8.735  17.369  0.00  0.00    +0.000 OA
ATOM     12  C   UNL     1       4.456   7.493  17.275  0.00  0.00    +0.000 C 
ATOM     13  C   UNL     1       5.064   6.122  17.633  0.00  0.00    +0.000 C 
ATOM     14  H   UNL     1       1.431   6.968  18.642  0.00  0.00    +0.000 HD
ENDROOT
BRANCH  13  15
ATOM     15  C   UNL     1       5.449   5.399  16.348  0.00  0.00    +0.000 A 
ATOM     16  C   UNL     1       4.607   4.425  15.799  0.00  0.00    +0.000 A 
ATOM     17  C   UNL     1       4.976   3.755  14.636  0.00  0.00    +0.000 A 
ATOM     18  C   UNL     1       6.191   4.051  14.005  0.00  0.00    +0.000 A 
ATOM     19  C   UNL     1       7.038   5.032  14.527  0.00  0.00    +0.000 A 
ATOM     20  C   UNL     1       6.654   5.700  15.695  0.00  0.00    +0.000 A 
BRANCH  18  21
ATOM     21  O   UNL     1       6.512   3.350  12.877  0.00  0.00    +0.000 OA
ATOM     22  H   UNL     1       6.681   2.425  13.119  0.00  0.00    +0.000 HD
ENDBRANCH  18  21
BRANCH  19  23
ATOM     23  O   UNL     1       8.252   5.453  14.057  0.00  0.00    +0.000 OA
ATOM     24  C   UNL     1       8.334   5.843  12.696  0.00  0.00    +0.000 C 
ENDBRANCH  19  23
ENDBRANCH  13  15
BRANCH   1  25
ATOM     25  C   UNL     1       4.565   1.833  20.341  0.00  0.00    +0.000 C 
ATOM     26  O   UNL     1       4.454   0.932  19.520  0.00  0.00    +0.000 OA
BRANCH  25  28
ATOM     27  C   UNL     1       5.760   0.426  21.765  0.00  0.00    +0.000 C 
ATOM     28  O   UNL     1       5.252   1.738  21.511  0.00  0.00    +0.000 OA
ENDBRANCH  25  28
ENDBRANCH   1  25
TORSDOF 5
ENDMDL
MODEL 4
REMARK VINA RESULT:      -6.8      1.983      4.772
REMARK  Name = 
REMARK  8 active torsions:
REMARK  status: ('A' for Active; 'I' for Inactive)
REMARK    1  A    between atoms: C_1  and  O_2
REMARK    2  A    between atoms: O_2  and  C_3
REMARK    3  A    between atoms: C_3  and  C_5
REMARK    4  A    between atoms: C_11  and  C_12
REMARK    5  A    between atoms: C_17  and  C_18
REMARK    6  A    between atoms: C_21  and  O_22
REMARK    7  A    between atoms: C_23  and  O_24
REMARK    8  A    between atoms: O_24  and  C_25
REMARK                            x       y       z     vdW  Elec       q    Type
REMARK                         _______ _______ _______ _____ _____    ______ ____
ROOT
ATOM      1  C   UNL     1       2.950   3.033  18.660  0.00  0.00    +0.000 C 
ATOM      2  C   UNL     1       2.586   4.440  18.242  0.00  0.00    +0.000 C 
ATOM      3  O   UNL     1       1.419   4.766  18.017  0.00  0.00    +0.000 OA
ATOM      4  C   UNL     1       3.705   5.403  17.968  0.00  0.00    +0.000 C 
ATOM      5  C   UNL     1       4.970   5.024  18.219  0.00  0.00    +0.000 C 
ATOM      6  C   UNL     1       5.344   3.721  18.880  0.00  0.00    +0.000 C 
ATOM      7  C   UNL     1       4.161   3.056  19.603  0.00  0.00    +0.000 C 
ATOM      8  C   UNL     1       4.563   1.658  20.076  0.00  0.00    +0.000 C 
ATOM      9  N   UNL     1       6.011   5.850  17.886  0.00  0.00    +0.000 N 
ATOM     10  C   UNL     1       5.928   7.068  17.276  0.00  0.00    +0.000 C 
ATOM     11  O   UNL     1       6.951   7.695  17.013  0.00  0.00    +0.000 OA
ATOM     12  C   UNL     1       4.560   7.593  16.915  0.00  0.00    +0.000 C 
ATOM     13  C   UNL     1       3.358   6.750  17.387  0.00  0.00    +0.000 C 
ATOM     14  H   UNL     1       6.968   5.558  18.078  0.00  0.00    +0.000 HD
ENDROOT
BRANCH  13  15
ATOM     15  C   UNL     1       2.527   7.574  18.362  0.00  0.00    +0.000 A 
ATOM     16  C   UNL     1       2.487   7.242  19.721  0.00  0.00    +0.000 A 
ATOM     17  C   UNL     1       1.710   7.988  20.603  0.00  0.00    +0.000 A 
ATOM     18  C   UNL     1       0.962   9.077  20.137  0.00  0.00    +0.000 A 
ATOM     19  C   UNL     1       1.001   9.437  18.787  0.00  0.00    +0.000 A 
ATOM     20  C   UNL     1       1.789   8.680  17.912  0.00  0.00    +0.000 A 
BRANCH  18  21
ATOM     21  O   UNL     1       0.201   9.762  21.042  0.00  0.00    +0.000 OA
ATOM     22  H   UNL     1       0.535  10.671  21.109  0.00  0.00    +0.000 HD
ENDBRANCH  18  21
BRANCH  19  23
ATOM     23  O   UNL     1       0.345  10.456  18.153  0.00  0.00    +0.000 OA
ATOM     24  C   UNL     1      -1.030  10.273  17.859  0.00  0.00    +0.000 C 
ENDBRANCH  19  23
ENDBRANCH  13  15
BRANCH   1  25
ATOM     25  C   UNL     1       1.778   2.272  19.236  0.00  0.00    +0.000 C 
ATOM     26  O   UNL     1       0.930   1.739  18.532  0.00  0.00    +0.000 OA
BRANCH  25  28
ATOM     27  C   UNL     1       1.125   3.231  21.259  0.00  0.00    +0.000 C 
ATOM     28  O   UNL     1       1.831   2.181  20.591  0.00  0.00    +0.000 OA
ENDBRANCH  25  28
ENDBRANCH   1  25
TORSDOF 5
ENDMDL
MODEL 5
REMARK VINA RESULT:      -6.7      2.281      6.494
REMARK  Name = 
REMARK  8 active torsions:
REMARK  status: ('A' for Active; 'I' for Inactive)
REMARK    1  A    between atoms: C_1  and  O_2
REMARK    2  A    between atoms: O_2  and  C_3
REMARK    3  A    between atoms: C_3  and  C_5
REMARK    4  A    between atoms: C_11  and  C_12
REMARK    5  A    between atoms: C_17  and  C_18
REMARK    6  A    between atoms: C_21  and  O_22
REMARK    7  A    between atoms: C_23  and  O_24
REMARK    8  A    between atoms: O_24  and  C_25
REMARK                            x       y       z     vdW  Elec       q    Type
REMARK                         _______ _______ _______ _____ _____    ______ ____
ROOT
ATOM      1  C   UNL     1       1.268   8.960  20.112  0.00  0.00    +0.000 C 
ATOM      2  C   UNL     1       1.947   7.609  20.061  0.00  0.00    +0.000 C 
ATOM      3  O   UNL     1       1.868   6.810  20.996  0.00  0.00    +0.000 OA
ATOM      4  C   UNL     1       2.843   7.316  18.892  0.00  0.00    +0.000 C 
ATOM      5  C   UNL     1       2.914   8.203  17.886  0.00  0.00    +0.000 C 
ATOM      6  C   UNL     1       2.052   9.437  17.786  0.00  0.00    +0.000 C 
ATOM      7  C   UNL     1       0.821   9.382  18.706  0.00  0.00    +0.000 C 
ATOM      8  C   UNL     1       0.109  10.736  18.699  0.00  0.00    +0.000 C 
ATOM      9  N   UNL     1       3.797   8.002  16.857  0.00  0.00    +0.000 N 
ATOM     10  C   UNL     1       4.683   6.971  16.726  0.00  0.00    +0.000 C 
ATOM     11  O   UNL     1       5.437   6.928  15.759  0.00  0.00    +0.000 OA
ATOM     12  C   UNL     1       4.720   5.923  17.810  0.00  0.00    +0.000 C 
ATOM     13  C   UNL     1       3.655   6.046  18.919  0.00  0.00    +0.000 C 
ATOM     14  H   UNL     1       3.847   8.678  16.096  0.00  0.00    +0.000 HD
ENDROOT
BRANCH  13  15
ATOM     15  C   UNL     1       2.756   4.816  18.883  0.00  0.00    +0.000 A 
ATOM     16  C   UNL     1       1.930   4.570  17.780  0.00  0.00    +0.000 A 
ATOM     17  C   UNL     1       1.098   3.454  17.764  0.00  0.00    +0.000 A 
ATOM     18  C   UNL     1       1.080   2.570  18.850  0.00  0.00    +0.000 A 
ATOM     19  C   UNL     1       1.910   2.787  19.952  0.00  0.00    +0.000 A 
ATOM     20  C   UNL     1       2.744   3.911  19.955  0.00  0.00    +0.000 A 
BRANCH  18  21
ATOM     21  O   UNL     1       0.230   1.501  18.789  0.00  0.00    +0.000 OA
ATOM     22  H   UNL     1      -0.654   1.788  19.068  0.00  0.00    +0.000 HD
ENDBRANCH  18  21
BRANCH  19  23
ATOM     23  O   UNL     1       2.030   2.043  21.094  0.00  0.00    +0.000 OA
ATOM     24  C   UNL     1       1.289   2.455  22.230  0.00  0.00    +0.000 C 
ENDBRANCH  19  23
ENDBRANCH  13  15
BRANCH   1  25
ATOM     25  C   UNL     1       0.144   9.013  21.121  0.00  0.00    +0.000 C 
ATOM     26  O   UNL     1      -0.760   8.187  21.143  0.00  0.00    +0.000 OA
BRANCH  25  28
ATOM     27  C   UNL     1      -0.262   9.714  23.307  0.00  0.00    +0.000 C 
ATOM     28  O   UNL     1       0.306  10.011  22.029  0.00  0.00    +0.000 OA
ENDBRANCH  25  28
ENDBRANCH   1  25
TORSDOF 5
ENDMDL
MODEL 6
REMARK VINA RESULT:      -6.7      1.987      6.194
REMARK  Name = 
REMARK  8 active torsions:
REMARK  status: ('A' for Active; 'I' for Inactive)
REMARK    1  A    between atoms: C_1  and  O_2
REMARK    2  A    between atoms: O_2  and  C_3
REMARK    3  A    between atoms: C_3  and  C_5
REMARK    4  A    between atoms: C_11  and  C_12
REMARK    5  A    between atoms: C_17  and  C_18
REMARK    6  A    between atoms: C_21  and  O_22
REMARK    7  A    between atoms: C_23  and  O_24
REMARK    8  A    between atoms: O_24  and  C_25
REMARK                            x       y       z     vdW  Elec       q    Type
REMARK                         _______ _______ _______ _____ _____    ______ ____
ROOT
ATOM      1  C   UNL     1       1.393   7.844  19.036  0.00  0.00    +0.000 C 
ATOM      2  C   UNL     1       2.067   6.614  18.470  0.00  0.00    +0.000 C 
ATOM      3  O   UNL     1       2.418   6.556  17.289  0.00  0.00    +0.000 OA
ATOM      4  C   UNL     1       2.174   5.403  19.350  0.00  0.00    +0.000 C 
ATOM      5  C   UNL     1       1.782   5.490  20.632  0.00  0.00    +0.000 C 
ATOM      6  C   UNL     1       1.349   6.773  21.295  0.00  0.00    +0.000 C 
ATOM      7  C   UNL     1       1.775   8.026  20.511  0.00  0.00    +0.000 C 
ATOM      8  C   UNL     1       1.136   9.269  21.134  0.00  0.00    +0.000 C 
ATOM      9  N   UNL     1       1.781   4.373  21.426  0.00  0.00    +0.000 N 
ATOM     10  C   UNL     1       2.121   3.104  21.055  0.00  0.00    +0.000 C 
ATOM     11  O   UNL     1       2.050   2.186  21.867  0.00  0.00    +0.000 OA
ATOM     12  C   UNL     1       2.551   2.870  19.627  0.00  0.00    +0.000 C 
ATOM     13  C   UNL     1       2.686   4.123  18.739  0.00  0.00    +0.000 C 
ATOM     14  H   UNL     1       1.483   4.445  22.397  0.00  0.00    +0.000 HD
ENDROOT
BRANCH  13  15
ATOM     15  C   UNL     1       4.139   4.265  18.300  0.00  0.00    +0.000 A 
ATOM     16  C   UNL     1       5.091   4.823  19.160  0.00  0.00    +0.000 A 
ATOM     17  C   UNL     1       6.412   4.967  18.744  0.00  0.00    +0.000 A 
ATOM     18  C   UNL     1       6.798   4.555  17.463  0.00  0.00    +0.000 A 
ATOM     19  C   UNL     1       5.867   3.978  16.595  0.00  0.00    +0.000 A 
ATOM     20  C   UNL     1       4.543   3.836  17.027  0.00  0.00    +0.000 A 
BRANCH  18  21
ATOM     21  O   UNL     1       8.103   4.737  17.100  0.00  0.00    +0.000 OA
ATOM     22  H   UNL     1       8.654   4.742  17.899  0.00  0.00    +0.000 HD
ENDBRANCH  18  21
BRANCH  19  23
ATOM     23  O   UNL     1       6.054   3.520  15.320  0.00  0.00    +0.000 OA
ATOM     24  C   UNL     1       5.544   4.307  14.256  0.00  0.00    +0.000 C 
ENDBRANCH  19  23
ENDBRANCH  13  15
BRANCH   1  25
ATOM     25  C   UNL     1       1.648   9.084  18.211  0.00  0.00    +0.000 C 
ATOM     26  O   UNL     1       2.752   9.607  18.133  0.00  0.00    +0.000 OA
BRANCH  25  28
ATOM     27  C   UNL     1      -0.409  10.178  18.323  0.00  0.00    +0.000 C 
ATOM     28  O   UNL     1       0.549   9.484  17.518  0.00  0.00    +0.000 OA
ENDBRANCH  25  28
ENDBRANCH   1  25
TORSDOF 5
ENDMDL
MODEL 7
REMARK VINA RESULT:      -6.7      1.900      5.934
REMARK  Name = 
REMARK  8 active torsions:
REMARK  status: ('A' for Active; 'I' for Inactive)
REMARK    1  A    between atoms: C_1  and  O_2
REMARK    2  A    between atoms: O_2  and  C_3
REMARK    3  A    between atoms: C_3  and  C_5
REMARK    4  A    between atoms: C_11  and  C_12
REMARK    5  A    between atoms: C_17  and  C_18
REMARK    6  A    between atoms: C_21  and  O_22
REMARK    7  A    between atoms: C_23  and  O_24
REMARK    8  A    between atoms: O_24  and  C_25
REMARK                            x       y       z     vdW  Elec       q    Type
REMARK                         _______ _______ _______ _____ _____    ______ ____
ROOT
ATOM      1  C   UNL     1       1.391   7.806  18.992  0.00  0.00    +0.000 C 
ATOM      2  C   UNL     1       2.019   6.570  18.388  0.00  0.00    +0.000 C 
ATOM      3  O   UNL     1       2.245   6.485  17.179  0.00  0.00    +0.000 OA
ATOM      4  C   UNL     1       2.234   5.382  19.281  0.00  0.00    +0.000 C 
ATOM      5  C   UNL     1       1.978   5.499  20.595  0.00  0.00    +0.000 C 
ATOM      6  C   UNL     1       1.598   6.793  21.269  0.00  0.00    +0.000 C 
ATOM      7  C   UNL     1       1.923   8.030  20.414  0.00  0.00    +0.000 C 
ATOM      8  C   UNL     1       1.335   9.281  21.070  0.00  0.00    +0.000 C 
ATOM      9  N   UNL     1       2.074   4.402  21.412  0.00  0.00    +0.000 N 
ATOM     10  C   UNL     1       2.391   3.128  21.038  0.00  0.00    +0.000 C 
ATOM     11  O   UNL     1       2.419   2.231  21.876  0.00  0.00    +0.000 OA
ATOM     12  C   UNL     1       2.672   2.862  19.580  0.00  0.00    +0.000 C 
ATOM     13  C   UNL     1       2.697   4.093  18.652  0.00  0.00    +0.000 C 
ATOM     14  H   UNL     1       1.879   4.496  22.406  0.00  0.00    +0.000 HD
ENDROOT
BRANCH  13  15
ATOM     15  C   UNL     1       4.093   4.240  18.059  0.00  0.00    +0.000 A 
ATOM     16  C   UNL     1       4.330   3.940  16.713  0.00  0.00    +0.000 A 
ATOM     17  C   UNL     1       5.613   4.057  16.184  0.00  0.00    +0.000 A 
ATOM     18  C   UNL     1       6.675   4.476  16.994  0.00  0.00    +0.000 A 
ATOM     19  C   UNL     1       6.457   4.798  18.336  0.00  0.00    +0.000 A 
ATOM     20  C   UNL     1       5.163   4.678  18.855  0.00  0.00    +0.000 A 
BRANCH  18  21
ATOM     21  O   UNL     1       7.917   4.556  16.428  0.00  0.00    +0.000 OA
ATOM     22  H   UNL     1       7.842   4.370  15.479  0.00  0.00    +0.000 HD
ENDBRANCH  18  21
BRANCH  19  23
ATOM     23  O   UNL     1       7.360   5.219  19.274  0.00  0.00    +0.000 OA
ATOM     24  C   UNL     1       8.038   6.441  19.035  0.00  0.00    +0.000 C 
ENDBRANCH  19  23
ENDBRANCH  13  15
BRANCH   1  25
ATOM     25  C   UNL     1       1.541   9.027  18.115  0.00  0.00    +0.000 C 
ATOM     26  O   UNL     1       2.633   9.451  17.758  0.00  0.00    +0.000 OA
BRANCH  25  28
ATOM     27  C   UNL     1      -0.005  10.756  18.361  0.00  0.00    +0.000 C 
ATOM     28  O   UNL     1       0.344   9.530  17.712  0.00  0.00    +0.000 OA
ENDBRANCH  25  28
ENDBRANCH   1  25
TORSDOF 5
ENDMDL
MODEL 8
REMARK VINA RESULT:      -6.7      2.025      6.368
REMARK  Name = 
REMARK  8 active torsions:
REMARK  status: ('A' for Active; 'I' for Inactive)
REMARK    1  A    between atoms: C_1  and  O_2
REMARK    2  A    between atoms: O_2  and  C_3
REMARK    3  A    between atoms: C_3  and  C_5
REMARK    4  A    between atoms: C_11  and  C_12
REMARK    5  A    between atoms: C_17  and  C_18
REMARK    6  A    between atoms: C_21  and  O_22
REMARK    7  A    between atoms: C_23  and  O_24
REMARK    8  A    between atoms: O_24  and  C_25
REMARK                            x       y       z     vdW  Elec       q    Type
REMARK                         _______ _______ _______ _____ _____    ______ ____
ROOT
ATOM      1  C   UNL     1       1.115   8.478  19.183  0.00  0.00    +0.000 C 
ATOM      2  C   UNL     1       1.863   7.387  18.451  0.00  0.00    +0.000 C 
ATOM      3  O   UNL     1       2.084   7.454  17.240  0.00  0.00    +0.000 OA
ATOM      4  C   UNL     1       2.213   6.142  19.214  0.00  0.00    +0.000 C 
ATOM      5  C   UNL     1       1.961   6.091  20.533  0.00  0.00    +0.000 C 
ATOM      6  C   UNL     1       1.454   7.260  21.340  0.00  0.00    +0.000 C 
ATOM      7  C   UNL     1       1.636   8.607  20.620  0.00  0.00    +0.000 C 
ATOM      8  C   UNL     1       0.927   9.713  21.404  0.00  0.00    +0.000 C 
ATOM      9  N   UNL     1       2.183   4.931  21.229  0.00  0.00    +0.000 N 
ATOM     10  C   UNL     1       2.629   3.745  20.723  0.00  0.00    +0.000 C 
ATOM     11  O   UNL     1       2.760   2.773  21.461  0.00  0.00    +0.000 OA
ATOM     12  C   UNL     1       2.920   3.665  19.244  0.00  0.00    +0.000 C 
ATOM     13  C   UNL     1       2.803   4.983  18.452  0.00  0.00    +0.000 C 
ATOM     14  H   UNL     1       1.990   4.899  22.228  0.00  0.00    +0.000 HD
ENDROOT
BRANCH  13  15
ATOM     15  C   UNL     1       4.170   5.339  17.878  0.00  0.00    +0.000 A 
ATOM     16  C   UNL     1       5.171   5.866  18.701  0.00  0.00    +0.000 A 
ATOM     17  C   UNL     1       6.410   6.207  18.165  0.00  0.00    +0.000 A 
ATOM     18  C   UNL     1       6.664   6.025  16.799  0.00  0.00    +0.000 A 
ATOM     19  C   UNL     1       5.684   5.482  15.964  0.00  0.00    +0.000 A 
ATOM     20  C   UNL     1       4.443   5.142  16.516  0.00  0.00    +0.000 A 
BRANCH  18  21
ATOM     21  O   UNL     1       7.890   6.394  16.323  0.00  0.00    +0.000 OA
ATOM     22  H   UNL     1       7.941   6.172  15.379  0.00  0.00    +0.000 HD
ENDBRANCH  18  21
BRANCH  19  23
ATOM     23  O   UNL     1       5.745   5.234  14.620  0.00  0.00    +0.000 OA
ATOM     24  C   UNL     1       6.285   3.991  14.203  0.00  0.00    +0.000 C 
ENDBRANCH  19  23
ENDBRANCH  13  15
BRANCH   1  25
ATOM     25  C   UNL     1       1.125   9.795  18.439  0.00  0.00    +0.000 C 
ATOM     26  O   UNL     1       2.127  10.491  18.348  0.00  0.00    +0.000 OA
BRANCH  25  28
ATOM     27  C   UNL     1      -0.913  10.919  18.589  0.00  0.00    +0.000 C 
ATOM     28  O   UNL     1      -0.061  10.057  17.829  0.00  0.00    +0.000 OA
ENDBRANCH  25  28
ENDBRANCH   1  25
TORSDOF 5
ENDMDL
MODEL 9
REMARK VINA RESULT:      -6.6      2.621      6.586
REMARK  Name = 
REMARK  8 active torsions:
REMARK  status: ('A' for Active; 'I' for Inactive)
REMARK    1  A    between atoms: C_1  and  O_2
REMARK    2  A    between atoms: O_2  and  C_3
REMARK    3  A    between atoms: C_3  and  C_5
REMARK    4  A    between atoms: C_11  and  C_12
REMARK    5  A    between atoms: C_17  and  C_18
REMARK    6  A    between atoms: C_21  and  O_22
REMARK    7  A    between atoms: C_23  and  O_24
REMARK    8  A    between atoms: O_24  and  C_25
REMARK                            x       y       z     vdW  Elec       q    Type
REMARK                         _______ _______ _______ _____ _____    ______ ____
ROOT
ATOM      1  C   UNL     1       3.811   3.430  20.156  0.00  0.00    +0.000 C 
ATOM      2  C   UNL     1       4.659   4.163  19.142  0.00  0.00    +0.000 C 
ATOM      3  O   UNL     1       5.817   3.817  18.896  0.00  0.00    +0.000 OA
ATOM      4  C   UNL     1       4.103   5.419  18.536  0.00  0.00    +0.000 C 
ATOM      5  C   UNL     1       2.839   5.777  18.820  0.00  0.00    +0.000 C 
ATOM      6  C   UNL     1       1.883   4.930  19.621  0.00  0.00    +0.000 C 
ATOM      7  C   UNL     1       2.335   3.464  19.737  0.00  0.00    +0.000 C 
ATOM      8  C   UNL     1       1.428   2.719  20.719  0.00  0.00    +0.000 C 
ATOM      9  N   UNL     1       2.344   6.968  18.356  0.00  0.00    +0.000 N 
ATOM     10  C   UNL     1       3.013   7.903  17.621  0.00  0.00    +0.000 C 
ATOM     11  O   UNL     1       2.451   8.943  17.291  0.00  0.00    +0.000 OA
ATOM     12  C   UNL     1       4.453   7.630  17.262  0.00  0.00    +0.000 C 
ATOM     13  C   UNL     1       5.007   6.246  17.658  0.00  0.00    +0.000 C 
ATOM     14  H   UNL     1       1.386   7.234  18.575  0.00  0.00    +0.000 HD
ENDROOT
BRANCH  13  15
ATOM     15  C   UNL     1       5.393   5.487  16.394  0.00  0.00    +0.000 A 
ATOM     16  C   UNL     1       4.547   4.504  15.867  0.00  0.00    +0.000 A 
ATOM     17  C   UNL     1       4.917   3.802  14.723  0.00  0.00    +0.000 A 
ATOM     18  C   UNL     1       6.137   4.073  14.091  0.00  0.00    +0.000 A 
ATOM     19  C   UNL     1       6.988   5.062  14.590  0.00  0.00    +0.000 A 
ATOM     20  C   UNL     1       6.603   5.763  15.739  0.00  0.00    +0.000 A 
BRANCH  18  21
ATOM     21  O   UNL     1       6.458   3.340  12.983  0.00  0.00    +0.000 OA
ATOM     22  H   UNL     1       7.275   3.696  12.597  0.00  0.00    +0.000 HD
ENDBRANCH  18  21
BRANCH  19  23
ATOM     23  O   UNL     1       8.207   5.463  14.116  0.00  0.00    +0.000 OA
ATOM     24  C   UNL     1       8.299   5.812  12.745  0.00  0.00    +0.000 C 
ENDBRANCH  19  23
ENDBRANCH  13  15
BRANCH   1  25
ATOM     25  C   UNL     1       4.305   2.028  20.430  0.00  0.00    +0.000 C 
ATOM     26  O   UNL     1       5.143   1.782  21.288  0.00  0.00    +0.000 OA
BRANCH  25  28
ATOM     27  C   UNL     1       4.136   1.006  18.341  0.00  0.00    +0.000 C 
ATOM     28  O   UNL     1       3.658   1.093  19.687  0.00  0.00    +0.000 OA
ENDBRANCH  25  28
ENDBRANCH   1  25
TORSDOF 5
ENDMDL
