MODEL 1
REMARK VINA RESULT:      -7.9      0.000      0.000
REMARK  Name = 
REMARK  7 active torsions:
REMARK  status: ('A' for Active; 'I' for Inactive)
REMARK    1  A    between atoms: N_1  and  S_2
REMARK    2  A    between atoms: S_2  and  C_5
REMARK    3  A    between atoms: C_6  and  C_7
REMARK    4  A    between atoms: C_9  and  C_10
REMARK    5  A    between atoms: C_10  and  O_11
REMARK    6  A    between atoms: C_13  and  C_14
REMARK    7  A    between atoms: C_14  and  C_16
REMARK                            x       y       z     vdW  Elec       q    Type
REMARK                         _______ _______ _______ _____ _____    ______ ____
ROOT
ATOM      1  C   UNL     1       5.932   5.218  15.894  0.00  0.00    +0.000 A 
ATOM      2  C   UNL     1       7.049   5.113  16.734  0.00  0.00    +0.000 A 
ATOM      3  C   UNL     1       6.938   5.302  18.123  0.00  0.00    +0.000 A 
ATOM      4  C   UNL     1       5.682   5.589  18.671  0.00  0.00    +0.000 A 
ATOM      5  C   UNL     1       4.551   5.671  17.848  0.00  0.00    +0.000 A 
ATOM      6  C   UNL     1       4.687   5.509  16.463  0.00  0.00    +0.000 A 
ENDROOT
BRANCH   1   8
ATOM      7  C   UNL     1       5.632   3.800  13.877  0.00  0.00    +0.000 C 
ATOM      8  C   UNL     1       6.078   4.920  14.462  0.00  0.00    +0.000 C 
BRANCH   7   9
ATOM      9  S   UNL     1       5.954   3.522  12.204  0.00  0.00    +0.000 S 
ATOM     10  O   UNL     1       7.180   4.177  11.805  0.00  0.00    +0.000 OA
ATOM     11  O   UNL     1       4.731   3.699  11.459  0.00  0.00    +0.000 OA
BRANCH   9  12
ATOM     12  N   UNL     1       6.271   1.868  12.090  0.00  0.00    +0.000 NA
ATOM     13  H   UNL     1       7.133   1.669  12.601  0.00  0.00    +0.000 HD
ATOM     14  H   UNL     1       6.351   1.594  11.111  0.00  0.00    +0.000 HD
ENDBRANCH   9  12
ENDBRANCH   7   9
ENDBRANCH   1   8
BRANCH   5  15
ATOM     15  C   UNL     1       3.230   5.951  18.474  0.00  0.00    +0.000 C 
ATOM     16  O   UNL     1       2.770   7.088  18.410  0.00  0.00    +0.000 OA
BRANCH  15  17
ATOM     17  C   UNL     1       2.450   4.888  19.164  0.00  0.00    +0.000 A 
ATOM     18  C   UNL     1       1.722   3.981  18.384  0.00  0.00    +0.000 A 
ATOM     19  C   UNL     1       1.008   2.948  18.996  0.00  0.00    +0.000 A 
ATOM     20  C   UNL     1       1.015   2.821  20.385  0.00  0.00    +0.000 A 
ATOM     21  C   UNL     1       1.715   3.738  21.168  0.00  0.00    +0.000 A 
ATOM     22  C   UNL     1       2.416   4.781  20.562  0.00  0.00    +0.000 A 
ENDBRANCH  15  17
ENDBRANCH   5  15
BRANCH   3  23
ATOM     23  C   UNL     1       8.160   5.198  18.996  0.00  0.00    +0.000 C 
BRANCH  23  24
ATOM     24  O   UNL     1       7.826   5.533  20.336  0.00  0.00    +0.000 OA
ATOM     25  H   UNL     1       7.799   6.504  20.386  0.00  0.00    +0.000 HD
ENDBRANCH  23  24
ENDBRANCH   3  23
TORSDOF 7
ENDMDL
MODEL 2
REMARK VINA RESULT:      -7.8      1.728      1.836
REMARK  Name = 
REMARK  7 active torsions:
REMARK  status: ('A' for Active; 'I' for Inactive)
REMARK    1  A    between atoms: N_1  and  S_2
REMARK    2  A    between atoms: S_2  and  C_5
REMARK    3  A    between atoms: C_6  and  C_7
REMARK    4  A    between atoms: C_9  and  C_10
REMARK    5  A    between atoms: C_10  and  O_11
REMARK    6  A    between atoms: C_13  and  C_14
REMARK    7  A    between atoms: C_14  and  C_16
REMARK                            x       y       z     vdW  Elec       q    Type
REMARK                         _______ _______ _______ _____ _____    ______ ____
ROOT
ATOM      1  C   UNL     1       5.707   4.735  16.013  0.00  0.00    +0.000 A 
ATOM      2  C   UNL     1       6.635   5.680  16.471  0.00  0.00    +0.000 A 
ATOM      3  C   UNL     1       6.870   5.865  17.845  0.00  0.00    +0.000 A 
ATOM      4  C   UNL     1       6.168   5.079  18.766  0.00  0.00    +0.000 A 
ATOM      5  C   UNL     1       5.256   4.112  18.324  0.00  0.00    +0.000 A 
ATOM      6  C   UNL     1       5.014   3.963  16.953  0.00  0.00    +0.000 A 
ENDROOT
BRANCH   1   8
ATOM      7  C   UNL     1       6.222   3.564  13.884  0.00  0.00    +0.000 C 
ATOM      8  C   UNL     1       5.563   4.510  14.568  0.00  0.00    +0.000 C 
BRANCH   7   9
ATOM      9  S   UNL     1       6.041   3.466  12.170  0.00  0.00    +0.000 S 
ATOM     10  O   UNL     1       7.091   4.203  11.504  0.00  0.00    +0.000 OA
ATOM     11  O   UNL     1       4.652   3.669  11.836  0.00  0.00    +0.000 OA
BRANCH   9  12
ATOM     12  N   UNL     1       6.323   1.844  11.795  0.00  0.00    +0.000 NA
ATOM     13  H   UNL     1       5.641   1.274  12.298  0.00  0.00    +0.000 HD
ATOM     14  H   UNL     1       7.277   1.587  12.050  0.00  0.00    +0.000 HD
ENDBRANCH   9  12
ENDBRANCH   7   9
ENDBRANCH   1   8
BRANCH   5  15
ATOM     15  C   UNL     1       4.551   3.279  19.336  0.00  0.00    +0.000 C 
ATOM     16  O   UNL     1       5.210   2.539  20.062  0.00  0.00    +0.000 OA
BRANCH  15  17
ATOM     17  C   UNL     1       3.073   3.328  19.497  0.00  0.00    +0.000 A 
ATOM     18  C   UNL     1       2.290   2.422  18.771  0.00  0.00    +0.000 A 
ATOM     19  C   UNL     1       0.902   2.416  18.925  0.00  0.00    +0.000 A 
ATOM     20  C   UNL     1       0.292   3.315  19.799  0.00  0.00    +0.000 A 
ATOM     21  C   UNL     1       1.063   4.239  20.503  0.00  0.00    +0.000 A 
ATOM     22  C   UNL     1       2.449   4.259  20.340  0.00  0.00    +0.000 A 
ENDBRANCH  15  17
ENDBRANCH   5  15
BRANCH   3  23
ATOM     23  C   UNL     1       7.863   6.899  18.305  0.00  0.00    +0.000 C 
BRANCH  23  24
ATOM     24  O   UNL     1       7.657   8.115  17.598  0.00  0.00    +0.000 OA
ATOM     25  H   UNL     1       7.346   7.874  16.708  0.00  0.00    +0.000 HD
ENDBRANCH  23  24
ENDBRANCH   3  23
TORSDOF 7
ENDMDL
MODEL 3
REMARK VINA RESULT:      -7.8      0.225      1.054
REMARK  Name = 
REMARK  7 active torsions:
REMARK  status: ('A' for Active; 'I' for Inactive)
REMARK    1  A    between atoms: N_1  and  S_2
REMARK    2  A    between atoms: S_2  and  C_5
REMARK    3  A    between atoms: C_6  and  C_7
REMARK    4  A    between atoms: C_9  and  C_10
REMARK    5  A    between atoms: C_10  and  O_11
REMARK    6  A    between atoms: C_13  and  C_14
REMARK    7  A    between atoms: C_14  and  C_16
REMARK                            x       y       z     vdW  Elec       q    Type
REMARK                         _______ _______ _______ _____ _____    ______ ____
ROOT
ATOM      1  C   UNL     1       6.104   5.115  15.830  0.00  0.00    +0.000 A 
ATOM      2  C   UNL     1       7.177   5.074  16.730  0.00  0.00    +0.000 A 
ATOM      3  C   UNL     1       6.994   5.348  18.098  0.00  0.00    +0.000 A 
ATOM      4  C   UNL     1       5.710   5.653  18.563  0.00  0.00    +0.000 A 
ATOM      5  C   UNL     1       4.622   5.673  17.680  0.00  0.00    +0.000 A 
ATOM      6  C   UNL     1       4.829   5.427  16.317  0.00  0.00    +0.000 A 
ENDROOT
BRANCH   1   8
ATOM      7  C   UNL     1       5.470   3.994  13.707  0.00  0.00    +0.000 C 
ATOM      8  C   UNL     1       6.325   4.731  14.429  0.00  0.00    +0.000 C 
BRANCH   7   9
ATOM      9  S   UNL     1       5.891   3.525  12.100  0.00  0.00    +0.000 S 
ATOM     10  O   UNL     1       7.156   4.109  11.713  0.00  0.00    +0.000 OA
ATOM     11  O   UNL     1       4.723   3.639  11.260  0.00  0.00    +0.000 OA
BRANCH   9  12
ATOM     12  N   UNL     1       6.173   1.863  12.191  0.00  0.00    +0.000 NA
ATOM     13  H   UNL     1       7.048   1.711  12.695  0.00  0.00    +0.000 HD
ATOM     14  H   UNL     1       6.215   1.464  11.253  0.00  0.00    +0.000 HD
ENDBRANCH   9  12
ENDBRANCH   7   9
ENDBRANCH   1   8
BRANCH   5  15
ATOM     15  C   UNL     1       3.269   5.976  18.221  0.00  0.00    +0.000 C 
ATOM     16  O   UNL     1       2.817   7.111  18.092  0.00  0.00    +0.000 OA
BRANCH  15  17
ATOM     17  C   UNL     1       2.447   4.938  18.901  0.00  0.00    +0.000 A 
ATOM     18  C   UNL     1       2.388   4.944  20.300  0.00  0.00    +0.000 A 
ATOM     19  C   UNL     1       1.598   4.008  20.971  0.00  0.00    +0.000 A 
ATOM     20  C   UNL     1       0.870   3.062  20.248  0.00  0.00    +0.000 A 
ATOM     21  C   UNL     1       0.948   3.033  18.856  0.00  0.00    +0.000 A 
ATOM     22  C   UNL     1       1.749   3.956  18.184  0.00  0.00    +0.000 A 
ENDBRANCH  15  17
ENDBRANCH   5  15
BRANCH   3  23
ATOM     23  C   UNL     1       8.171   5.310  19.036  0.00  0.00    +0.000 C 
BRANCH  23  24
ATOM     24  O   UNL     1       7.727   5.484  20.374  0.00  0.00    +0.000 OA
ATOM     25  H   UNL     1       6.819   5.137  20.418  0.00  0.00    +0.000 HD
ENDBRANCH  23  24
ENDBRANCH   3  23
TORSDOF 7
ENDMDL
MODEL 4
REMARK VINA RESULT:      -7.6      4.158      7.308
REMARK  Name = 
REMARK  7 active torsions:
REMARK  status: ('A' for Active; 'I' for Inactive)
REMARK    1  A    between atoms: N_1  and  S_2
REMARK    2  A    between atoms: S_2  and  C_5
REMARK    3  A    between atoms: C_6  and  C_7
REMARK    4  A    between atoms: C_9  and  C_10
REMARK    5  A    between atoms: C_10  and  O_11
REMARK    6  A    between atoms: C_13  and  C_14
REMARK    7  A    between atoms: C_14  and  C_16
REMARK                            x       y       z     vdW  Elec       q    Type
REMARK                         _______ _______ _______ _____ _____    ______ ____
ROOT
ATOM      1  C   UNL     1       3.460   6.350  17.777  0.00  0.00    +0.000 A 
ATOM      2  C   UNL     1       2.705   5.208  18.072  0.00  0.00    +0.000 A 
ATOM      3  C   UNL     1       3.163   3.922  17.732  0.00  0.00    +0.000 A 
ATOM      4  C   UNL     1       4.403   3.789  17.099  0.00  0.00    +0.000 A 
ATOM      5  C   UNL     1       5.183   4.919  16.820  0.00  0.00    +0.000 A 
ATOM      6  C   UNL     1       4.696   6.193  17.139  0.00  0.00    +0.000 A 
ENDROOT
BRANCH   1   8
ATOM      7  C   UNL     1       1.836   8.228  17.838  0.00  0.00    +0.000 C 
ATOM      8  C   UNL     1       2.986   7.664  18.234  0.00  0.00    +0.000 C 
BRANCH   7   9
ATOM      9  S   UNL     1       1.438   9.822  18.370  0.00  0.00    +0.000 S 
ATOM     10  O   UNL     1       2.370  10.787  17.831  0.00  0.00    +0.000 OA
ATOM     11  O   UNL     1       1.132   9.779  19.780  0.00  0.00    +0.000 OA
BRANCH   9  12
ATOM     12  N   UNL     1      -0.043  10.169  17.637  0.00  0.00    +0.000 NA
ATOM     13  H   UNL     1      -0.610   9.319  17.638  0.00  0.00    +0.000 HD
ATOM     14  H   UNL     1       0.109  10.509  16.688  0.00  0.00    +0.000 HD
ENDBRANCH   9  12
ENDBRANCH   7   9
ENDBRANCH   1   8
BRANCH   5  15
ATOM     15  C   UNL     1       6.508   4.731  16.170  0.00  0.00    +0.000 C 
ATOM     16  O   UNL     1       7.517   4.709  16.870  0.00  0.00    +0.000 OA
BRANCH  15  17
ATOM     17  C   UNL     1       6.640   4.558  14.698  0.00  0.00    +0.000 A 
ATOM     18  C   UNL     1       7.582   5.338  14.015  0.00  0.00    +0.000 A 
ATOM     19  C   UNL     1       7.758   5.177  12.639  0.00  0.00    +0.000 A 
ATOM     20  C   UNL     1       6.992   4.242  11.942  0.00  0.00    +0.000 A 
ATOM     21  C   UNL     1       6.033   3.483  12.611  0.00  0.00    +0.000 A 
ATOM     22  C   UNL     1       5.843   3.653  13.983  0.00  0.00    +0.000 A 
ENDBRANCH  15  17
ENDBRANCH   5  15
BRANCH   3  23
ATOM     23  C   UNL     1       2.320   2.716  18.050  0.00  0.00    +0.000 C 
BRANCH  23  24
ATOM     24  O   UNL     1       3.047   1.529  17.761  0.00  0.00    +0.000 OA
ATOM     25  H   UNL     1       3.843   1.799  17.270  0.00  0.00    +0.000 HD
ENDBRANCH  23  24
ENDBRANCH   3  23
TORSDOF 7
ENDMDL
MODEL 5
REMARK VINA RESULT:      -7.5      4.033      5.480
REMARK  Name = 
REMARK  7 active torsions:
REMARK  status: ('A' for Active; 'I' for Inactive)
REMARK    1  A    between atoms: N_1  and  S_2
REMARK    2  A    between atoms: S_2  and  C_5
REMARK    3  A    between atoms: C_6  and  C_7
REMARK    4  A    between atoms: C_9  and  C_10
REMARK    5  A    between atoms: C_10  and  O_11
REMARK    6  A    between atoms: C_13  and  C_14
REMARK    7  A    between atoms: C_14  and  C_16
REMARK                            x       y       z     vdW  Elec       q    Type
REMARK                         _______ _______ _______ _____ _____    ______ ____
ROOT
ATOM      1  C   UNL     1       3.928   6.605  17.203  0.00  0.00    +0.000 A 
ATOM      2  C   UNL     1       4.898   6.522  16.195  0.00  0.00    +0.000 A 
ATOM      3  C   UNL     1       5.428   5.283  15.793  0.00  0.00    +0.000 A 
ATOM      4  C   UNL     1       4.964   4.114  16.407  0.00  0.00    +0.000 A 
ATOM      5  C   UNL     1       3.976   4.178  17.398  0.00  0.00    +0.000 A 
ATOM      6  C   UNL     1       3.482   5.423  17.807  0.00  0.00    +0.000 A 
ENDROOT
BRANCH   1   8
ATOM      7  C   UNL     1       2.220   8.072  18.252  0.00  0.00    +0.000 C 
ATOM      8  C   UNL     1       3.336   7.910  17.526  0.00  0.00    +0.000 C 
BRANCH   7   9
ATOM      9  S   UNL     1       1.569   9.655  18.477  0.00  0.00    +0.000 S 
ATOM     10  O   UNL     1       2.425  10.649  17.871  0.00  0.00    +0.000 OA
ATOM     11  O   UNL     1       1.118   9.783  19.842  0.00  0.00    +0.000 OA
BRANCH   9  12
ATOM     12  N   UNL     1       0.146   9.673  17.569  0.00  0.00    +0.000 NA
ATOM     13  H   UNL     1       0.206  10.433  16.889  0.00  0.00    +0.000 HD
ATOM     14  H   UNL     1      -0.659   9.791  18.183  0.00  0.00    +0.000 HD
ENDBRANCH   9  12
ENDBRANCH   7   9
ENDBRANCH   1   8
BRANCH   5  15
ATOM     15  C   UNL     1       3.491   2.909  18.007  0.00  0.00    +0.000 C 
ATOM     16  O   UNL     1       3.736   1.846  17.442  0.00  0.00    +0.000 OA
BRANCH  15  17
ATOM     17  C   UNL     1       2.730   2.895  19.286  0.00  0.00    +0.000 A 
ATOM     18  C   UNL     1       1.352   3.136  19.246  0.00  0.00    +0.000 A 
ATOM     19  C   UNL     1       0.600   3.095  20.422  0.00  0.00    +0.000 A 
ATOM     20  C   UNL     1       1.222   2.820  21.640  0.00  0.00    +0.000 A 
ATOM     21  C   UNL     1       2.599   2.608  21.690  0.00  0.00    +0.000 A 
ATOM     22  C   UNL     1       3.356   2.664  20.519  0.00  0.00    +0.000 A 
ENDBRANCH  15  17
ENDBRANCH   5  15
BRANCH   3  23
ATOM     23  C   UNL     1       6.480   5.229  14.717  0.00  0.00    +0.000 C 
BRANCH  23  24
ATOM     24  O   UNL     1       7.720   5.693  15.231  0.00  0.00    +0.000 OA
ATOM     25  H   UNL     1       8.386   5.547  14.536  0.00  0.00    +0.000 HD
ENDBRANCH  23  24
ENDBRANCH   3  23
TORSDOF 7
ENDMDL
MODEL 6
REMARK VINA RESULT:      -7.5      4.189      7.066
REMARK  Name = 
REMARK  7 active torsions:
REMARK  status: ('A' for Active; 'I' for Inactive)
REMARK    1  A    between atoms: N_1  and  S_2
REMARK    2  A    between atoms: S_2  and  C_5
REMARK    3  A    between atoms: C_6  and  C_7
REMARK    4  A    between atoms: C_9  and  C_10
REMARK    5  A    between atoms: C_10  and  O_11
REMARK    6  A    between atoms: C_13  and  C_14
REMARK    7  A    between atoms: C_14  and  C_16
REMARK                            x       y       z     vdW  Elec       q    Type
REMARK                         _______ _______ _______ _____ _____    ______ ____
ROOT
ATOM      1  C   UNL     1       3.353   6.117  17.958  0.00  0.00    +0.000 A 
ATOM      2  C   UNL     1       3.280   4.898  18.645  0.00  0.00    +0.000 A 
ATOM      3  C   UNL     1       4.237   3.887  18.443  0.00  0.00    +0.000 A 
ATOM      4  C   UNL     1       5.287   4.117  17.547  0.00  0.00    +0.000 A 
ATOM      5  C   UNL     1       5.390   5.341  16.872  0.00  0.00    +0.000 A 
ATOM      6  C   UNL     1       4.410   6.323  17.064  0.00  0.00    +0.000 A 
ENDROOT
BRANCH   1   8
ATOM      7  C   UNL     1       2.493   8.444  17.844  0.00  0.00    +0.000 C 
ATOM      8  C   UNL     1       2.385   7.178  18.271  0.00  0.00    +0.000 C 
BRANCH   7   9
ATOM      9  S   UNL     1       1.341   9.621  18.362  0.00  0.00    +0.000 S 
ATOM     10  O   UNL     1       1.249   9.644  19.805  0.00  0.00    +0.000 OA
ATOM     11  O   UNL     1       0.163   9.516  17.535  0.00  0.00    +0.000 OA
BRANCH   9  12
ATOM     12  N   UNL     1       2.016  11.109  17.932  0.00  0.00    +0.000 NA
ATOM     13  H   UNL     1       2.400  11.544  18.773  0.00  0.00    +0.000 HD
ATOM     14  H   UNL     1       1.307  11.702  17.502  0.00  0.00    +0.000 HD
ENDBRANCH   9  12
ENDBRANCH   7   9
ENDBRANCH   1   8
BRANCH   5  15
ATOM     15  C   UNL     1       6.537   5.554  15.948  0.00  0.00    +0.000 C 
ATOM     16  O   UNL     1       7.480   6.247  16.321  0.00  0.00    +0.000 OA
BRANCH  15  17
ATOM     17  C   UNL     1       6.575   4.939  14.593  0.00  0.00    +0.000 A 
ATOM     18  C   UNL     1       5.563   4.038  14.239  0.00  0.00    +0.000 A 
ATOM     19  C   UNL     1       5.547   3.471  12.964  0.00  0.00    +0.000 A 
ATOM     20  C   UNL     1       6.542   3.796  12.041  0.00  0.00    +0.000 A 
ATOM     21  C   UNL     1       7.568   4.670  12.398  0.00  0.00    +0.000 A 
ATOM     22  C   UNL     1       7.596   5.227  13.677  0.00  0.00    +0.000 A 
ENDBRANCH  15  17
ENDBRANCH   5  15
BRANCH   3  23
ATOM     23  C   UNL     1       4.121   2.582  19.185  0.00  0.00    +0.000 C 
BRANCH  23  24
ATOM     24  O   UNL     1       3.974   1.513  18.261  0.00  0.00    +0.000 OA
ATOM     25  H   UNL     1       3.706   0.731  18.775  0.00  0.00    +0.000 HD
ENDBRANCH  23  24
ENDBRANCH   3  23
TORSDOF 7
ENDMDL
MODEL 7
REMARK VINA RESULT:      -7.5      3.909      5.568
REMARK  Name = 
REMARK  7 active torsions:
REMARK  status: ('A' for Active; 'I' for Inactive)
REMARK    1  A    between atoms: N_1  and  S_2
REMARK    2  A    between atoms: S_2  and  C_5
REMARK    3  A    between atoms: C_6  and  C_7
REMARK    4  A    between atoms: C_9  and  C_10
REMARK    5  A    between atoms: C_10  and  O_11
REMARK    6  A    between atoms: C_13  and  C_14
REMARK    7  A    between atoms: C_14  and  C_16
REMARK                            x       y       z     vdW  Elec       q    Type
REMARK                         _______ _______ _______ _____ _____    ______ ____
ROOT
ATOM      1  C   UNL     1       4.024   6.524  17.219  0.00  0.00    +0.000 A 
ATOM      2  C   UNL     1       4.982   6.438  16.200  0.00  0.00    +0.000 A 
ATOM      3  C   UNL     1       5.496   5.197  15.784  0.00  0.00    +0.000 A 
ATOM      4  C   UNL     1       5.027   4.029  16.395  0.00  0.00    +0.000 A 
ATOM      5  C   UNL     1       4.050   4.095  17.397  0.00  0.00    +0.000 A 
ATOM      6  C   UNL     1       3.573   5.343  17.819  0.00  0.00    +0.000 A 
ENDROOT
BRANCH   1   8
ATOM      7  C   UNL     1       2.210   8.008  18.041  0.00  0.00    +0.000 C 
ATOM      8  C   UNL     1       3.447   7.833  17.556  0.00  0.00    +0.000 C 
BRANCH   7   9
ATOM      9  S   UNL     1       1.613   9.606  18.303  0.00  0.00    +0.000 S 
ATOM     10  O   UNL     1       2.441  10.578  17.626  0.00  0.00    +0.000 OA
ATOM     11  O   UNL     1       1.271   9.752  19.698  0.00  0.00    +0.000 OA
BRANCH   9  12
ATOM     12  N   UNL     1       0.124   9.651  17.507  0.00  0.00    +0.000 NA
ATOM     13  H   UNL     1      -0.592   9.295  18.142  0.00  0.00    +0.000 HD
ATOM     14  H   UNL     1       0.169   9.095  16.653  0.00  0.00    +0.000 HD
ENDBRANCH   9  12
ENDBRANCH   7   9
ENDBRANCH   1   8
BRANCH   5  15
ATOM     15  C   UNL     1       3.560   2.827  18.003  0.00  0.00    +0.000 C 
ATOM     16  O   UNL     1       3.864   1.760  17.476  0.00  0.00    +0.000 OA
BRANCH  15  17
ATOM     17  C   UNL     1       2.722   2.820  19.233  0.00  0.00    +0.000 A 
ATOM     18  C   UNL     1       3.350   2.612  20.467  0.00  0.00    +0.000 A 
ATOM     19  C   UNL     1       2.601   2.635  21.645  0.00  0.00    +0.000 A 
ATOM     20  C   UNL     1       1.226   2.860  21.595  0.00  0.00    +0.000 A 
ATOM     21  C   UNL     1       0.590   3.039  20.366  0.00  0.00    +0.000 A 
ATOM     22  C   UNL     1       1.333   3.001  19.186  0.00  0.00    +0.000 A 
ENDBRANCH  15  17
ENDBRANCH   5  15
BRANCH   3  23
ATOM     23  C   UNL     1       6.536   5.140  14.696  0.00  0.00    +0.000 C 
BRANCH  23  24
ATOM     24  O   UNL     1       6.336   3.983  13.897  0.00  0.00    +0.000 OA
ATOM     25  H   UNL     1       6.966   4.038  13.158  0.00  0.00    +0.000 HD
ENDBRANCH  23  24
ENDBRANCH   3  23
TORSDOF 7
ENDMDL
MODEL 8
REMARK VINA RESULT:      -7.4      3.549      6.617
REMARK  Name = 
REMARK  7 active torsions:
REMARK  status: ('A' for Active; 'I' for Inactive)
REMARK    1  A    between atoms: N_1  and  S_2
REMARK    2  A    between atoms: S_2  and  C_5
REMARK    3  A    between atoms: C_6  and  C_7
REMARK    4  A    between atoms: C_9  and  C_10
REMARK    5  A    between atoms: C_10  and  O_11
REMARK    6  A    between atoms: C_13  and  C_14
REMARK    7  A    between atoms: C_14  and  C_16
REMARK                            x       y       z     vdW  Elec       q    Type
REMARK                         _______ _______ _______ _____ _____    ______ ____
ROOT
ATOM      1  C   UNL     1       4.999   4.002  17.284  0.00  0.00    +0.000 A 
ATOM      2  C   UNL     1       5.779   4.678  18.232  0.00  0.00    +0.000 A 
ATOM      3  C   UNL     1       6.945   5.370  17.858  0.00  0.00    +0.000 A 
ATOM      4  C   UNL     1       7.319   5.391  16.510  0.00  0.00    +0.000 A 
ATOM      5  C   UNL     1       6.535   4.743  15.546  0.00  0.00    +0.000 A 
ATOM      6  C   UNL     1       5.394   4.033  15.942  0.00  0.00    +0.000 A 
ENDROOT
BRANCH   1   8
ATOM      7  C   UNL     1       2.906   3.892  18.617  0.00  0.00    +0.000 C 
ATOM      8  C   UNL     1       3.740   3.371  17.706  0.00  0.00    +0.000 C 
BRANCH   7   9
ATOM      9  S   UNL     1       1.507   3.004  19.101  0.00  0.00    +0.000 S 
ATOM     10  O   UNL     1       1.885   1.751  19.716  0.00  0.00    +0.000 OA
ATOM     11  O   UNL     1       0.532   3.055  18.037  0.00  0.00    +0.000 OA
BRANCH   9  12
ATOM     12  N   UNL     1       0.815   3.921  20.338  0.00  0.00    +0.000 NA
ATOM     13  H   UNL     1       1.432   4.710  20.538  0.00  0.00    +0.000 HD
ATOM     14  H   UNL     1       0.676   3.343  21.166  0.00  0.00    +0.000 HD
ENDBRANCH   9  12
ENDBRANCH   7   9
ENDBRANCH   1   8
BRANCH   5  15
ATOM     15  C   UNL     1       6.954   4.812  14.120  0.00  0.00    +0.000 C 
ATOM     16  O   UNL     1       7.844   5.596  13.798  0.00  0.00    +0.000 OA
BRANCH  15  17
ATOM     17  C   UNL     1       6.332   3.950  13.079  0.00  0.00    +0.000 A 
ATOM     18  C   UNL     1       7.147   3.049  12.383  0.00  0.00    +0.000 A 
ATOM     19  C   UNL     1       6.591   2.198  11.425  0.00  0.00    +0.000 A 
ATOM     20  C   UNL     1       5.223   2.249  11.155  0.00  0.00    +0.000 A 
ATOM     21  C   UNL     1       4.411   3.164  11.824  0.00  0.00    +0.000 A 
ATOM     22  C   UNL     1       4.966   4.026  12.770  0.00  0.00    +0.000 A 
ENDBRANCH  15  17
ENDBRANCH   5  15
BRANCH   3  23
ATOM     23  C   UNL     1       7.769   6.073  18.904  0.00  0.00    +0.000 C 
BRANCH  23  24
ATOM     24  O   UNL     1       7.586   5.446  20.165  0.00  0.00    +0.000 OA
ATOM     25  H   UNL     1       7.630   4.486  20.013  0.00  0.00    +0.000 HD
ENDBRANCH  23  24
ENDBRANCH   3  23
TORSDOF 7
ENDMDL
MODEL 9
REMARK VINA RESULT:      -7.4      5.096      8.178
REMARK  Name = 
REMARK  7 active torsions:
REMARK  status: ('A' for Active; 'I' for Inactive)
REMARK    1  A    between atoms: N_1  and  S_2
REMARK    2  A    between atoms: S_2  and  C_5
REMARK    3  A    between atoms: C_6  and  C_7
REMARK    4  A    between atoms: C_9  and  C_10
REMARK    5  A    between atoms: C_10  and  O_11
REMARK    6  A    between atoms: C_13  and  C_14
REMARK    7  A    between atoms: C_14  and  C_16
REMARK                            x       y       z     vdW  Elec       q    Type
REMARK                         _______ _______ _______ _____ _____    ______ ____
ROOT
ATOM      1  C   UNL     1       1.953   6.723  20.251  0.00  0.00    +0.000 A 
ATOM      2  C   UNL     1       1.336   5.574  20.763  0.00  0.00    +0.000 A 
ATOM      3  C   UNL     1       1.703   4.290  20.321  0.00  0.00    +0.000 A 
ATOM      4  C   UNL     1       2.714   4.166  19.362  0.00  0.00    +0.000 A 
ATOM      5  C   UNL     1       3.359   5.303  18.859  0.00  0.00    +0.000 A 
ATOM      6  C   UNL     1       2.959   6.575  19.289  0.00  0.00    +0.000 A 
ENDROOT
BRANCH   1   8
ATOM      7  C   UNL     1       0.480   8.287  21.497  0.00  0.00    +0.000 C 
ATOM      8  C   UNL     1       1.603   8.037  20.809  0.00  0.00    +0.000 C 
BRANCH   7   9
ATOM      9  S   UNL     1       0.136   9.898  22.015  0.00  0.00    +0.000 S 
ATOM     10  O   UNL     1      -1.134  10.343  21.488  0.00  0.00    +0.000 OA
ATOM     11  O   UNL     1       1.330  10.697  21.874  0.00  0.00    +0.000 OA
BRANCH   9  12
ATOM     12  N   UNL     1      -0.087   9.780  23.685  0.00  0.00    +0.000 NA
ATOM     13  H   UNL     1       0.494  10.487  24.138  0.00  0.00    +0.000 HD
ATOM     14  H   UNL     1       0.158   8.843  24.004  0.00  0.00    +0.000 HD
ENDBRANCH   9  12
ENDBRANCH   7   9
ENDBRANCH   1   8
BRANCH   5  15
ATOM     15  C   UNL     1       4.448   5.125  17.860  0.00  0.00    +0.000 C 
ATOM     16  O   UNL     1       4.251   4.398  16.889  0.00  0.00    +0.000 OA
BRANCH  15  17
ATOM     17  C   UNL     1       5.760   5.813  18.000  0.00  0.00    +0.000 A 
ATOM     18  C   UNL     1       6.030   6.911  17.175  0.00  0.00    +0.000 A 
ATOM     19  C   UNL     1       7.236   7.604  17.304  0.00  0.00    +0.000 A 
ATOM     20  C   UNL     1       8.176   7.199  18.253  0.00  0.00    +0.000 A 
ATOM     21  C   UNL     1       7.924   6.088  19.057  0.00  0.00    +0.000 A 
ATOM     22  C   UNL     1       6.728   5.385  18.920  0.00  0.00    +0.000 A 
ENDBRANCH  15  17
ENDBRANCH   5  15
BRANCH   3  23
ATOM     23  C   UNL     1       1.010   3.076  20.880  0.00  0.00    +0.000 C 
BRANCH  23  24
ATOM     24  O   UNL     1       1.663   2.651  22.068  0.00  0.00    +0.000 OA
ATOM     25  H   UNL     1       1.383   3.257  22.777  0.00  0.00    +0.000 HD
ENDBRANCH  23  24
ENDBRANCH   3  23
TORSDOF 7
ENDMDL
