MODEL 1
REMARK VINA RESULT:      -7.0      0.000      0.000
REMARK  Name = 
REMARK  4 active torsions:
REMARK  status: ('A' for Active; 'I' for Inactive)
REMARK    1  A    between atoms: C_1  and  C_2
REMARK    2  A    between atoms: N_4  and  C_5
REMARK    3  A    between atoms: C_25  and  C_27
REMARK    4  A    between atoms: C_27  and  C_28
REMARK                            x       y       z     vdW  Elec       q    Type
REMARK                         _______ _______ _______ _____ _____    ______ ____
ROOT
ATOM      1  C   UNL     1       3.834  14.564  19.822  0.00  0.00    +0.000 A 
ATOM      2  C   UNL     1       3.439  14.341  21.141  0.00  0.00    +0.000 A 
ATOM      3  N   UNL     1       2.429  13.513  21.511  0.00  0.00    +0.000 NA
ATOM      4  C   UNL     1       1.792  12.847  20.523  0.00  0.00    +0.000 A 
ATOM      5  C   UNL     1       2.099  13.009  19.172  0.00  0.00    +0.000 A 
ATOM      6  C   UNL     1       3.117  13.906  18.823  0.00  0.00    +0.000 A 
ATOM      7  C   UNL     1       1.412  12.155  18.138  0.00  0.00    +0.000 C 
ATOM      8  C   UNL     1       1.875  10.699  18.237  0.00  0.00    +0.000 C 
ATOM      9  C   UNL     1       1.508   9.882  19.467  0.00  0.00    +0.000 A 
ATOM     10  C   UNL     1       1.736   8.490  19.361  0.00  0.00    +0.000 A 
ATOM     11  C   UNL     1       1.505   7.633  20.434  0.00  0.00    +0.000 A 
ATOM     12 CL   UNL     1       1.760   5.942  20.254  0.00  0.00    +0.000 Cl
ATOM     13  C   UNL     1       1.087   8.142  21.654  0.00  0.00    +0.000 A 
ATOM     14  C   UNL     1       0.887   9.517  21.787  0.00  0.00    +0.000 A 
ATOM     15  C   UNL     1       1.037  10.401  20.696  0.00  0.00    +0.000 A 
ATOM     16  C   UNL     1       0.767  11.851  20.922  0.00  0.00    +0.000 C 
ATOM     17  C   UNL     1      -0.435  12.291  21.402  0.00  0.00    +0.000 C 
ATOM     18  C   UNL     1      -1.635  11.406  21.725  0.00  0.00    +0.000 C 
ATOM     19  C   UNL     1      -2.005  11.555  23.202  0.00  0.00    +0.000 C 
ATOM     20  N   UNL     1      -2.324  12.952  23.509  0.00  0.00    +0.000 N 
ATOM     21  C   UNL     1      -3.527  13.234  24.136  0.00  0.00    +0.000 C 
ATOM     22  O   UNL     1      -4.329  12.344  24.436  0.00  0.00    +0.000 OA
ATOM     23  C   UNL     1      -1.267  13.914  23.159  0.00  0.00    +0.000 C 
ATOM     24  C   UNL     1      -0.788  13.745  21.704  0.00  0.00    +0.000 C 
ENDROOT
BRANCH   1  28
ATOM     25  C   UNL     1       6.212  17.346  18.909  0.00  0.00    +0.000 C 
ATOM     26  C   UNL     1       4.892  16.762  19.343  0.00  0.00    +0.000 C 
ATOM     27  O   UNL     1       3.930  17.483  19.578  0.00  0.00    +0.000 OA
ATOM     28  N   UNL     1       4.920  15.382  19.435  0.00  0.00    +0.000 N 
ATOM     29  H   UNL     1       5.822  14.930  19.343  0.00  0.00    +0.000 HD
ENDBRANCH   1  28
BRANCH  21  30
ATOM     30  C   UNL     1      -3.898  14.683  24.419  0.00  0.00    +0.000 C 
BRANCH  30  31
ATOM     31  C   UNL     1      -4.961  15.240  23.498  0.00  0.00    +0.000 A 
ATOM     32  C   UNL     1      -6.018  16.025  23.973  0.00  0.00    +0.000 A 
ATOM     33  C   UNL     1      -6.931  16.542  23.066  0.00  0.00    +0.000 A 
ATOM     34  N   UNL     1      -6.856  16.348  21.732  0.00  0.00    +0.000 NA
ATOM     35  C   UNL     1      -5.814  15.616  21.288  0.00  0.00    +0.000 A 
ATOM     36  C   UNL     1      -4.855  15.053  22.116  0.00  0.00    +0.000 A 
ENDBRANCH  30  31
ENDBRANCH  21  30
TORSDOF 3
ENDMDL
MODEL 2
REMARK VINA RESULT:      -6.8      3.762      7.584
REMARK  Name = 
REMARK  4 active torsions:
REMARK  status: ('A' for Active; 'I' for Inactive)
REMARK    1  A    between atoms: C_1  and  C_2
REMARK    2  A    between atoms: N_4  and  C_5
REMARK    3  A    between atoms: C_25  and  C_27
REMARK    4  A    between atoms: C_27  and  C_28
REMARK                            x       y       z     vdW  Elec       q    Type
REMARK                         _______ _______ _______ _____ _____    ______ ____
ROOT
ATOM      1  C   UNL     1       1.336   8.192  20.745  0.00  0.00    +0.000 A 
ATOM      2  C   UNL     1       1.019   9.137  21.721  0.00  0.00    +0.000 A 
ATOM      3  N   UNL     1       0.457  10.346  21.468  0.00  0.00    +0.000 NA
ATOM      4  C   UNL     1       0.167  10.626  20.178  0.00  0.00    +0.000 A 
ATOM      5  C   UNL     1       0.455   9.758  19.125  0.00  0.00    +0.000 A 
ATOM      6  C   UNL     1       1.077   8.538  19.418  0.00  0.00    +0.000 A 
ATOM      7  C   UNL     1       0.008  10.099  17.727  0.00  0.00    +0.000 C 
ATOM      8  C   UNL     1      -1.515  10.006  17.602  0.00  0.00    +0.000 C 
ATOM      9  C   UNL     1      -2.387  11.000  18.354  0.00  0.00    +0.000 A 
ATOM     10  C   UNL     1      -3.750  11.018  17.977  0.00  0.00    +0.000 A 
ATOM     11  C   UNL     1      -4.672  11.834  18.628  0.00  0.00    +0.000 A 
ATOM     12 CL   UNL     1      -6.314  11.853  18.117  0.00  0.00    +0.000 Cl
ATOM     13  C   UNL     1      -4.274  12.618  19.699  0.00  0.00    +0.000 A 
ATOM     14  C   UNL     1      -2.939  12.590  20.105  0.00  0.00    +0.000 A 
ATOM     15  C   UNL     1      -1.966  11.833  19.417  0.00  0.00    +0.000 A 
ATOM     16  C   UNL     1      -0.555  11.892  19.901  0.00  0.00    +0.000 C 
ATOM     17  C   UNL     1       0.117  13.077  20.008  0.00  0.00    +0.000 C 
ATOM     18  C   UNL     1      -0.438  14.447  19.628  0.00  0.00    +0.000 C 
ATOM     19  C   UNL     1      -0.435  15.363  20.852  0.00  0.00    +0.000 C 
ATOM     20  N   UNL     1       0.925  15.510  21.377  0.00  0.00    +0.000 N 
ATOM     21  C   UNL     1       1.425  16.788  21.574  0.00  0.00    +0.000 C 
ATOM     22  O   UNL     1       0.757  17.794  21.317  0.00  0.00    +0.000 OA
ATOM     23  C   UNL     1       1.598  14.242  21.702  0.00  0.00    +0.000 C 
ATOM     24  C   UNL     1       1.542  13.241  20.531  0.00  0.00    +0.000 C 
ENDROOT
BRANCH   1  28
ATOM     25  C   UNL     1       2.820   4.726  20.650  0.00  0.00    +0.000 C 
ATOM     26  C   UNL     1       2.291   6.005  20.052  0.00  0.00    +0.000 C 
ATOM     27  O   UNL     1       2.263   6.170  18.838  0.00  0.00    +0.000 OA
ATOM     28  N   UNL     1       1.870   6.911  21.008  0.00  0.00    +0.000 N 
ATOM     29  H   UNL     1       2.079   6.694  21.976  0.00  0.00    +0.000 HD
ENDBRANCH   1  28
BRANCH  21  30
ATOM     30  C   UNL     1       2.853  16.960  22.071  0.00  0.00    +0.000 C 
BRANCH  30  31
ATOM     31  C   UNL     1       3.880  17.084  20.969  0.00  0.00    +0.000 A 
ATOM     32  C   UNL     1       3.651  16.590  19.679  0.00  0.00    +0.000 A 
ATOM     33  C   UNL     1       4.619  16.781  18.704  0.00  0.00    +0.000 A 
ATOM     34  N   UNL     1       5.779  17.436  18.917  0.00  0.00    +0.000 NA
ATOM     35  C   UNL     1       5.972  17.934  20.156  0.00  0.00    +0.000 A 
ATOM     36  C   UNL     1       5.066  17.790  21.197  0.00  0.00    +0.000 A 
ENDBRANCH  30  31
ENDBRANCH  21  30
TORSDOF 3
ENDMDL
MODEL 3
REMARK VINA RESULT:      -6.7      3.706      8.066
REMARK  Name = 
REMARK  4 active torsions:
REMARK  status: ('A' for Active; 'I' for Inactive)
REMARK    1  A    between atoms: C_1  and  C_2
REMARK    2  A    between atoms: N_4  and  C_5
REMARK    3  A    between atoms: C_25  and  C_27
REMARK    4  A    between atoms: C_27  and  C_28
REMARK                            x       y       z     vdW  Elec       q    Type
REMARK                         _______ _______ _______ _____ _____    ______ ____
ROOT
ATOM      1  C   UNL     1       1.385   8.228  20.876  0.00  0.00    +0.000 A 
ATOM      2  C   UNL     1       1.400   9.257  21.817  0.00  0.00    +0.000 A 
ATOM      3  N   UNL     1       0.977  10.524  21.578  0.00  0.00    +0.000 NA
ATOM      4  C   UNL     1       0.488  10.783  20.345  0.00  0.00    +0.000 A 
ATOM      5  C   UNL     1       0.442   9.829  19.327  0.00  0.00    +0.000 A 
ATOM      6  C   UNL     1       0.929   8.544  19.596  0.00  0.00    +0.000 A 
ATOM      7  C   UNL     1      -0.211  10.166  18.012  0.00  0.00    +0.000 C 
ATOM      8  C   UNL     1      -1.727  10.303  18.174  0.00  0.00    +0.000 C 
ATOM      9  C   UNL     1      -2.288  11.456  18.992  0.00  0.00    +0.000 A 
ATOM     10  C   UNL     1      -3.682  11.666  18.871  0.00  0.00    +0.000 A 
ATOM     11  C   UNL     1      -4.336  12.645  19.613  0.00  0.00    +0.000 A 
ATOM     12 CL   UNL     1      -6.026  12.892  19.410  0.00  0.00    +0.000 Cl
ATOM     13  C   UNL     1      -3.632  13.410  20.530  0.00  0.00    +0.000 A 
ATOM     14  C   UNL     1      -2.263  13.196  20.687  0.00  0.00    +0.000 A 
ATOM     15  C   UNL     1      -1.557  12.265  19.894  0.00  0.00    +0.000 A 
ATOM     16  C   UNL     1      -0.086  12.130  20.106  0.00  0.00    +0.000 C 
ATOM     17  C   UNL     1       0.756  13.200  19.997  0.00  0.00    +0.000 C 
ATOM     18  C   UNL     1       0.340  14.619  19.619  0.00  0.00    +0.000 C 
ATOM     19  C   UNL     1       0.707  15.583  20.748  0.00  0.00    +0.000 C 
ATOM     20  N   UNL     1       2.149  15.544  21.003  0.00  0.00    +0.000 N 
ATOM     21  C   UNL     1       2.855  16.737  21.006  0.00  0.00    +0.000 C 
ATOM     22  O   UNL     1       2.300  17.820  20.798  0.00  0.00    +0.000 OA
ATOM     23  C   UNL     1       2.685  14.204  21.297  0.00  0.00    +0.000 C 
ATOM     24  C   UNL     1       2.264  13.168  20.237  0.00  0.00    +0.000 C 
ENDROOT
BRANCH   1  28
ATOM     25  C   UNL     1       2.544   4.640  20.778  0.00  0.00    +0.000 C 
ATOM     26  C   UNL     1       2.194   5.981  20.186  0.00  0.00    +0.000 C 
ATOM     27  O   UNL     1       2.293   6.185  18.982  0.00  0.00    +0.000 OA
ATOM     28  N   UNL     1       1.772   6.894  21.135  0.00  0.00    +0.000 N 
ATOM     29  H   UNL     1       1.870   6.629  22.108  0.00  0.00    +0.000 HD
ENDBRANCH   1  28
BRANCH  21  30
ATOM     30  C   UNL     1       4.361  16.711  21.220  0.00  0.00    +0.000 C 
BRANCH  30  31
ATOM     31  C   UNL     1       5.128  15.994  20.132  0.00  0.00    +0.000 A 
ATOM     32  C   UNL     1       4.651  15.910  18.818  0.00  0.00    +0.000 A 
ATOM     33  C   UNL     1       5.429  15.278  17.859  0.00  0.00    +0.000 A 
ATOM     34  N   UNL     1       6.642  14.743  18.111  0.00  0.00    +0.000 NA
ATOM     35  C   UNL     1       7.102  14.860  19.374  0.00  0.00    +0.000 A 
ATOM     36  C   UNL     1       6.396  15.469  20.401  0.00  0.00    +0.000 A 
ENDBRANCH  30  31
ENDBRANCH  21  30
TORSDOF 3
ENDMDL
MODEL 4
REMARK VINA RESULT:      -6.7      2.490      7.390
REMARK  Name = 
REMARK  4 active torsions:
REMARK  status: ('A' for Active; 'I' for Inactive)
REMARK    1  A    between atoms: C_1  and  C_2
REMARK    2  A    between atoms: N_4  and  C_5
REMARK    3  A    between atoms: C_25  and  C_27
REMARK    4  A    between atoms: C_27  and  C_28
REMARK                            x       y       z     vdW  Elec       q    Type
REMARK                         _______ _______ _______ _____ _____    ______ ____
ROOT
ATOM      1  C   UNL     1      -3.988  12.555  21.399  0.00  0.00    +0.000 A 
ATOM      2  C   UNL     1      -3.453  12.702  20.119  0.00  0.00    +0.000 A 
ATOM      3  N   UNL     1      -2.154  12.472  19.799  0.00  0.00    +0.000 NA
ATOM      4  C   UNL     1      -1.345  12.047  20.794  0.00  0.00    +0.000 A 
ATOM      5  C   UNL     1      -1.777  11.881  22.111  0.00  0.00    +0.000 A 
ATOM      6  C   UNL     1      -3.113  12.172  22.415  0.00  0.00    +0.000 A 
ATOM      7  C   UNL     1      -0.840  11.307  23.141  0.00  0.00    +0.000 C 
ATOM      8  C   UNL     1      -0.573   9.824  22.870  0.00  0.00    +0.000 C 
ATOM      9  C   UNL     1       0.205   9.422  21.627  0.00  0.00    +0.000 A 
ATOM     10  C   UNL     1       0.639   8.075  21.590  0.00  0.00    +0.000 A 
ATOM     11  C   UNL     1       1.306   7.557  20.483  0.00  0.00    +0.000 A 
ATOM     12 CL   UNL     1       1.847   5.925  20.493  0.00  0.00    +0.000 Cl
ATOM     13  C   UNL     1       1.518   8.348  19.366  0.00  0.00    +0.000 A 
ATOM     14  C   UNL     1       1.070   9.670  19.370  0.00  0.00    +0.000 A 
ATOM     15  C   UNL     1       0.461  10.246  20.506  0.00  0.00    +0.000 A 
ATOM     16  C   UNL     1       0.046  11.678  20.433  0.00  0.00    +0.000 C 
ATOM     17  C   UNL     1       0.938  12.669  20.131  0.00  0.00    +0.000 C 
ATOM     18  C   UNL     1       2.429  12.469  19.874  0.00  0.00    +0.000 C 
ATOM     19  C   UNL     1       2.780  12.953  18.466  0.00  0.00    +0.000 C 
ATOM     20  N   UNL     1       2.439  14.369  18.314  0.00  0.00    +0.000 N 
ATOM     21  C   UNL     1       3.413  15.240  17.852  0.00  0.00    +0.000 C 
ATOM     22  O   UNL     1       4.552  14.852  17.573  0.00  0.00    +0.000 OA
ATOM     23  C   UNL     1       1.037  14.699  18.619  0.00  0.00    +0.000 C 
ATOM     24  C   UNL     1       0.600  14.151  19.992  0.00  0.00    +0.000 C 
ENDROOT
BRANCH   1  28
ATOM     25  C   UNL     1      -7.752  12.565  21.648  0.00  0.00    +0.000 C 
ATOM     26  C   UNL     1      -6.421  12.185  21.050  0.00  0.00    +0.000 C 
ATOM     27  O   UNL     1      -6.357  11.456  20.067  0.00  0.00    +0.000 OA
ATOM     28  N   UNL     1      -5.350  12.740  21.727  0.00  0.00    +0.000 N 
ATOM     29  H   UNL     1      -5.549  13.210  22.602  0.00  0.00    +0.000 HD
ENDBRANCH   1  28
BRANCH  21  30
ATOM     30  C   UNL     1       3.092  16.723  17.735  0.00  0.00    +0.000 C 
BRANCH  30  31
ATOM     31  C   UNL     1       2.595  17.351  19.017  0.00  0.00    +0.000 A 
ATOM     32  C   UNL     1       3.369  17.370  20.184  0.00  0.00    +0.000 A 
ATOM     33  C   UNL     1       2.870  18.006  21.311  0.00  0.00    +0.000 A 
ATOM     34  N   UNL     1       1.674  18.631  21.353  0.00  0.00    +0.000 NA
ATOM     35  C   UNL     1       0.955  18.631  20.212  0.00  0.00    +0.000 A 
ATOM     36  C   UNL     1       1.367  18.019  19.037  0.00  0.00    +0.000 A 
ENDBRANCH  30  31
ENDBRANCH  21  30
TORSDOF 3
ENDMDL
MODEL 5
REMARK VINA RESULT:      -6.6      2.407      7.359
REMARK  Name = 
REMARK  4 active torsions:
REMARK  status: ('A' for Active; 'I' for Inactive)
REMARK    1  A    between atoms: C_1  and  C_2
REMARK    2  A    between atoms: N_4  and  C_5
REMARK    3  A    between atoms: C_25  and  C_27
REMARK    4  A    between atoms: C_27  and  C_28
REMARK                            x       y       z     vdW  Elec       q    Type
REMARK                         _______ _______ _______ _____ _____    ______ ____
ROOT
ATOM      1  C   UNL     1      -4.185  12.832  21.568  0.00  0.00    +0.000 A 
ATOM      2  C   UNL     1      -3.661  12.922  20.279  0.00  0.00    +0.000 A 
ATOM      3  N   UNL     1      -2.367  12.668  19.955  0.00  0.00    +0.000 NA
ATOM      4  C   UNL     1      -1.552  12.277  20.959  0.00  0.00    +0.000 A 
ATOM      5  C   UNL     1      -1.971  12.169  22.285  0.00  0.00    +0.000 A 
ATOM      6  C   UNL     1      -3.302  12.483  22.590  0.00  0.00    +0.000 A 
ATOM      7  C   UNL     1      -1.029  11.630  23.329  0.00  0.00    +0.000 C 
ATOM      8  C   UNL     1      -0.777  10.134  23.117  0.00  0.00    +0.000 C 
ATOM      9  C   UNL     1      -0.014   9.675  21.884  0.00  0.00    +0.000 A 
ATOM     10  C   UNL     1       0.408   8.325  21.898  0.00  0.00    +0.000 A 
ATOM     11  C   UNL     1       1.059   7.756  20.806  0.00  0.00    +0.000 A 
ATOM     12 CL   UNL     1       1.587   6.121  20.878  0.00  0.00    +0.000 Cl
ATOM     13  C   UNL     1       1.266   8.499  19.655  0.00  0.00    +0.000 A 
ATOM     14  C   UNL     1       0.829   9.823  19.610  0.00  0.00    +0.000 A 
ATOM     15  C   UNL     1       0.236  10.451  20.727  0.00  0.00    +0.000 A 
ATOM     16  C   UNL     1      -0.167  11.882  20.600  0.00  0.00    +0.000 C 
ATOM     17  C   UNL     1       0.729  12.852  20.248  0.00  0.00    +0.000 C 
ATOM     18  C   UNL     1       2.216  12.629  19.985  0.00  0.00    +0.000 C 
ATOM     19  C   UNL     1       2.556  13.052  18.555  0.00  0.00    +0.000 C 
ATOM     20  N   UNL     1       2.225  14.464  18.348  0.00  0.00    +0.000 N 
ATOM     21  C   UNL     1       3.202  15.307  17.842  0.00  0.00    +0.000 C 
ATOM     22  O   UNL     1       4.334  14.898  17.567  0.00  0.00    +0.000 OA
ATOM     23  C   UNL     1       0.829  14.818  18.654  0.00  0.00    +0.000 C 
ATOM     24  C   UNL     1       0.402  14.331  20.052  0.00  0.00    +0.000 C 
ENDROOT
BRANCH   1  28
ATOM     25  C   UNL     1      -7.604  13.036  23.147  0.00  0.00    +0.000 C 
ATOM     26  C   UNL     1      -6.144  12.668  23.089  0.00  0.00    +0.000 C 
ATOM     27  O   UNL     1      -5.599  12.098  24.027  0.00  0.00    +0.000 OA
ATOM     28  N   UNL     1      -5.542  13.042  21.901  0.00  0.00    +0.000 N 
ATOM     29  H   UNL     1      -6.081  13.626  21.273  0.00  0.00    +0.000 HD
ENDBRANCH   1  28
BRANCH  21  30
ATOM     30  C   UNL     1       2.891  16.786  17.667  0.00  0.00    +0.000 C 
BRANCH  30  31
ATOM     31  C   UNL     1       2.386  17.464  18.920  0.00  0.00    +0.000 A 
ATOM     32  C   UNL     1       1.124  18.068  18.982  0.00  0.00    +0.000 A 
ATOM     33  C   UNL     1       0.705  18.631  20.178  0.00  0.00    +0.000 A 
ATOM     34  N   UNL     1       1.441  18.620  21.310  0.00  0.00    +0.000 NA
ATOM     35  C   UNL     1       2.640  18.007  21.243  0.00  0.00    +0.000 A 
ATOM     36  C   UNL     1       3.147  17.421  20.093  0.00  0.00    +0.000 A 
ENDBRANCH  30  31
ENDBRANCH  21  30
TORSDOF 3
ENDMDL
MODEL 6
REMARK VINA RESULT:      -6.6      1.408      1.685
REMARK  Name = 
REMARK  4 active torsions:
REMARK  status: ('A' for Active; 'I' for Inactive)
REMARK    1  A    between atoms: C_1  and  C_2
REMARK    2  A    between atoms: N_4  and  C_5
REMARK    3  A    between atoms: C_25  and  C_27
REMARK    4  A    between atoms: C_27  and  C_28
REMARK                            x       y       z     vdW  Elec       q    Type
REMARK                         _______ _______ _______ _____ _____    ______ ____
ROOT
ATOM      1  C   UNL     1       4.116  15.674  20.930  0.00  0.00    +0.000 A 
ATOM      2  C   UNL     1       3.630  14.999  22.049  0.00  0.00    +0.000 A 
ATOM      3  N   UNL     1       2.580  14.139  22.033  0.00  0.00    +0.000 NA
ATOM      4  C   UNL     1       1.994  13.913  20.837  0.00  0.00    +0.000 A 
ATOM      5  C   UNL     1       2.393  14.547  19.659  0.00  0.00    +0.000 A 
ATOM      6  C   UNL     1       3.450  15.463  19.721  0.00  0.00    +0.000 A 
ATOM      7  C   UNL     1       1.756  14.166  18.348  0.00  0.00    +0.000 C 
ATOM      8  C   UNL     1       2.178  12.756  17.925  0.00  0.00    +0.000 C 
ATOM      9  C   UNL     1       1.714  11.561  18.744  0.00  0.00    +0.000 A 
ATOM     10  C   UNL     1       1.916  10.297  18.143  0.00  0.00    +0.000 A 
ATOM     11  C   UNL     1       1.596   9.116  18.808  0.00  0.00    +0.000 A 
ATOM     12 CL   UNL     1       1.825   7.601  18.028  0.00  0.00    +0.000 Cl
ATOM     13  C   UNL     1       1.111   9.159  20.105  0.00  0.00    +0.000 A 
ATOM     14  C   UNL     1       0.934  10.396  20.727  0.00  0.00    +0.000 A 
ATOM     15  C   UNL     1       1.175  11.611  20.051  0.00  0.00    +0.000 A 
ATOM     16  C   UNL     1       0.923  12.887  20.783  0.00  0.00    +0.000 C 
ATOM     17  C   UNL     1      -0.297  13.173  21.328  0.00  0.00    +0.000 C 
ATOM     18  C   UNL     1      -1.536  12.286  21.237  0.00  0.00    +0.000 C 
ATOM     19  C   UNL     1      -1.998  11.898  22.642  0.00  0.00    +0.000 C 
ATOM     20  N   UNL     1      -2.306  13.096  23.427  0.00  0.00    +0.000 N 
ATOM     21  C   UNL     1      -3.541  13.182  24.051  0.00  0.00    +0.000 C 
ATOM     22  O   UNL     1      -4.380  12.280  23.957  0.00  0.00    +0.000 OA
ATOM     23  C   UNL     1      -1.206  14.071  23.516  0.00  0.00    +0.000 C 
ATOM     24  C   UNL     1      -0.637  14.428  22.129  0.00  0.00    +0.000 C 
ENDROOT
BRANCH   1  28
ATOM     25  C   UNL     1       7.516  17.291  20.706  0.00  0.00    +0.000 C 
ATOM     26  C   UNL     1       6.536  16.149  20.622  0.00  0.00    +0.000 C 
ATOM     27  O   UNL     1       6.904  15.023  20.306  0.00  0.00    +0.000 OA
ATOM     28  N   UNL     1       5.242  16.527  20.930  0.00  0.00    +0.000 N 
ATOM     29  H   UNL     1       5.063  17.518  21.040  0.00  0.00    +0.000 HD
ENDBRANCH   1  28
BRANCH  21  30
ATOM     30  C   UNL     1      -3.896  14.439  24.829  0.00  0.00    +0.000 C 
BRANCH  30  31
ATOM     31  C   UNL     1      -4.626  15.485  24.016  0.00  0.00    +0.000 A 
ATOM     32  C   UNL     1      -5.987  15.371  23.708  0.00  0.00    +0.000 A 
ATOM     33  C   UNL     1      -6.603  16.391  22.998  0.00  0.00    +0.000 A 
ATOM     34  N   UNL     1      -5.969  17.511  22.591  0.00  0.00    +0.000 NA
ATOM     35  C   UNL     1      -4.666  17.619  22.922  0.00  0.00    +0.000 A 
ATOM     36  C   UNL     1      -3.963  16.652  23.624  0.00  0.00    +0.000 A 
ENDBRANCH  30  31
ENDBRANCH  21  30
TORSDOF 3
ENDMDL
MODEL 7
REMARK VINA RESULT:      -6.5      5.114      8.640
REMARK  Name = 
REMARK  4 active torsions:
REMARK  status: ('A' for Active; 'I' for Inactive)
REMARK    1  A    between atoms: C_1  and  C_2
REMARK    2  A    between atoms: N_4  and  C_5
REMARK    3  A    between atoms: C_25  and  C_27
REMARK    4  A    between atoms: C_27  and  C_28
REMARK                            x       y       z     vdW  Elec       q    Type
REMARK                         _______ _______ _______ _____ _____    ______ ____
ROOT
ATOM      1  C   UNL     1       7.815  13.100  24.930  0.00  0.00    +0.000 A 
ATOM      2  C   UNL     1       6.965  12.527  23.985  0.00  0.00    +0.000 A 
ATOM      3  N   UNL     1       6.855  12.943  22.697  0.00  0.00    +0.000 NA
ATOM      4  C   UNL     1       7.650  13.966  22.315  0.00  0.00    +0.000 A 
ATOM      5  C   UNL     1       8.525  14.618  23.185  0.00  0.00    +0.000 A 
ATOM      6  C   UNL     1       8.579  14.193  24.519  0.00  0.00    +0.000 A 
ATOM      7  C   UNL     1       9.452  15.683  22.659  0.00  0.00    +0.000 C 
ATOM      8  C   UNL     1      10.536  15.071  21.767  0.00  0.00    +0.000 C 
ATOM      9  C   UNL     1      10.143  14.452  20.435  0.00  0.00    +0.000 A 
ATOM     10  C   UNL     1      11.217  14.158  19.561  0.00  0.00    +0.000 A 
ATOM     11  C   UNL     1      11.005  13.531  18.336  0.00  0.00    +0.000 A 
ATOM     12 CL   UNL     1      12.333  13.223  17.288  0.00  0.00    +0.000 Cl
ATOM     13  C   UNL     1       9.729  13.138  17.967  0.00  0.00    +0.000 A 
ATOM     14  C   UNL     1       8.661  13.391  18.829  0.00  0.00    +0.000 A 
ATOM     15  C   UNL     1       8.832  14.094  20.041  0.00  0.00    +0.000 A 
ATOM     16  C   UNL     1       7.627  14.352  20.883  0.00  0.00    +0.000 C 
ATOM     17  C   UNL     1       6.537  15.015  20.392  0.00  0.00    +0.000 C 
ATOM     18  C   UNL     1       6.416  15.598  18.987  0.00  0.00    +0.000 C 
ATOM     19  C   UNL     1       5.232  14.954  18.262  0.00  0.00    +0.000 C 
ATOM     20  N   UNL     1       3.991  15.190  19.003  0.00  0.00    +0.000 N 
ATOM     21  C   UNL     1       2.910  15.739  18.330  0.00  0.00    +0.000 C 
ATOM     22  O   UNL     1       2.973  16.033  17.132  0.00  0.00    +0.000 OA
ATOM     23  C   UNL     1       4.019  14.743  20.406  0.00  0.00    +0.000 C 
ATOM     24  C   UNL     1       5.247  15.287  21.161  0.00  0.00    +0.000 C 
ENDROOT
BRANCH   1  28
ATOM     25  C   UNL     1       7.500  12.159  28.569  0.00  0.00    +0.000 C 
ATOM     26  C   UNL     1       7.038  12.760  27.266  0.00  0.00    +0.000 C 
ATOM     27  O   UNL     1       5.936  13.289  27.171  0.00  0.00    +0.000 OA
ATOM     28  N   UNL     1       7.973  12.637  26.255  0.00  0.00    +0.000 N 
ATOM     29  H   UNL     1       8.782  12.057  26.442  0.00  0.00    +0.000 HD
ENDBRANCH   1  28
BRANCH  21  30
ATOM     30  C   UNL     1       1.629  16.036  19.095  0.00  0.00    +0.000 C 
BRANCH  30  31
ATOM     31  C   UNL     1       0.787  14.815  19.388  0.00  0.00    +0.000 A 
ATOM     32  C   UNL     1       0.679  13.751  18.483  0.00  0.00    +0.000 A 
ATOM     33  C   UNL     1      -0.073  12.641  18.838  0.00  0.00    +0.000 A 
ATOM     34  N   UNL     1      -0.705  12.510  20.024  0.00  0.00    +0.000 NA
ATOM     35  C   UNL     1      -0.565  13.529  20.896  0.00  0.00    +0.000 A 
ATOM     36  C   UNL     1       0.161  14.680  20.631  0.00  0.00    +0.000 A 
ENDBRANCH  30  31
ENDBRANCH  21  30
TORSDOF 3
ENDMDL
MODEL 8
REMARK VINA RESULT:      -6.5      4.134      9.500
REMARK  Name = 
REMARK  4 active torsions:
REMARK  status: ('A' for Active; 'I' for Inactive)
REMARK    1  A    between atoms: C_1  and  C_2
REMARK    2  A    between atoms: N_4  and  C_5
REMARK    3  A    between atoms: C_25  and  C_27
REMARK    4  A    between atoms: C_27  and  C_28
REMARK                            x       y       z     vdW  Elec       q    Type
REMARK                         _______ _______ _______ _____ _____    ______ ____
ROOT
ATOM      1  C   UNL     1      -3.743  12.680  22.900  0.00  0.00    +0.000 A 
ATOM      2  C   UNL     1      -2.671  11.966  23.436  0.00  0.00    +0.000 A 
ATOM      3  N   UNL     1      -1.548  11.634  22.749  0.00  0.00    +0.000 NA
ATOM      4  C   UNL     1      -1.470  12.054  21.467  0.00  0.00    +0.000 A 
ATOM      5  C   UNL     1      -2.491  12.761  20.831  0.00  0.00    +0.000 A 
ATOM      6  C   UNL     1      -3.655  13.047  21.557  0.00  0.00    +0.000 A 
ATOM      7  C   UNL     1      -2.286  13.282  19.433  0.00  0.00    +0.000 C 
ATOM      8  C   UNL     1      -1.266  14.423  19.419  0.00  0.00    +0.000 C 
ATOM      9  C   UNL     1       0.188  14.127  19.752  0.00  0.00    +0.000 A 
ATOM     10  C   UNL     1       1.103  15.165  19.457  0.00  0.00    +0.000 A 
ATOM     11  C   UNL     1       2.455  15.053  19.770  0.00  0.00    +0.000 A 
ATOM     12 CL   UNL     1       3.540  16.323  19.362  0.00  0.00    +0.000 Cl
ATOM     13  C   UNL     1       2.926  13.927  20.426  0.00  0.00    +0.000 A 
ATOM     14  C   UNL     1       2.034  12.905  20.754  0.00  0.00    +0.000 A 
ATOM     15  C   UNL     1       0.673  12.956  20.381  0.00  0.00    +0.000 A 
ATOM     16  C   UNL     1      -0.200  11.801  20.742  0.00  0.00    +0.000 C 
ATOM     17  C   UNL     1       0.093  10.527  20.343  0.00  0.00    +0.000 C 
ATOM     18  C   UNL     1       1.283  10.123  19.476  0.00  0.00    +0.000 C 
ATOM     19  C   UNL     1       2.164   9.132  20.237  0.00  0.00    +0.000 C 
ATOM     20  N   UNL     1       1.394   7.941  20.603  0.00  0.00    +0.000 N 
ATOM     21  C   UNL     1       1.894   6.695  20.258  0.00  0.00    +0.000 C 
ATOM     22  O   UNL     1       2.963   6.570  19.652  0.00  0.00    +0.000 OA
ATOM     23  C   UNL     1       0.170   8.214  21.375  0.00  0.00    +0.000 C 
ATOM     24  C   UNL     1      -0.714   9.280  20.698  0.00  0.00    +0.000 C 
ENDROOT
BRANCH   1  28
ATOM     25  C   UNL     1      -7.193  13.293  24.296  0.00  0.00    +0.000 C 
ATOM     26  C   UNL     1      -6.191  12.715  23.330  0.00  0.00    +0.000 C 
ATOM     27  O   UNL     1      -6.550  12.005  22.398  0.00  0.00    +0.000 OA
ATOM     28  N   UNL     1      -4.889  13.076  23.625  0.00  0.00    +0.000 N 
ATOM     29  H   UNL     1      -4.730  13.555  24.504  0.00  0.00    +0.000 HD
ENDBRANCH   1  28
BRANCH  21  30
ATOM     30  C   UNL     1       1.085   5.450  20.586  0.00  0.00    +0.000 C 
BRANCH  30  31
ATOM     31  C   UNL     1       1.638   4.177  19.986  0.00  0.00    +0.000 A 
ATOM     32  C   UNL     1       1.273   3.738  18.708  0.00  0.00    +0.000 A 
ATOM     33  C   UNL     1       1.856   2.586  18.201  0.00  0.00    +0.000 A 
ATOM     34  N   UNL     1       2.778   1.857  18.865  0.00  0.00    +0.000 NA
ATOM     35  C   UNL     1       3.142   2.311  20.082  0.00  0.00    +0.000 A 
ATOM     36  C   UNL     1       2.613   3.448  20.674  0.00  0.00    +0.000 A 
ENDBRANCH  30  31
ENDBRANCH  21  30
TORSDOF 3
ENDMDL
MODEL 9
REMARK VINA RESULT:      -6.5      1.150      1.542
REMARK  Name = 
REMARK  4 active torsions:
REMARK  status: ('A' for Active; 'I' for Inactive)
REMARK    1  A    between atoms: C_1  and  C_2
REMARK    2  A    between atoms: N_4  and  C_5
REMARK    3  A    between atoms: C_25  and  C_27
REMARK    4  A    between atoms: C_27  and  C_28
REMARK                            x       y       z     vdW  Elec       q    Type
REMARK                         _______ _______ _______ _____ _____    ______ ____
ROOT
ATOM      1  C   UNL     1       4.248  15.424  20.663  0.00  0.00    +0.000 A 
ATOM      2  C   UNL     1       3.765  14.797  21.811  0.00  0.00    +0.000 A 
ATOM      3  N   UNL     1       2.708  13.946  21.835  0.00  0.00    +0.000 NA
ATOM      4  C   UNL     1       2.110  13.681  20.653  0.00  0.00    +0.000 A 
ATOM      5  C   UNL     1       2.505  14.266  19.449  0.00  0.00    +0.000 A 
ATOM      6  C   UNL     1       3.571  15.174  19.469  0.00  0.00    +0.000 A 
ATOM      7  C   UNL     1       1.854  13.841  18.159  0.00  0.00    +0.000 C 
ATOM      8  C   UNL     1       2.261  12.413  17.786  0.00  0.00    +0.000 C 
ATOM      9  C   UNL     1       1.792  11.254  18.653  0.00  0.00    +0.000 A 
ATOM     10  C   UNL     1       1.979   9.966  18.099  0.00  0.00    +0.000 A 
ATOM     11  C   UNL     1       1.653   8.815  18.811  0.00  0.00    +0.000 A 
ATOM     12 CL   UNL     1       1.863   7.269  18.087  0.00  0.00    +0.000 Cl
ATOM     13  C   UNL     1       1.179   8.911  20.110  0.00  0.00    +0.000 A 
ATOM     14  C   UNL     1       1.018  10.172  20.685  0.00  0.00    +0.000 A 
ATOM     15  C   UNL     1       1.264  11.359  19.962  0.00  0.00    +0.000 A 
ATOM     16  C   UNL     1       1.030  12.664  20.647  0.00  0.00    +0.000 C 
ATOM     17  C   UNL     1      -0.184  12.981  21.190  0.00  0.00    +0.000 C 
ATOM     18  C   UNL     1      -1.431  12.103  21.142  0.00  0.00    +0.000 C 
ATOM     19  C   UNL     1      -1.885  11.772  22.565  0.00  0.00    +0.000 C 
ATOM     20  N   UNL     1      -2.175  13.002  23.306  0.00  0.00    +0.000 N 
ATOM     21  C   UNL     1      -3.404  13.122  23.936  0.00  0.00    +0.000 C 
ATOM     22  O   UNL     1      -4.252  12.226  23.882  0.00  0.00    +0.000 OA
ATOM     23  C   UNL     1      -1.066  13.969  23.349  0.00  0.00    +0.000 C 
ATOM     24  C   UNL     1      -0.506  14.268  21.945  0.00  0.00    +0.000 C 
ENDROOT
BRANCH   1  28
ATOM     25  C   UNL     1       6.771  18.222  20.849  0.00  0.00    +0.000 C 
ATOM     26  C   UNL     1       5.408  17.596  21.002  0.00  0.00    +0.000 C 
ATOM     27  O   UNL     1       4.460  18.246  21.426  0.00  0.00    +0.000 OA
ATOM     28  N   UNL     1       5.382  16.266  20.622  0.00  0.00    +0.000 N 
ATOM     29  H   UNL     1       6.271  15.825  20.421  0.00  0.00    +0.000 HD
ENDBRANCH   1  28
BRANCH  21  30
ATOM     30  C   UNL     1      -3.743  14.412  24.669  0.00  0.00    +0.000 C 
BRANCH  30  31
ATOM     31  C   UNL     1      -4.531  15.404  23.844  0.00  0.00    +0.000 A 
ATOM     32  C   UNL     1      -4.688  15.261  22.459  0.00  0.00    +0.000 A 
ATOM     33  C   UNL     1      -5.464  16.182  21.772  0.00  0.00    +0.000 A 
ATOM     34  N   UNL     1      -6.101  17.216  22.363  0.00  0.00    +0.000 NA
ATOM     35  C   UNL     1      -5.965  17.322  23.701  0.00  0.00    +0.000 A 
ATOM     36  C   UNL     1      -5.208  16.454  24.472  0.00  0.00    +0.000 A 
ENDBRANCH  30  31
ENDBRANCH  21  30
TORSDOF 3
ENDMDL
