MODEL 1
REMARK VINA RESULT:      -8.6      0.000      0.000
REMARK  Name = 
REMARK  8 active torsions:
REMARK  status: ('A' for Active; 'I' for Inactive)
REMARK    1  A    between atoms: C_2  and  C_3
REMARK    2  A    between atoms: C_3  and  C_4
REMARK    3  A    between atoms: C_9  and  N_10
REMARK    4  A    between atoms: N_10  and  C_11
REMARK    5  A    between atoms: C_11  and  C_12
REMARK    6  A    between atoms: C_12  and  C_15
REMARK    7  A    between atoms: N_23  and  C_24
REMARK    8  A    between atoms: C_24  and  C_25
REMARK                            x       y       z     vdW  Elec       q    Type
REMARK                         _______ _______ _______ _____ _____    ______ ____
ROOT
ATOM      1  C   UNL     1       6.743   5.254  17.610  0.00  0.00    +0.000 A 
ATOM      2  C   UNL     1       6.480   4.810  16.306  0.00  0.00    +0.000 A 
ATOM      3 CL   UNL     1       7.455   5.279  14.960  0.00  0.00    +0.000 Cl
ATOM      4  C   UNL     1       5.404   3.964  16.049  0.00  0.00    +0.000 A 
ATOM      5  C   UNL     1       4.586   3.546  17.084  0.00  0.00    +0.000 A 
ATOM      6  C   UNL     1       4.833   3.947  18.400  0.00  0.00    +0.000 A 
ATOM      7  N   UNL     1       5.927   4.816  18.657  0.00  0.00    +0.000 N 
ATOM      8  O   UNL     1       6.167   5.193  19.866  0.00  0.00    +0.000 OA
ENDROOT
BRANCH   6   9
ATOM      9  N   UNL     1       4.035   3.538  19.467  0.00  0.00    +0.000 N 
ATOM     10  H   UNL     1       4.524   2.934  20.130  0.00  0.00    +0.000 HD
BRANCH   9  11
ATOM     11  C   UNL     1       2.569   3.607  19.458  0.00  0.00    +0.000 C 
BRANCH  11  12
ATOM     12  C   UNL     1       1.968   4.623  20.475  0.00  0.00    +0.000 C 
ATOM     13  F   UNL     1       0.696   4.207  20.780  0.00  0.00    +0.000 F 
ATOM     14  F   UNL     1       2.652   4.563  21.659  0.00  0.00    +0.000 F 
BRANCH  12  15
ATOM     15  C   UNL     1       1.981   6.042  19.916  0.00  0.00    +0.000 A 
ATOM     16  C   UNL     1       1.501   7.093  20.697  0.00  0.00    +0.000 A 
ATOM     17  C   UNL     1       1.514   8.385  20.177  0.00  0.00    +0.000 A 
ATOM     18  C   UNL     1       2.022   8.604  18.903  0.00  0.00    +0.000 A 
ATOM     19  C   UNL     1       2.516   7.520  18.202  0.00  0.00    +0.000 A 
ATOM     20  N   UNL     1       2.511   6.256  18.677  0.00  0.00    +0.000 NA
ENDBRANCH  12  15
ENDBRANCH  11  12
ENDBRANCH   9  11
ENDBRANCH   6   9
BRANCH   1  21
ATOM     21  C   UNL     1       7.891   6.145  17.967  0.00  0.00    +0.000 C 
BRANCH  21  23
ATOM     22  O   UNL     1       6.625   7.949  16.990  0.00  0.00    +0.000 OA
ATOM     23  C   UNL     1       7.577   7.599  17.685  0.00  0.00    +0.000 C 
ATOM     24  N   UNL     1       8.444   8.483  18.270  0.00  0.00    +0.000 N 
ATOM     25  H   UNL     1       9.381   8.145  18.513  0.00  0.00    +0.000 HD
BRANCH  24  26
ATOM     26  C   UNL     1       8.310   9.915  18.091  0.00  0.00    +0.000 C 
BRANCH  26  27
ATOM     27  C   UNL     1       9.538  10.646  18.571  0.00  0.00    +0.000 A 
ATOM     28  N   UNL     1      10.409  11.098  17.621  0.00  0.00    +0.000 NA
ATOM     29  C   UNL     1      11.489  11.789  18.043  0.00  0.00    +0.000 A 
ATOM     30  C   UNL     1      11.748  12.071  19.374  0.00  0.00    +0.000 A 
ATOM     31  C   UNL     1      10.849  11.611  20.332  0.00  0.00    +0.000 A 
ATOM     32  C   UNL     1       9.731  10.894  19.924  0.00  0.00    +0.000 A 
ATOM     33  F   UNL     1       8.859  10.453  20.839  0.00  0.00    +0.000 F 
ENDBRANCH  26  27
ENDBRANCH  24  26
ENDBRANCH  21  23
ENDBRANCH   1  21
TORSDOF 8
ENDMDL
MODEL 2
REMARK VINA RESULT:      -8.5      1.250      1.567
REMARK  Name = 
REMARK  8 active torsions:
REMARK  status: ('A' for Active; 'I' for Inactive)
REMARK    1  A    between atoms: C_2  and  C_3
REMARK    2  A    between atoms: C_3  and  C_4
REMARK    3  A    between atoms: C_9  and  N_10
REMARK    4  A    between atoms: N_10  and  C_11
REMARK    5  A    between atoms: C_11  and  C_12
REMARK    6  A    between atoms: C_12  and  C_15
REMARK    7  A    between atoms: N_23  and  C_24
REMARK    8  A    between atoms: C_24  and  C_25
REMARK                            x       y       z     vdW  Elec       q    Type
REMARK                         _______ _______ _______ _____ _____    ______ ____
ROOT
ATOM      1  C   UNL     1       6.736   5.112  17.656  0.00  0.00    +0.000 A 
ATOM      2  C   UNL     1       6.495   4.653  16.353  0.00  0.00    +0.000 A 
ATOM      3 CL   UNL     1       7.480   5.122  15.015  0.00  0.00    +0.000 Cl
ATOM      4  C   UNL     1       5.432   3.792  16.091  0.00  0.00    +0.000 A 
ATOM      5  C   UNL     1       4.607   3.374  17.120  0.00  0.00    +0.000 A 
ATOM      6  C   UNL     1       4.833   3.789  18.435  0.00  0.00    +0.000 A 
ATOM      7  N   UNL     1       5.913   4.674  18.697  0.00  0.00    +0.000 N 
ATOM      8  O   UNL     1       6.134   5.064  19.905  0.00  0.00    +0.000 OA
ENDROOT
BRANCH   6   9
ATOM      9  N   UNL     1       4.027   3.380  19.496  0.00  0.00    +0.000 N 
ATOM     10  H   UNL     1       4.485   3.460  20.406  0.00  0.00    +0.000 HD
BRANCH   9  11
ATOM     11  C   UNL     1       2.826   2.553  19.332  0.00  0.00    +0.000 C 
BRANCH  11  12
ATOM     12  C   UNL     1       1.488   3.351  19.358  0.00  0.00    +0.000 C 
ATOM     13  F   UNL     1       0.766   2.991  18.248  0.00  0.00    +0.000 F 
ATOM     14  F   UNL     1       0.724   2.952  20.421  0.00  0.00    +0.000 F 
BRANCH  12  15
ATOM     15  C   UNL     1       1.739   4.855  19.408  0.00  0.00    +0.000 A 
ATOM     16  C   UNL     1       1.621   5.531  20.622  0.00  0.00    +0.000 A 
ATOM     17  C   UNL     1       1.849   6.904  20.658  0.00  0.00    +0.000 A 
ATOM     18  C   UNL     1       2.210   7.568  19.492  0.00  0.00    +0.000 A 
ATOM     19  C   UNL     1       2.346   6.826  18.334  0.00  0.00    +0.000 A 
ATOM     20  N   UNL     1       2.124   5.495  18.267  0.00  0.00    +0.000 NA
ENDBRANCH  12  15
ENDBRANCH  11  12
ENDBRANCH   9  11
ENDBRANCH   6   9
BRANCH   1  21
ATOM     21  C   UNL     1       7.870   6.020  18.018  0.00  0.00    +0.000 C 
BRANCH  21  23
ATOM     22  O   UNL     1       6.600   7.788  16.983  0.00  0.00    +0.000 OA
ATOM     23  C   UNL     1       7.558   7.462  17.681  0.00  0.00    +0.000 C 
ATOM     24  N   UNL     1       8.435   8.365  18.220  0.00  0.00    +0.000 N 
ATOM     25  H   UNL     1       9.373   8.034  18.466  0.00  0.00    +0.000 HD
BRANCH  24  26
ATOM     26  C   UNL     1       8.305   9.790  17.984  0.00  0.00    +0.000 C 
BRANCH  26  27
ATOM     27  C   UNL     1       9.206  10.583  18.896  0.00  0.00    +0.000 A 
ATOM     28  N   UNL     1       8.865  10.642  20.217  0.00  0.00    +0.000 NA
ATOM     29  C   UNL     1       9.691  11.316  21.045  0.00  0.00    +0.000 A 
ATOM     30  C   UNL     1      10.859  11.932  20.629  0.00  0.00    +0.000 A 
ATOM     31  C   UNL     1      11.199  11.859  19.281  0.00  0.00    +0.000 A 
ATOM     32  C   UNL     1      10.364  11.174  18.408  0.00  0.00    +0.000 A 
ATOM     33  F   UNL     1      10.688  11.094  17.110  0.00  0.00    +0.000 F 
ENDBRANCH  26  27
ENDBRANCH  24  26
ENDBRANCH  21  23
ENDBRANCH   1  21
TORSDOF 8
ENDMDL
MODEL 3
REMARK VINA RESULT:      -8.4      3.470      5.573
REMARK  Name = 
REMARK  8 active torsions:
REMARK  status: ('A' for Active; 'I' for Inactive)
REMARK    1  A    between atoms: C_2  and  C_3
REMARK    2  A    between atoms: C_3  and  C_4
REMARK    3  A    between atoms: C_9  and  N_10
REMARK    4  A    between atoms: N_10  and  C_11
REMARK    5  A    between atoms: C_11  and  C_12
REMARK    6  A    between atoms: C_12  and  C_15
REMARK    7  A    between atoms: N_23  and  C_24
REMARK    8  A    between atoms: C_24  and  C_25
REMARK                            x       y       z     vdW  Elec       q    Type
REMARK                         _______ _______ _______ _____ _____    ______ ____
ROOT
ATOM      1  C   UNL     1       2.217   4.542  18.416  0.00  0.00    +0.000 A 
ATOM      2  C   UNL     1       1.688   3.658  19.367  0.00  0.00    +0.000 A 
ATOM      3 CL   UNL     1       1.467   1.978  19.039  0.00  0.00    +0.000 Cl
ATOM      4  C   UNL     1       1.316   4.115  20.629  0.00  0.00    +0.000 A 
ATOM      5  C   UNL     1       1.471   5.450  20.959  0.00  0.00    +0.000 A 
ATOM      6  C   UNL     1       2.019   6.356  20.046  0.00  0.00    +0.000 A 
ATOM      7  N   UNL     1       2.391   5.887  18.757  0.00  0.00    +0.000 N 
ATOM      8  O   UNL     1       2.898   6.710  17.905  0.00  0.00    +0.000 OA
ENDROOT
BRANCH   6   9
ATOM      9  N   UNL     1       2.198   7.704  20.348  0.00  0.00    +0.000 N 
ATOM     10  H   UNL     1       3.034   7.886  20.906  0.00  0.00    +0.000 HD
BRANCH   9  11
ATOM     11  C   UNL     1       1.131   8.708  20.248  0.00  0.00    +0.000 C 
BRANCH  11  12
ATOM     12  C   UNL     1       0.370   8.970  21.581  0.00  0.00    +0.000 C 
ATOM     13  F   UNL     1      -0.581   7.989  21.719  0.00  0.00    +0.000 F 
ATOM     14  F   UNL     1       1.213   8.796  22.645  0.00  0.00    +0.000 F 
BRANCH  12  15
ATOM     15  C   UNL     1      -0.248  10.364  21.604  0.00  0.00    +0.000 A 
ATOM     16  C   UNL     1      -0.670  10.948  20.410  0.00  0.00    +0.000 A 
ATOM     17  C   UNL     1      -1.230  12.223  20.440  0.00  0.00    +0.000 A 
ATOM     18  C   UNL     1      -1.378  12.877  21.656  0.00  0.00    +0.000 A 
ATOM     19  C   UNL     1      -0.973  12.221  22.804  0.00  0.00    +0.000 A 
ATOM     20  N   UNL     1      -0.420  10.988  22.805  0.00  0.00    +0.000 NA
ENDBRANCH  12  15
ENDBRANCH  11  12
ENDBRANCH   9  11
ENDBRANCH   6   9
BRANCH   1  21
ATOM     21  C   UNL     1       2.660   4.122  17.049  0.00  0.00    +0.000 C 
BRANCH  21  23
ATOM     22  O   UNL     1       4.739   3.060  17.648  0.00  0.00    +0.000 OA
ATOM     23  C   UNL     1       4.159   3.920  16.988  0.00  0.00    +0.000 C 
ATOM     24  N   UNL     1       4.805   4.775  16.135  0.00  0.00    +0.000 N 
ATOM     25  H   UNL     1       4.346   5.663  15.910  0.00  0.00    +0.000 HD
BRANCH  24  26
ATOM     26  C   UNL     1       6.244   4.741  15.966  0.00  0.00    +0.000 C 
BRANCH  26  27
ATOM     27  C   UNL     1       6.930   5.721  16.883  0.00  0.00    +0.000 A 
ATOM     28  N   UNL     1       6.857   7.044  16.554  0.00  0.00    +0.000 NA
ATOM     29  C   UNL     1       7.432   7.929  17.394  0.00  0.00    +0.000 A 
ATOM     30  C   UNL     1       8.076   7.568  18.566  0.00  0.00    +0.000 A 
ATOM     31  C   UNL     1       8.138   6.217  18.894  0.00  0.00    +0.000 A 
ATOM     32  C   UNL     1       7.556   5.285  18.044  0.00  0.00    +0.000 A 
ATOM     33  F   UNL     1       7.606   3.983  18.356  0.00  0.00    +0.000 F 
ENDBRANCH  26  27
ENDBRANCH  24  26
ENDBRANCH  21  23
ENDBRANCH   1  21
TORSDOF 8
ENDMDL
MODEL 4
REMARK VINA RESULT:      -8.2      0.707      1.091
REMARK  Name = 
REMARK  8 active torsions:
REMARK  status: ('A' for Active; 'I' for Inactive)
REMARK    1  A    between atoms: C_2  and  C_3
REMARK    2  A    between atoms: C_3  and  C_4
REMARK    3  A    between atoms: C_9  and  N_10
REMARK    4  A    between atoms: N_10  and  C_11
REMARK    5  A    between atoms: C_11  and  C_12
REMARK    6  A    between atoms: C_12  and  C_15
REMARK    7  A    between atoms: N_23  and  C_24
REMARK    8  A    between atoms: C_24  and  C_25
REMARK                            x       y       z     vdW  Elec       q    Type
REMARK                         _______ _______ _______ _____ _____    ______ ____
ROOT
ATOM      1  C   UNL     1       6.704   5.247  17.638  0.00  0.00    +0.000 A 
ATOM      2  C   UNL     1       6.367   4.801  16.352  0.00  0.00    +0.000 A 
ATOM      3 CL   UNL     1       7.266   5.265  14.953  0.00  0.00    +0.000 Cl
ATOM      4  C   UNL     1       5.277   3.958  16.158  0.00  0.00    +0.000 A 
ATOM      5  C   UNL     1       4.516   3.545  17.238  0.00  0.00    +0.000 A 
ATOM      6  C   UNL     1       4.838   3.947  18.538  0.00  0.00    +0.000 A 
ATOM      7  N   UNL     1       5.947   4.814  18.730  0.00  0.00    +0.000 N 
ATOM      8  O   UNL     1       6.255   5.192  19.923  0.00  0.00    +0.000 OA
ENDROOT
BRANCH   6   9
ATOM      9  N   UNL     1       4.100   3.543  19.648  0.00  0.00    +0.000 N 
ATOM     10  H   UNL     1       3.928   2.536  19.674  0.00  0.00    +0.000 HD
BRANCH   9  11
ATOM     11  C   UNL     1       3.305   4.460  20.474  0.00  0.00    +0.000 C 
BRANCH  11  12
ATOM     12  C   UNL     1       1.962   4.909  19.823  0.00  0.00    +0.000 C 
ATOM     13  F   UNL     1       1.714   4.076  18.761  0.00  0.00    +0.000 F 
ATOM     14  F   UNL     1       0.925   4.694  20.690  0.00  0.00    +0.000 F 
BRANCH  12  15
ATOM     15  C   UNL     1       2.014   6.372  19.396  0.00  0.00    +0.000 A 
ATOM     16  C   UNL     1       2.504   6.702  18.132  0.00  0.00    +0.000 A 
ATOM     17  C   UNL     1       2.550   8.041  17.752  0.00  0.00    +0.000 A 
ATOM     18  C   UNL     1       2.088   9.017  18.626  0.00  0.00    +0.000 A 
ATOM     19  C   UNL     1       1.580   8.612  19.846  0.00  0.00    +0.000 A 
ATOM     20  N   UNL     1       1.529   7.323  20.245  0.00  0.00    +0.000 NA
ENDBRANCH  12  15
ENDBRANCH  11  12
ENDBRANCH   9  11
ENDBRANCH   6   9
BRANCH   1  21
ATOM     21  C   UNL     1       7.874   6.135  17.929  0.00  0.00    +0.000 C 
BRANCH  21  23
ATOM     22  O   UNL     1       6.553   7.948  17.046  0.00  0.00    +0.000 OA
ATOM     23  C   UNL     1       7.541   7.592  17.684  0.00  0.00    +0.000 C 
ATOM     24  N   UNL     1       8.435   8.470  18.235  0.00  0.00    +0.000 N 
ATOM     25  H   UNL     1       9.385   8.132  18.424  0.00  0.00    +0.000 HD
BRANCH  24  26
ATOM     26  C   UNL     1       8.289   9.904  18.083  0.00  0.00    +0.000 C 
BRANCH  26  27
ATOM     27  C   UNL     1       9.501  10.639  18.598  0.00  0.00    +0.000 A 
ATOM     28  N   UNL     1      10.383  11.118  17.673  0.00  0.00    +0.000 NA
ATOM     29  C   UNL     1      11.448  11.812  18.127  0.00  0.00    +0.000 A 
ATOM     30  C   UNL     1      11.681  12.070  19.467  0.00  0.00    +0.000 A 
ATOM     31  C   UNL     1      10.770  11.582  20.400  0.00  0.00    +0.000 A 
ATOM     32  C   UNL     1       9.668  10.861  19.959  0.00  0.00    +0.000 A 
ATOM     33  F   UNL     1       8.784  10.393  20.850  0.00  0.00    +0.000 F 
ENDBRANCH  26  27
ENDBRANCH  24  26
ENDBRANCH  21  23
ENDBRANCH   1  21
TORSDOF 8
ENDMDL
MODEL 5
REMARK VINA RESULT:      -8.1      1.224      1.630
REMARK  Name = 
REMARK  8 active torsions:
REMARK  status: ('A' for Active; 'I' for Inactive)
REMARK    1  A    between atoms: C_2  and  C_3
REMARK    2  A    between atoms: C_3  and  C_4
REMARK    3  A    between atoms: C_9  and  N_10
REMARK    4  A    between atoms: N_10  and  C_11
REMARK    5  A    between atoms: C_11  and  C_12
REMARK    6  A    between atoms: C_12  and  C_15
REMARK    7  A    between atoms: N_23  and  C_24
REMARK    8  A    between atoms: C_24  and  C_25
REMARK                            x       y       z     vdW  Elec       q    Type
REMARK                         _______ _______ _______ _____ _____    ______ ____
ROOT
ATOM      1  C   UNL     1       6.692   5.153  17.628  0.00  0.00    +0.000 A 
ATOM      2  C   UNL     1       6.390   4.691  16.339  0.00  0.00    +0.000 A 
ATOM      3 CL   UNL     1       7.332   5.131  14.960  0.00  0.00    +0.000 Cl
ATOM      4  C   UNL     1       5.301   3.851  16.124  0.00  0.00    +0.000 A 
ATOM      5  C   UNL     1       4.508   3.457  17.187  0.00  0.00    +0.000 A 
ATOM      6  C   UNL     1       4.793   3.875  18.490  0.00  0.00    +0.000 A 
ATOM      7  N   UNL     1       5.901   4.739  18.704  0.00  0.00    +0.000 N 
ATOM      8  O   UNL     1       6.177   5.132  19.899  0.00  0.00    +0.000 OA
ENDROOT
BRANCH   6   9
ATOM      9  N   UNL     1       4.021   3.490  19.584  0.00  0.00    +0.000 N 
ATOM     10  H   UNL     1       3.756   2.504  19.565  0.00  0.00    +0.000 HD
BRANCH   9  11
ATOM     11  C   UNL     1       3.315   4.438  20.455  0.00  0.00    +0.000 C 
BRANCH  11  12
ATOM     12  C   UNL     1       1.954   4.940  19.887  0.00  0.00    +0.000 C 
ATOM     13  F   UNL     1       1.551   4.051  18.922  0.00  0.00    +0.000 F 
ATOM     14  F   UNL     1       0.988   4.873  20.854  0.00  0.00    +0.000 F 
BRANCH  12  15
ATOM     15  C   UNL     1       2.070   6.358  19.338  0.00  0.00    +0.000 A 
ATOM     16  C   UNL     1       2.605   6.561  18.065  0.00  0.00    +0.000 A 
ATOM     17  C   UNL     1       2.710   7.859  17.574  0.00  0.00    +0.000 A 
ATOM     18  C   UNL     1       2.261   8.922  18.347  0.00  0.00    +0.000 A 
ATOM     19  C   UNL     1       1.706   8.642  19.582  0.00  0.00    +0.000 A 
ATOM     20  N   UNL     1       1.598   7.395  20.088  0.00  0.00    +0.000 NA
ENDBRANCH  12  15
ENDBRANCH  11  12
ENDBRANCH   9  11
ENDBRANCH   6   9
BRANCH   1  21
ATOM     21  C   UNL     1       7.858   6.039  17.940  0.00  0.00    +0.000 C 
BRANCH  21  23
ATOM     22  O   UNL     1       6.628   7.824  16.886  0.00  0.00    +0.000 OA
ATOM     23  C   UNL     1       7.560   7.487  17.614  0.00  0.00    +0.000 C 
ATOM     24  N   UNL     1       8.416   8.381  18.199  0.00  0.00    +0.000 N 
ATOM     25  H   UNL     1       9.344   8.044  18.475  0.00  0.00    +0.000 HD
BRANCH  24  26
ATOM     26  C   UNL     1       8.296   9.809  17.981  0.00  0.00    +0.000 C 
BRANCH  26  27
ATOM     27  C   UNL     1       9.215  10.584  18.890  0.00  0.00    +0.000 A 
ATOM     28  N   UNL     1       8.867  10.669  20.207  0.00  0.00    +0.000 NA
ATOM     29  C   UNL     1       9.708  11.326  21.034  0.00  0.00    +0.000 A 
ATOM     30  C   UNL     1      10.898  11.900  20.620  0.00  0.00    +0.000 A 
ATOM     31  C   UNL     1      11.244  11.801  19.275  0.00  0.00    +0.000 A 
ATOM     32  C   UNL     1      10.394  11.133  18.403  0.00  0.00    +0.000 A 
ATOM     33  F   UNL     1      10.724  11.028  17.109  0.00  0.00    +0.000 F 
ENDBRANCH  26  27
ENDBRANCH  24  26
ENDBRANCH  21  23
ENDBRANCH   1  21
TORSDOF 8
ENDMDL
MODEL 6
REMARK VINA RESULT:      -8.1      3.701      5.790
REMARK  Name = 
REMARK  8 active torsions:
REMARK  status: ('A' for Active; 'I' for Inactive)
REMARK    1  A    between atoms: C_2  and  C_3
REMARK    2  A    between atoms: C_3  and  C_4
REMARK    3  A    between atoms: C_9  and  N_10
REMARK    4  A    between atoms: N_10  and  C_11
REMARK    5  A    between atoms: C_11  and  C_12
REMARK    6  A    between atoms: C_12  and  C_15
REMARK    7  A    between atoms: N_23  and  C_24
REMARK    8  A    between atoms: C_24  and  C_25
REMARK                            x       y       z     vdW  Elec       q    Type
REMARK                         _______ _______ _______ _____ _____    ______ ____
ROOT
ATOM      1  C   UNL     1       1.996   4.384  18.558  0.00  0.00    +0.000 A 
ATOM      2  C   UNL     1       1.549   3.598  19.630  0.00  0.00    +0.000 A 
ATOM      3 CL   UNL     1       1.289   1.898  19.480  0.00  0.00    +0.000 Cl
ATOM      4  C   UNL     1       1.295   4.174  20.872  0.00  0.00    +0.000 A 
ATOM      5  C   UNL     1       1.487   5.531  21.061  0.00  0.00    +0.000 A 
ATOM      6  C   UNL     1       1.956   6.341  20.023  0.00  0.00    +0.000 A 
ATOM      7  N   UNL     1       2.208   5.751  18.755  0.00  0.00    +0.000 N 
ATOM      8  O   UNL     1       2.641   6.485  17.790  0.00  0.00    +0.000 OA
ENDROOT
BRANCH   6   9
ATOM      9  N   UNL     1       2.170   7.709  20.182  0.00  0.00    +0.000 N 
ATOM     10  H   UNL     1       3.091   7.933  20.561  0.00  0.00    +0.000 HD
BRANCH   9  11
ATOM     11  C   UNL     1       1.090   8.704  20.201  0.00  0.00    +0.000 C 
BRANCH  11  12
ATOM     12  C   UNL     1       0.440   8.917  21.601  0.00  0.00    +0.000 C 
ATOM     13  F   UNL     1      -0.630   8.062  21.699  0.00  0.00    +0.000 F 
ATOM     14  F   UNL     1       1.302   8.518  22.585  0.00  0.00    +0.000 F 
BRANCH  12  15
ATOM     15  C   UNL     1       0.023  10.370  21.805  0.00  0.00    +0.000 A 
ATOM     16  C   UNL     1       0.532  11.356  20.959  0.00  0.00    +0.000 A 
ATOM     17  C   UNL     1       0.149  12.680  21.155  0.00  0.00    +0.000 A 
ATOM     18  C   UNL     1      -0.747  12.990  22.170  0.00  0.00    +0.000 A 
ATOM     19  C   UNL     1      -1.240  11.956  22.944  0.00  0.00    +0.000 A 
ATOM     20  N   UNL     1      -0.881  10.664  22.783  0.00  0.00    +0.000 NA
ENDBRANCH  12  15
ENDBRANCH  11  12
ENDBRANCH   9  11
ENDBRANCH   6   9
BRANCH   1  21
ATOM     21  C   UNL     1       2.312   3.833  17.202  0.00  0.00    +0.000 C 
BRANCH  21  23
ATOM     22  O   UNL     1       4.198   2.347  17.411  0.00  0.00    +0.000 OA
ATOM     23  C   UNL     1       3.772   3.452  17.082  0.00  0.00    +0.000 C 
ATOM     24  N   UNL     1       4.569   4.444  16.576  0.00  0.00    +0.000 N 
ATOM     25  H   UNL     1       4.245   5.412  16.666  0.00  0.00    +0.000 HD
BRANCH  24  26
ATOM     26  C   UNL     1       5.999   4.265  16.412  0.00  0.00    +0.000 C 
BRANCH  26  27
ATOM     27  C   UNL     1       6.776   5.226  17.275  0.00  0.00    +0.000 A 
ATOM     28  N   UNL     1       7.467   4.702  18.330  0.00  0.00    +0.000 NA
ATOM     29  C   UNL     1       8.199   5.552  19.081  0.00  0.00    +0.000 A 
ATOM     30  C   UNL     1       8.292   6.911  18.830  0.00  0.00    +0.000 A 
ATOM     31  C   UNL     1       7.588   7.431  17.748  0.00  0.00    +0.000 A 
ATOM     32  C   UNL     1       6.825   6.578  16.961  0.00  0.00    +0.000 A 
ATOM     33  F   UNL     1       6.150   7.070  15.915  0.00  0.00    +0.000 F 
ENDBRANCH  26  27
ENDBRANCH  24  26
ENDBRANCH  21  23
ENDBRANCH   1  21
TORSDOF 8
ENDMDL
MODEL 7
REMARK VINA RESULT:      -8.0      3.981      6.066
REMARK  Name = 
REMARK  8 active torsions:
REMARK  status: ('A' for Active; 'I' for Inactive)
REMARK    1  A    between atoms: C_2  and  C_3
REMARK    2  A    between atoms: C_3  and  C_4
REMARK    3  A    between atoms: C_9  and  N_10
REMARK    4  A    between atoms: N_10  and  C_11
REMARK    5  A    between atoms: C_11  and  C_12
REMARK    6  A    between atoms: C_12  and  C_15
REMARK    7  A    between atoms: N_23  and  C_24
REMARK    8  A    between atoms: C_24  and  C_25
REMARK                            x       y       z     vdW  Elec       q    Type
REMARK                         _______ _______ _______ _____ _____    ______ ____
ROOT
ATOM      1  C   UNL     1       2.016   4.465  18.576  0.00  0.00    +0.000 A 
ATOM      2  C   UNL     1       1.523   3.912  19.766  0.00  0.00    +0.000 A 
ATOM      3 CL   UNL     1       1.257   2.217  19.953  0.00  0.00    +0.000 Cl
ATOM      4  C   UNL     1       1.224   4.728  20.855  0.00  0.00    +0.000 A 
ATOM      5  C   UNL     1       1.418   6.095  20.773  0.00  0.00    +0.000 A 
ATOM      6  C   UNL     1       1.933   6.679  19.611  0.00  0.00    +0.000 A 
ATOM      7  N   UNL     1       2.230   5.844  18.501  0.00  0.00    +0.000 N 
ATOM      8  O   UNL     1       2.707   6.368  17.424  0.00  0.00    +0.000 OA
ENDROOT
BRANCH   6   9
ATOM      9  N   UNL     1       2.150   8.050  19.498  0.00  0.00    +0.000 N 
ATOM     10  H   UNL     1       3.140   8.303  19.477  0.00  0.00    +0.000 HD
BRANCH   9  11
ATOM     11  C   UNL     1       1.125   9.062  19.784  0.00  0.00    +0.000 C 
BRANCH  11  12
ATOM     12  C   UNL     1       1.005  10.177  18.702  0.00  0.00    +0.000 C 
ATOM     13  F   UNL     1       1.764  11.243  19.116  0.00  0.00    +0.000 F 
ATOM     14  F   UNL     1       1.586   9.763  17.535  0.00  0.00    +0.000 F 
BRANCH  12  15
ATOM     15  C   UNL     1      -0.449  10.574  18.471  0.00  0.00    +0.000 A 
ATOM     16  C   UNL     1      -1.237   9.818  17.603  0.00  0.00    +0.000 A 
ATOM     17  C   UNL     1      -2.564  10.189  17.396  0.00  0.00    +0.000 A 
ATOM     18  C   UNL     1      -3.080  11.287  18.072  0.00  0.00    +0.000 A 
ATOM     19  C   UNL     1      -2.251  11.965  18.946  0.00  0.00    +0.000 A 
ATOM     20  N   UNL     1      -0.960  11.633  19.162  0.00  0.00    +0.000 NA
ENDBRANCH  12  15
ENDBRANCH  11  12
ENDBRANCH   9  11
ENDBRANCH   6   9
BRANCH   1  21
ATOM     21  C   UNL     1       2.382   3.651  17.373  0.00  0.00    +0.000 C 
BRANCH  21  23
ATOM     22  O   UNL     1       4.414   2.526  18.017  0.00  0.00    +0.000 OA
ATOM     23  C   UNL     1       3.869   3.377  17.317  0.00  0.00    +0.000 C 
ATOM     24  N   UNL     1       4.549   4.159  16.421  0.00  0.00    +0.000 N 
ATOM     25  H   UNL     1       4.130   5.056  16.154  0.00  0.00    +0.000 HD
BRANCH  24  26
ATOM     26  C   UNL     1       5.984   4.051  16.249  0.00  0.00    +0.000 C 
BRANCH  26  27
ATOM     27  C   UNL     1       6.719   5.037  17.121  0.00  0.00    +0.000 A 
ATOM     28  N   UNL     1       7.435   4.534  18.169  0.00  0.00    +0.000 NA
ATOM     29  C   UNL     1       8.129   5.409  18.928  0.00  0.00    +0.000 A 
ATOM     30  C   UNL     1       8.160   6.773  18.691  0.00  0.00    +0.000 A 
ATOM     31  C   UNL     1       7.430   7.272  17.616  0.00  0.00    +0.000 A 
ATOM     32  C   UNL     1       6.706   6.393  16.822  0.00  0.00    +0.000 A 
ATOM     33  F   UNL     1       6.007   6.865  15.781  0.00  0.00    +0.000 F 
ENDBRANCH  26  27
ENDBRANCH  24  26
ENDBRANCH  21  23
ENDBRANCH   1  21
TORSDOF 8
ENDMDL
MODEL 8
REMARK VINA RESULT:      -8.0      3.847      7.058
REMARK  Name = 
REMARK  8 active torsions:
REMARK  status: ('A' for Active; 'I' for Inactive)
REMARK    1  A    between atoms: C_2  and  C_3
REMARK    2  A    between atoms: C_3  and  C_4
REMARK    3  A    between atoms: C_9  and  N_10
REMARK    4  A    between atoms: N_10  and  C_11
REMARK    5  A    between atoms: C_11  and  C_12
REMARK    6  A    between atoms: C_12  and  C_15
REMARK    7  A    between atoms: N_23  and  C_24
REMARK    8  A    between atoms: C_24  and  C_25
REMARK                            x       y       z     vdW  Elec       q    Type
REMARK                         _______ _______ _______ _____ _____    ______ ____
ROOT
ATOM      1  C   UNL     1       3.271   4.181  19.686  0.00  0.00    +0.000 A 
ATOM      2  C   UNL     1       2.887   2.865  19.979  0.00  0.00    +0.000 A 
ATOM      3 CL   UNL     1       2.274   2.408  21.527  0.00  0.00    +0.000 Cl
ATOM      4  C   UNL     1       2.991   1.865  19.014  0.00  0.00    +0.000 A 
ATOM      5  C   UNL     1       3.470   2.166  17.752  0.00  0.00    +0.000 A 
ATOM      6  C   UNL     1       3.838   3.472  17.415  0.00  0.00    +0.000 A 
ATOM      7  N   UNL     1       3.737   4.487  18.404  0.00  0.00    +0.000 N 
ATOM      8  O   UNL     1       4.072   5.695  18.108  0.00  0.00    +0.000 OA
ENDROOT
BRANCH   6   9
ATOM      9  N   UNL     1       4.316   3.810  16.151  0.00  0.00    +0.000 N 
ATOM     10  H   UNL     1       3.580   3.877  15.445  0.00  0.00    +0.000 HD
BRANCH   9  11
ATOM     11  C   UNL     1       5.724   3.691  15.755  0.00  0.00    +0.000 C 
BRANCH  11  12
ATOM     12  C   UNL     1       6.409   5.046  15.403  0.00  0.00    +0.000 C 
ATOM     13  F   UNL     1       7.357   4.798  14.442  0.00  0.00    +0.000 F 
ATOM     14  F   UNL     1       5.509   5.884  14.802  0.00  0.00    +0.000 F 
BRANCH  12  15
ATOM     15  C   UNL     1       7.014   5.701  16.640  0.00  0.00    +0.000 A 
ATOM     16  C   UNL     1       7.397   4.906  17.720  0.00  0.00    +0.000 A 
ATOM     17  C   UNL     1       7.946   5.513  18.847  0.00  0.00    +0.000 A 
ATOM     18  C   UNL     1       8.121   6.891  18.865  0.00  0.00    +0.000 A 
ATOM     19  C   UNL     1       7.754   7.611  17.743  0.00  0.00    +0.000 A 
ATOM     20  N   UNL     1       7.213   7.050  16.639  0.00  0.00    +0.000 NA
ENDBRANCH  12  15
ENDBRANCH  11  12
ENDBRANCH   9  11
ENDBRANCH   6   9
BRANCH   1  21
ATOM     21  C   UNL     1       3.167   5.312  20.662  0.00  0.00    +0.000 C 
BRANCH  21  23
ATOM     22  O   UNL     1       0.762   5.219  20.535  0.00  0.00    +0.000 OA
ATOM     23  C   UNL     1       1.773   5.902  20.684  0.00  0.00    +0.000 C 
ATOM     24  N   UNL     1       1.742   7.256  20.885  0.00  0.00    +0.000 N 
ATOM     25  H   UNL     1       2.579   7.796  20.642  0.00  0.00    +0.000 HD
BRANCH  24  26
ATOM     26  C   UNL     1       0.495   7.995  20.913  0.00  0.00    +0.000 C 
BRANCH  26  27
ATOM     27  C   UNL     1       0.696   9.429  20.495  0.00  0.00    +0.000 A 
ATOM     28  N   UNL     1       1.034   9.661  19.193  0.00  0.00    +0.000 NA
ATOM     29  C   UNL     1       1.174  10.945  18.803  0.00  0.00    +0.000 A 
ATOM     30  C   UNL     1       0.982  12.028  19.645  0.00  0.00    +0.000 A 
ATOM     31  C   UNL     1       0.632  11.779  20.969  0.00  0.00    +0.000 A 
ATOM     32  C   UNL     1       0.484  10.465  21.396  0.00  0.00    +0.000 A 
ATOM     33  F   UNL     1       0.141  10.218  22.667  0.00  0.00    +0.000 F 
ENDBRANCH  26  27
ENDBRANCH  24  26
ENDBRANCH  21  23
ENDBRANCH   1  21
TORSDOF 8
ENDMDL
MODEL 9
REMARK VINA RESULT:      -8.0      5.640      9.887
REMARK  Name = 
REMARK  8 active torsions:
REMARK  status: ('A' for Active; 'I' for Inactive)
REMARK    1  A    between atoms: C_2  and  C_3
REMARK    2  A    between atoms: C_3  and  C_4
REMARK    3  A    between atoms: C_9  and  N_10
REMARK    4  A    between atoms: N_10  and  C_11
REMARK    5  A    between atoms: C_11  and  C_12
REMARK    6  A    between atoms: C_12  and  C_15
REMARK    7  A    between atoms: N_23  and  C_24
REMARK    8  A    between atoms: C_24  and  C_25
REMARK                            x       y       z     vdW  Elec       q    Type
REMARK                         _______ _______ _______ _____ _____    ______ ____
ROOT
ATOM      1  C   UNL     1       0.698   9.898  19.379  0.00  0.00    +0.000 A 
ATOM      2  C   UNL     1       0.366   9.542  20.694  0.00  0.00    +0.000 A 
ATOM      3 CL   UNL     1      -0.722  10.478  21.654  0.00  0.00    +0.000 Cl
ATOM      4  C   UNL     1       0.914   8.403  21.279  0.00  0.00    +0.000 A 
ATOM      5  C   UNL     1       1.789   7.607  20.563  0.00  0.00    +0.000 A 
ATOM      6  C   UNL     1       2.123   7.915  19.240  0.00  0.00    +0.000 A 
ATOM      7  N   UNL     1       1.567   9.082  18.650  0.00  0.00    +0.000 N 
ATOM      8  O   UNL     1       1.865   9.378  17.432  0.00  0.00    +0.000 OA
ENDROOT
BRANCH   6   9
ATOM      9  N   UNL     1       2.993   7.130  18.488  0.00  0.00    +0.000 N 
ATOM     10  H   UNL     1       3.863   7.609  18.247  0.00  0.00    +0.000 HD
BRANCH   9  11
ATOM     11  C   UNL     1       2.580   5.920  17.766  0.00  0.00    +0.000 C 
BRANCH  11  12
ATOM     12  C   UNL     1       3.397   4.645  18.132  0.00  0.00    +0.000 C 
ATOM     13  F   UNL     1       3.424   3.835  17.024  0.00  0.00    +0.000 F 
ATOM     14  F   UNL     1       4.705   4.975  18.361  0.00  0.00    +0.000 F 
BRANCH  12  15
ATOM     15  C   UNL     1       2.801   3.931  19.341  0.00  0.00    +0.000 A 
ATOM     16  C   UNL     1       1.439   4.062  19.614  0.00  0.00    +0.000 A 
ATOM     17  C   UNL     1       0.904   3.409  20.722  0.00  0.00    +0.000 A 
ATOM     18  C   UNL     1       1.730   2.624  21.518  0.00  0.00    +0.000 A 
ATOM     19  C   UNL     1       3.061   2.509  21.164  0.00  0.00    +0.000 A 
ATOM     20  N   UNL     1       3.609   3.136  20.100  0.00  0.00    +0.000 NA
ENDBRANCH  12  15
ENDBRANCH  11  12
ENDBRANCH   9  11
ENDBRANCH   6   9
BRANCH   1  21
ATOM     21  C   UNL     1       0.132  11.093  18.675  0.00  0.00    +0.000 C 
BRANCH  21  23
ATOM     22  O   UNL     1      -1.394   9.908  17.234  0.00  0.00    +0.000 OA
ATOM     23  C   UNL     1      -1.222  10.793  18.070  0.00  0.00    +0.000 C 
ATOM     24  N   UNL     1      -2.232  11.592  18.535  0.00  0.00    +0.000 N 
ATOM     25  H   UNL     1      -1.979  12.505  18.926  0.00  0.00    +0.000 HD
BRANCH  24  26
ATOM     26  C   UNL     1      -3.592  11.463  18.050  0.00  0.00    +0.000 C 
BRANCH  26  27
ATOM     27  C   UNL     1      -4.594  11.825  19.117  0.00  0.00    +0.000 A 
ATOM     28  N   UNL     1      -4.143  12.560  20.175  0.00  0.00    +0.000 NA
ATOM     29  C   UNL     1      -5.044  12.922  21.113  0.00  0.00    +0.000 A 
ATOM     30  C   UNL     1      -6.389  12.599  21.049  0.00  0.00    +0.000 A 
ATOM     31  C   UNL     1      -6.837  11.854  19.962  0.00  0.00    +0.000 A 
ATOM     32  C   UNL     1      -5.929  11.467  18.985  0.00  0.00    +0.000 A 
ATOM     33  F   UNL     1      -6.354  10.755  17.933  0.00  0.00    +0.000 F 
ENDBRANCH  26  27
ENDBRANCH  24  26
ENDBRANCH  21  23
ENDBRANCH   1  21
TORSDOF 8
ENDMDL
