MODEL 1
REMARK VINA RESULT:      -7.0      0.000      0.000
REMARK  Name = 
REMARK  6 active torsions:
REMARK  status: ('A' for Active; 'I' for Inactive)
REMARK    1  A    between atoms: C_2  and  C_3
REMARK    2  A    between atoms: C_3  and  N_4
REMARK    3  A    between atoms: C_5  and  C_7
REMARK    4  A    between atoms: N_9  and  S_10
REMARK    5  A    between atoms: S_10  and  C_13
REMARK    6  A    between atoms: C_21  and  C_22
REMARK                            x       y       z     vdW  Elec       q    Type
REMARK                         _______ _______ _______ _____ _____    ______ ____
ROOT
ATOM      1  C   UNL     1       5.030   4.883  18.653  0.00  0.00    +0.000 C 
ATOM      2  C   UNL     1       5.234   4.013  17.426  0.00  0.00    +0.000 C 
ATOM      3  N   UNL     1       3.857   3.684  16.987  0.00  0.00    +0.000 NA
ATOM      4  C   UNL     1       3.042   4.911  17.284  0.00  0.00    +0.000 C 
ATOM      5  C   UNL     1       3.885   5.801  18.212  0.00  0.00    +0.000 C 
ENDROOT
BRANCH   5   6
ATOM      6  C   UNL     1       3.063   6.347  19.376  0.00  0.00    +0.000 C 
ATOM      7  O   UNL     1       3.201   5.896  20.510  0.00  0.00    +0.000 OA
ATOM      8  N   UNL     1       2.214   7.413  19.118  0.00  0.00    +0.000 N 
ATOM      9  C   UNL     1       1.996   8.082  17.828  0.00  0.00    +0.000 C 
ATOM     10  C   UNL     1       2.141   9.599  17.976  0.00  0.00    +0.000 C 
ATOM     11  O   UNL     1       1.263  10.104  18.990  0.00  0.00    +0.000 OA
ATOM     12  C   UNL     1       1.554   9.500  20.263  0.00  0.00    +0.000 C 
ATOM     13  C   UNL     1       1.396   7.975  20.200  0.00  0.00    +0.000 C 
ENDBRANCH   5   6
BRANCH   1  15
ATOM     14  N   UNL     1       6.854   6.447  18.148  0.00  0.00    +0.000 N 
ATOM     15  C   UNL     1       6.324   5.555  19.041  0.00  0.00    +0.000 C 
ATOM     16  O   UNL     1       6.929   5.251  20.067  0.00  0.00    +0.000 OA
ATOM     17  H   UNL     1       6.337   6.765  17.340  0.00  0.00    +0.000 HD
BRANCH  14  18
ATOM     18  C   UNL     1       8.126   7.072  18.441  0.00  0.00    +0.000 C 
BRANCH  18  20
ATOM     19  N   UNL     1       8.063   9.753  17.704  0.00  0.00    +0.000 NA
ATOM     20  C   UNL     1       8.092   8.538  18.038  0.00  0.00    +0.000 C 
ENDBRANCH  18  20
ENDBRANCH  14  18
ENDBRANCH   1  15
BRANCH   3  21
ATOM     21  S   UNL     1       3.159   2.251  17.615  0.00  0.00    +0.000 S 
ATOM     22  O   UNL     1       2.024   1.939  16.761  0.00  0.00    +0.000 OA
ATOM     23  O   UNL     1       4.213   1.274  17.786  0.00  0.00    +0.000 OA
BRANCH  21  24
ATOM     24  C   UNL     1       2.529   2.660  19.213  0.00  0.00    +0.000 A 
ATOM     25  C   UNL     1       1.214   3.154  19.298  0.00  0.00    +0.000 A 
ATOM     26  C   UNL     1       0.628   3.397  20.540  0.00  0.00    +0.000 A 
ATOM     27  C   UNL     1       1.343   3.129  21.703  0.00  0.00    +0.000 A 
ATOM     28  C   UNL     1       2.650   2.641  21.622  0.00  0.00    +0.000 A 
ATOM     29  C   UNL     1       3.255   2.416  20.378  0.00  0.00    +0.000 A 
ATOM     30 CL   UNL     1       4.890   1.867  20.398  0.00  0.00    +0.000 Cl
ENDBRANCH  21  24
ENDBRANCH   3  21
TORSDOF 6
ENDMDL
MODEL 2
REMARK VINA RESULT:      -6.2      6.834     10.602
REMARK  Name = 
REMARK  6 active torsions:
REMARK  status: ('A' for Active; 'I' for Inactive)
REMARK    1  A    between atoms: C_2  and  C_3
REMARK    2  A    between atoms: C_3  and  N_4
REMARK    3  A    between atoms: C_5  and  C_7
REMARK    4  A    between atoms: N_9  and  S_10
REMARK    5  A    between atoms: S_10  and  C_13
REMARK    6  A    between atoms: C_21  and  C_22
REMARK                            x       y       z     vdW  Elec       q    Type
REMARK                         _______ _______ _______ _____ _____    ______ ____
ROOT
ATOM      1  C   UNL     1      -2.332  13.141  21.027  0.00  0.00    +0.000 C 
ATOM      2  C   UNL     1      -2.191  11.839  20.259  0.00  0.00    +0.000 C 
ATOM      3  N   UNL     1      -1.028  11.175  20.893  0.00  0.00    +0.000 NA
ATOM      4  C   UNL     1      -1.110  11.535  22.349  0.00  0.00    +0.000 C 
ATOM      5  C   UNL     1      -2.118  12.688  22.475  0.00  0.00    +0.000 C 
ENDROOT
BRANCH   5   6
ATOM      6  C   UNL     1      -1.602  13.797  23.388  0.00  0.00    +0.000 C 
ATOM      7  O   UNL     1      -0.423  14.138  23.357  0.00  0.00    +0.000 OA
ATOM      8  N   UNL     1      -2.525  14.447  24.192  0.00  0.00    +0.000 N 
ATOM      9  C   UNL     1      -3.966  14.179  24.285  0.00  0.00    +0.000 C 
ATOM     10  C   UNL     1      -4.767  15.474  24.129  0.00  0.00    +0.000 C 
ATOM     11  O   UNL     1      -4.348  16.457  25.085  0.00  0.00    +0.000 OA
ATOM     12  C   UNL     1      -2.954  16.769  24.917  0.00  0.00    +0.000 C 
ATOM     13  C   UNL     1      -2.083  15.519  25.094  0.00  0.00    +0.000 C 
ENDBRANCH   5   6
BRANCH   1  15
ATOM     14  N   UNL     1      -4.665  12.979  20.277  0.00  0.00    +0.000 N 
ATOM     15  C   UNL     1      -3.655  13.795  20.712  0.00  0.00    +0.000 C 
ATOM     16  O   UNL     1      -3.799  15.015  20.751  0.00  0.00    +0.000 OA
ATOM     17  H   UNL     1      -4.590  11.972  20.312  0.00  0.00    +0.000 HD
BRANCH  14  18
ATOM     18  C   UNL     1      -5.935  13.562  19.900  0.00  0.00    +0.000 C 
BRANCH  18  20
ATOM     19  N   UNL     1      -6.442  13.080  17.208  0.00  0.00    +0.000 NA
ATOM     20  C   UNL     1      -6.212  13.298  18.428  0.00  0.00    +0.000 C 
ENDBRANCH  18  20
ENDBRANCH  14  18
ENDBRANCH   1  15
BRANCH   3  21
ATOM     21  S   UNL     1       0.514  11.485  20.215  0.00  0.00    +0.000 S 
ATOM     22  O   UNL     1       0.292  12.349  19.066  0.00  0.00    +0.000 OA
ATOM     23  O   UNL     1       1.394  11.925  21.278  0.00  0.00    +0.000 OA
BRANCH  21  24
ATOM     24  C   UNL     1       1.117   9.938  19.613  0.00  0.00    +0.000 A 
ATOM     25  C   UNL     1       1.439   9.843  18.246  0.00  0.00    +0.000 A 
ATOM     26  C   UNL     1       2.015   8.679  17.736  0.00  0.00    +0.000 A 
ATOM     27  C   UNL     1       2.291   7.615  18.588  0.00  0.00    +0.000 A 
ATOM     28  C   UNL     1       1.970   7.706  19.945  0.00  0.00    +0.000 A 
ATOM     29  C   UNL     1       1.369   8.863  20.463  0.00  0.00    +0.000 A 
ATOM     30 CL   UNL     1       0.965   8.843  22.140  0.00  0.00    +0.000 Cl
ENDBRANCH  21  24
ENDBRANCH   3  21
TORSDOF 6
ENDMDL
MODEL 3
REMARK VINA RESULT:      -6.1      7.508     11.369
REMARK  Name = 
REMARK  6 active torsions:
REMARK  status: ('A' for Active; 'I' for Inactive)
REMARK    1  A    between atoms: C_2  and  C_3
REMARK    2  A    between atoms: C_3  and  N_4
REMARK    3  A    between atoms: C_5  and  C_7
REMARK    4  A    between atoms: N_9  and  S_10
REMARK    5  A    between atoms: S_10  and  C_13
REMARK    6  A    between atoms: C_21  and  C_22
REMARK                            x       y       z     vdW  Elec       q    Type
REMARK                         _______ _______ _______ _____ _____    ______ ____
ROOT
ATOM      1  C   UNL     1      -2.177  12.377  20.711  0.00  0.00    +0.000 C 
ATOM      2  C   UNL     1      -2.830  13.747  20.767  0.00  0.00    +0.000 C 
ATOM      3  N   UNL     1      -2.840  14.079  22.212  0.00  0.00    +0.000 NA
ATOM      4  C   UNL     1      -1.571  13.494  22.763  0.00  0.00    +0.000 C 
ATOM      5  C   UNL     1      -1.017  12.530  21.701  0.00  0.00    +0.000 C 
ENDROOT
BRANCH   5   6
ATOM      6  C   UNL     1      -0.565  11.208  22.314  0.00  0.00    +0.000 C 
ATOM      7  O   UNL     1      -1.121  10.754  23.311  0.00  0.00    +0.000 OA
ATOM      8  N   UNL     1       0.441  10.510  21.664  0.00  0.00    +0.000 N 
ATOM      9  C   UNL     1       1.148  10.908  20.439  0.00  0.00    +0.000 C 
ATOM     10  C   UNL     1       1.144   9.767  19.419  0.00  0.00    +0.000 C 
ATOM     11  O   UNL     1       1.693   8.569  19.983  0.00  0.00    +0.000 OA
ATOM     12  C   UNL     1       0.930   8.149  21.127  0.00  0.00    +0.000 C 
ATOM     13  C   UNL     1       0.919   9.234  22.212  0.00  0.00    +0.000 C 
ENDBRANCH   5   6
BRANCH   1  15
ATOM     14  N   UNL     1      -2.231  10.812  18.820  0.00  0.00    +0.000 N 
ATOM     15  C   UNL     1      -1.811  12.028  19.289  0.00  0.00    +0.000 C 
ATOM     16  O   UNL     1      -1.090  12.755  18.610  0.00  0.00    +0.000 OA
ATOM     17  H   UNL     1      -2.886  10.238  19.333  0.00  0.00    +0.000 HD
BRANCH  14  18
ATOM     18  C   UNL     1      -1.854  10.399  17.485  0.00  0.00    +0.000 C 
BRANCH  18  20
ATOM     19  N   UNL     1      -3.965  10.818  15.724  0.00  0.00    +0.000 NA
ATOM     20  C   UNL     1      -3.008  10.628  16.522  0.00  0.00    +0.000 C 
ENDBRANCH  18  20
ENDBRANCH  14  18
ENDBRANCH   1  15
BRANCH   3  21
ATOM     21  S   UNL     1      -4.228  13.625  23.108  0.00  0.00    +0.000 S 
ATOM     22  O   UNL     1      -4.054  12.223  23.453  0.00  0.00    +0.000 OA
ATOM     23  O   UNL     1      -4.424  14.600  24.160  0.00  0.00    +0.000 OA
BRANCH  21  24
ATOM     24  C   UNL     1      -5.598  13.736  21.998  0.00  0.00    +0.000 A 
ATOM     25  C   UNL     1      -6.258  12.545  21.643  0.00  0.00    +0.000 A 
ATOM     26  C   UNL     1      -7.407  12.582  20.854  0.00  0.00    +0.000 A 
ATOM     27  C   UNL     1      -7.915  13.806  20.432  0.00  0.00    +0.000 A 
ATOM     28  C   UNL     1      -7.261  14.990  20.782  0.00  0.00    +0.000 A 
ATOM     29  C   UNL     1      -6.092  14.962  21.555  0.00  0.00    +0.000 A 
ATOM     30 CL   UNL     1      -5.338  16.480  21.879  0.00  0.00    +0.000 Cl
ENDBRANCH  21  24
ENDBRANCH   3  21
TORSDOF 6
ENDMDL
MODEL 4
REMARK VINA RESULT:      -6.1      7.422     11.324
REMARK  Name = 
REMARK  6 active torsions:
REMARK  status: ('A' for Active; 'I' for Inactive)
REMARK    1  A    between atoms: C_2  and  C_3
REMARK    2  A    between atoms: C_3  and  N_4
REMARK    3  A    between atoms: C_5  and  C_7
REMARK    4  A    between atoms: N_9  and  S_10
REMARK    5  A    between atoms: S_10  and  C_13
REMARK    6  A    between atoms: C_21  and  C_22
REMARK                            x       y       z     vdW  Elec       q    Type
REMARK                         _______ _______ _______ _____ _____    ______ ____
ROOT
ATOM      1  C   UNL     1      -2.145  11.850  20.399  0.00  0.00    +0.000 C 
ATOM      2  C   UNL     1      -2.877  13.180  20.456  0.00  0.00    +0.000 C 
ATOM      3  N   UNL     1      -2.946  13.487  21.904  0.00  0.00    +0.000 NA
ATOM      4  C   UNL     1      -1.661  12.967  22.484  0.00  0.00    +0.000 C 
ATOM      5  C   UNL     1      -1.024  12.054  21.425  0.00  0.00    +0.000 C 
ENDROOT
BRANCH   5   6
ATOM      6  C   UNL     1      -0.514  10.750  22.031  0.00  0.00    +0.000 C 
ATOM      7  O   UNL     1      -1.069  10.250  23.006  0.00  0.00    +0.000 OA
ATOM      8  N   UNL     1       0.547  10.119  21.398  0.00  0.00    +0.000 N 
ATOM      9  C   UNL     1       1.262  10.576  20.199  0.00  0.00    +0.000 C 
ATOM     10  C   UNL     1       1.349   9.452  19.163  0.00  0.00    +0.000 C 
ATOM     11  O   UNL     1       1.950   8.278  19.725  0.00  0.00    +0.000 OA
ATOM     12  C   UNL     1       1.183   7.798  20.842  0.00  0.00    +0.000 C 
ATOM     13  C   UNL     1       1.081   8.864  21.941  0.00  0.00    +0.000 C 
ENDBRANCH   5   6
BRANCH   1  15
ATOM     14  N   UNL     1      -2.047  10.313  18.487  0.00  0.00    +0.000 N 
ATOM     15  C   UNL     1      -1.720  11.546  18.984  0.00  0.00    +0.000 C 
ATOM     16  O   UNL     1      -1.029  12.328  18.333  0.00  0.00    +0.000 OA
ATOM     17  H   UNL     1      -2.677   9.690  18.975  0.00  0.00    +0.000 HD
BRANCH  14  18
ATOM     18  C   UNL     1      -1.609   9.944  17.158  0.00  0.00    +0.000 C 
BRANCH  18  20
ATOM     19  N   UNL     1      -3.596  10.525  15.302  0.00  0.00    +0.000 NA
ATOM     20  C   UNL     1      -2.695  10.262  16.143  0.00  0.00    +0.000 C 
ENDBRANCH  18  20
ENDBRANCH  14  18
ENDBRANCH   1  15
BRANCH   3  21
ATOM     21  S   UNL     1      -4.330  12.940  22.753  0.00  0.00    +0.000 S 
ATOM     22  O   UNL     1      -5.073  12.098  21.829  0.00  0.00    +0.000 OA
ATOM     23  O   UNL     1      -3.895  12.396  24.022  0.00  0.00    +0.000 OA
BRANCH  21  24
ATOM     24  C   UNL     1      -5.313  14.370  23.082  0.00  0.00    +0.000 A 
ATOM     25  C   UNL     1      -4.817  15.621  22.669  0.00  0.00    +0.000 A 
ATOM     26  C   UNL     1      -5.593  16.771  22.809  0.00  0.00    +0.000 A 
ATOM     27  C   UNL     1      -6.875  16.677  23.341  0.00  0.00    +0.000 A 
ATOM     28  C   UNL     1      -7.370  15.437  23.753  0.00  0.00    +0.000 A 
ATOM     29  C   UNL     1      -6.587  14.279  23.638  0.00  0.00    +0.000 A 
ATOM     30 CL   UNL     1      -7.279  12.813  24.231  0.00  0.00    +0.000 Cl
ENDBRANCH  21  24
ENDBRANCH   3  21
TORSDOF 6
ENDMDL
MODEL 5
REMARK VINA RESULT:      -6.0      5.633      9.673
REMARK  Name = 
REMARK  6 active torsions:
REMARK  status: ('A' for Active; 'I' for Inactive)
REMARK    1  A    between atoms: C_2  and  C_3
REMARK    2  A    between atoms: C_3  and  N_4
REMARK    3  A    between atoms: C_5  and  C_7
REMARK    4  A    between atoms: N_9  and  S_10
REMARK    5  A    between atoms: S_10  and  C_13
REMARK    6  A    between atoms: C_21  and  C_22
REMARK                            x       y       z     vdW  Elec       q    Type
REMARK                         _______ _______ _______ _____ _____    ______ ____
ROOT
ATOM      1  C   UNL     1      -0.917  11.502  18.995  0.00  0.00    +0.000 C 
ATOM      2  C   UNL     1      -0.665  12.950  18.609  0.00  0.00    +0.000 C 
ATOM      3  N   UNL     1       0.638  13.266  19.239  0.00  0.00    +0.000 NA
ATOM      4  C   UNL     1       1.440  11.999  19.153  0.00  0.00    +0.000 C 
ATOM      5  C   UNL     1       0.464  10.868  18.791  0.00  0.00    +0.000 C 
ENDROOT
BRANCH   5   6
ATOM      6  C   UNL     1       0.692   9.625  19.646  0.00  0.00    +0.000 C 
ATOM      7  O   UNL     1      -0.066   9.352  20.572  0.00  0.00    +0.000 OA
ATOM      8  N   UNL     1       1.736   8.784  19.290  0.00  0.00    +0.000 N 
ATOM      9  C   UNL     1       2.677   8.961  18.176  0.00  0.00    +0.000 C 
ATOM     10  C   UNL     1       2.759   7.687  17.332  0.00  0.00    +0.000 C 
ATOM     11  O   UNL     1       3.100   6.554  18.140  0.00  0.00    +0.000 OA
ATOM     12  C   UNL     1       2.117   6.347  19.169  0.00  0.00    +0.000 C 
ATOM     13  C   UNL     1       2.004   7.576  20.080  0.00  0.00    +0.000 C 
ENDBRANCH   5   6
BRANCH   1  15
ATOM     14  N   UNL     1      -2.551  11.716  17.175  0.00  0.00    +0.000 N 
ATOM     15  C   UNL     1      -2.050  10.931  18.179  0.00  0.00    +0.000 C 
ATOM     16  O   UNL     1      -2.568   9.852  18.458  0.00  0.00    +0.000 OA
ATOM     17  H   UNL     1      -2.092  12.568  16.883  0.00  0.00    +0.000 HD
BRANCH  14  18
ATOM     18  C   UNL     1      -3.681  11.244  16.403  0.00  0.00    +0.000 C 
BRANCH  18  20
ATOM     19  N   UNL     1      -2.799  10.061  14.046  0.00  0.00    +0.000 NA
ATOM     20  C   UNL     1      -3.199  10.597  15.115  0.00  0.00    +0.000 C 
ENDBRANCH  18  20
ENDBRANCH  14  18
ENDBRANCH   1  15
BRANCH   3  21
ATOM     21  S   UNL     1       0.600  13.926  20.820  0.00  0.00    +0.000 S 
ATOM     22  O   UNL     1       1.769  13.405  21.511  0.00  0.00    +0.000 OA
ATOM     23  O   UNL     1       0.418  15.358  20.707  0.00  0.00    +0.000 OA
BRANCH  21  24
ATOM     24  C   UNL     1      -0.830  13.255  21.608  0.00  0.00    +0.000 A 
ATOM     25  C   UNL     1      -0.676  12.076  22.362  0.00  0.00    +0.000 A 
ATOM     26  C   UNL     1      -1.748  11.558  23.090  0.00  0.00    +0.000 A 
ATOM     27  C   UNL     1      -2.970  12.222  23.086  0.00  0.00    +0.000 A 
ATOM     28  C   UNL     1      -3.126  13.391  22.336  0.00  0.00    +0.000 A 
ATOM     29  C   UNL     1      -2.062  13.907  21.583  0.00  0.00    +0.000 A 
ATOM     30 CL   UNL     1      -2.385  15.323  20.652  0.00  0.00    +0.000 Cl
ENDBRANCH  21  24
ENDBRANCH   3  21
TORSDOF 6
ENDMDL
MODEL 6
REMARK VINA RESULT:      -5.9      6.323     10.600
REMARK  Name = 
REMARK  6 active torsions:
REMARK  status: ('A' for Active; 'I' for Inactive)
REMARK    1  A    between atoms: C_2  and  C_3
REMARK    2  A    between atoms: C_3  and  N_4
REMARK    3  A    between atoms: C_5  and  C_7
REMARK    4  A    between atoms: N_9  and  S_10
REMARK    5  A    between atoms: S_10  and  C_13
REMARK    6  A    between atoms: C_21  and  C_22
REMARK                            x       y       z     vdW  Elec       q    Type
REMARK                         _______ _______ _______ _____ _____    ______ ____
ROOT
ATOM      1  C   UNL     1      -0.989  11.698  18.790  0.00  0.00    +0.000 C 
ATOM      2  C   UNL     1      -0.672  13.060  18.197  0.00  0.00    +0.000 C 
ATOM      3  N   UNL     1       0.572  13.470  18.891  0.00  0.00    +0.000 NA
ATOM      4  C   UNL     1       1.352  12.202  19.092  0.00  0.00    +0.000 C 
ATOM      5  C   UNL     1       0.391  11.032  18.828  0.00  0.00    +0.000 C 
ENDROOT
BRANCH   5   6
ATOM      6  C   UNL     1       0.510   9.946  19.894  0.00  0.00    +0.000 C 
ATOM      7  O   UNL     1      -0.262   9.914  20.847  0.00  0.00    +0.000 OA
ATOM      8  N   UNL     1       1.470   8.964  19.704  0.00  0.00    +0.000 N 
ATOM      9  C   UNL     1       2.416   8.852  18.585  0.00  0.00    +0.000 C 
ATOM     10  C   UNL     1       2.374   7.445  17.983  0.00  0.00    +0.000 C 
ATOM     11  O   UNL     1       2.617   6.448  18.984  0.00  0.00    +0.000 OA
ATOM     12  C   UNL     1       1.626   6.520  20.025  0.00  0.00    +0.000 C 
ATOM     13  C   UNL     1       1.633   7.898  20.700  0.00  0.00    +0.000 C 
ENDBRANCH   5   6
BRANCH   1  15
ATOM     14  N   UNL     1      -2.745  11.773  17.076  0.00  0.00    +0.000 N 
ATOM     15  C   UNL     1      -2.053  11.006  17.974  0.00  0.00    +0.000 C 
ATOM     16  O   UNL     1      -2.353   9.830  18.167  0.00  0.00    +0.000 OA
ATOM     17  H   UNL     1      -2.463  12.717  16.849  0.00  0.00    +0.000 HD
BRANCH  14  18
ATOM     18  C   UNL     1      -3.820  11.174  16.312  0.00  0.00    +0.000 C 
BRANCH  18  20
ATOM     19  N   UNL     1      -2.815  10.038  13.982  0.00  0.00    +0.000 NA
ATOM     20  C   UNL     1      -3.271  10.553  15.038  0.00  0.00    +0.000 C 
ENDBRANCH  18  20
ENDBRANCH  14  18
ENDBRANCH   1  15
BRANCH   3  21
ATOM     21  S   UNL     1       0.399  14.383  20.330  0.00  0.00    +0.000 S 
ATOM     22  O   UNL     1      -0.078  13.460  21.347  0.00  0.00    +0.000 OA
ATOM     23  O   UNL     1       1.629  15.114  20.551  0.00  0.00    +0.000 OA
BRANCH  21  24
ATOM     24  C   UNL     1      -0.885  15.556  20.027  0.00  0.00    +0.000 A 
ATOM     25  C   UNL     1      -2.077  15.436  20.766  0.00  0.00    +0.000 A 
ATOM     26  C   UNL     1      -3.084  16.393  20.643  0.00  0.00    +0.000 A 
ATOM     27  C   UNL     1      -2.900  17.484  19.800  0.00  0.00    +0.000 A 
ATOM     28  C   UNL     1      -1.719  17.605  19.063  0.00  0.00    +0.000 A 
ATOM     29  C   UNL     1      -0.711  16.635  19.162  0.00  0.00    +0.000 A 
ATOM     30 CL   UNL     1       0.679  16.857  18.164  0.00  0.00    +0.000 Cl
ENDBRANCH  21  24
ENDBRANCH   3  21
TORSDOF 6
ENDMDL
MODEL 7
REMARK VINA RESULT:      -5.8      5.577      9.942
REMARK  Name = 
REMARK  6 active torsions:
REMARK  status: ('A' for Active; 'I' for Inactive)
REMARK    1  A    between atoms: C_2  and  C_3
REMARK    2  A    between atoms: C_3  and  N_4
REMARK    3  A    between atoms: C_5  and  C_7
REMARK    4  A    between atoms: N_9  and  S_10
REMARK    5  A    between atoms: S_10  and  C_13
REMARK    6  A    between atoms: C_21  and  C_22
REMARK                            x       y       z     vdW  Elec       q    Type
REMARK                         _______ _______ _______ _____ _____    ______ ____
ROOT
ATOM      1  C   UNL     1      -0.558  11.572  19.050  0.00  0.00    +0.000 C 
ATOM      2  C   UNL     1      -0.071  12.778  18.265  0.00  0.00    +0.000 C 
ATOM      3  N   UNL     1       1.361  12.888  18.630  0.00  0.00    +0.000 NA
ATOM      4  C   UNL     1       1.840  11.473  18.792  0.00  0.00    +0.000 C 
ATOM      5  C   UNL     1       0.593  10.577  18.861  0.00  0.00    +0.000 C 
ENDROOT
BRANCH   5   6
ATOM      6  C   UNL     1       0.694   9.548  19.983  0.00  0.00    +0.000 C 
ATOM      7  O   UNL     1      -0.028   9.625  20.974  0.00  0.00    +0.000 OA
ATOM      8  N   UNL     1       1.574   8.491  19.807  0.00  0.00    +0.000 N 
ATOM      9  C   UNL     1       2.450   8.249  18.653  0.00  0.00    +0.000 C 
ATOM     10  C   UNL     1       2.281   6.816  18.140  0.00  0.00    +0.000 C 
ATOM     11  O   UNL     1       2.508   5.864  19.187  0.00  0.00    +0.000 OA
ATOM     12  C   UNL     1       1.581   6.064  20.267  0.00  0.00    +0.000 C 
ATOM     13  C   UNL     1       1.716   7.475  20.857  0.00  0.00    +0.000 C 
ENDBRANCH   5   6
BRANCH   1  15
ATOM     14  N   UNL     1      -1.945  10.160  17.598  0.00  0.00    +0.000 N 
ATOM     15  C   UNL     1      -1.916  11.138  18.556  0.00  0.00    +0.000 C 
ATOM     16  O   UNL     1      -2.947  11.697  18.922  0.00  0.00    +0.000 OA
ATOM     17  H   UNL     1      -1.119   9.638  17.341  0.00  0.00    +0.000 HD
BRANCH  14  18
ATOM     18  C   UNL     1      -3.218   9.751  17.042  0.00  0.00    +0.000 C 
BRANCH  18  20
ATOM     19  N   UNL     1      -3.226  10.145  14.289  0.00  0.00    +0.000 NA
ATOM     20  C   UNL     1      -3.223   9.966  15.537  0.00  0.00    +0.000 C 
ENDBRANCH  18  20
ENDBRANCH  14  18
ENDBRANCH   1  15
BRANCH   3  21
ATOM     21  S   UNL     1       1.751  13.881  19.971  0.00  0.00    +0.000 S 
ATOM     22  O   UNL     1       0.733  14.917  20.026  0.00  0.00    +0.000 OA
ATOM     23  O   UNL     1       1.960  13.025  21.120  0.00  0.00    +0.000 OA
BRANCH  21  24
ATOM     24  C   UNL     1       3.288  14.660  19.585  0.00  0.00    +0.000 A 
ATOM     25  C   UNL     1       3.849  14.422  18.317  0.00  0.00    +0.000 A 
ATOM     26  C   UNL     1       5.006  15.090  17.918  0.00  0.00    +0.000 A 
ATOM     27  C   UNL     1       5.598  16.015  18.773  0.00  0.00    +0.000 A 
ATOM     28  C   UNL     1       5.044  16.253  20.034  0.00  0.00    +0.000 A 
ATOM     29  C   UNL     1       3.894  15.568  20.452  0.00  0.00    +0.000 A 
ATOM     30 CL   UNL     1       3.331  15.899  22.050  0.00  0.00    +0.000 Cl
ENDBRANCH  21  24
ENDBRANCH   3  21
TORSDOF 6
ENDMDL
MODEL 8
REMARK VINA RESULT:      -5.8      5.947     10.248
REMARK  Name = 
REMARK  6 active torsions:
REMARK  status: ('A' for Active; 'I' for Inactive)
REMARK    1  A    between atoms: C_2  and  C_3
REMARK    2  A    between atoms: C_3  and  N_4
REMARK    3  A    between atoms: C_5  and  C_7
REMARK    4  A    between atoms: N_9  and  S_10
REMARK    5  A    between atoms: S_10  and  C_13
REMARK    6  A    between atoms: C_21  and  C_22
REMARK                            x       y       z     vdW  Elec       q    Type
REMARK                         _______ _______ _______ _____ _____    ______ ____
ROOT
ATOM      1  C   UNL     1      -0.855  11.548  18.845  0.00  0.00    +0.000 C 
ATOM      2  C   UNL     1      -0.573  12.964  18.373  0.00  0.00    +0.000 C 
ATOM      3  N   UNL     1       0.711  13.309  19.027  0.00  0.00    +0.000 NA
ATOM      4  C   UNL     1       1.500  12.031  19.054  0.00  0.00    +0.000 C 
ATOM      5  C   UNL     1       0.523  10.888  18.733  0.00  0.00    +0.000 C 
ENDROOT
BRANCH   5   6
ATOM      6  C   UNL     1       0.706   9.703  19.676  0.00  0.00    +0.000 C 
ATOM      7  O   UNL     1      -0.044   9.540  20.635  0.00  0.00    +0.000 OA
ATOM      8  N   UNL     1       1.698   8.784  19.368  0.00  0.00    +0.000 N 
ATOM      9  C   UNL     1       2.623   8.827  18.227  0.00  0.00    +0.000 C 
ATOM     10  C   UNL     1       2.621   7.490  17.481  0.00  0.00    +0.000 C 
ATOM     11  O   UNL     1       2.922   6.404  18.367  0.00  0.00    +0.000 OA
ATOM     12  C   UNL     1       1.952   6.328  19.427  0.00  0.00    +0.000 C 
ATOM     13  C   UNL     1       1.922   7.627  20.243  0.00  0.00    +0.000 C 
ENDBRANCH   5   6
BRANCH   1  15
ATOM     14  N   UNL     1      -2.593  11.747  17.122  0.00  0.00    +0.000 N 
ATOM     15  C   UNL     1      -1.967  10.935  18.030  0.00  0.00    +0.000 C 
ATOM     16  O   UNL     1      -2.361   9.789  18.232  0.00  0.00    +0.000 OA
ATOM     17  H   UNL     1      -2.236  12.663  16.889  0.00  0.00    +0.000 HD
BRANCH  14  18
ATOM     18  C   UNL     1      -3.709  11.228  16.359  0.00  0.00    +0.000 C 
BRANCH  18  20
ATOM     19  N   UNL     1      -2.793  10.033  14.022  0.00  0.00    +0.000 NA
ATOM     20  C   UNL     1      -3.207  10.575  15.081  0.00  0.00    +0.000 C 
ENDBRANCH  18  20
ENDBRANCH  14  18
ENDBRANCH   1  15
BRANCH   3  21
ATOM     21  S   UNL     1       0.627  14.074  20.558  0.00  0.00    +0.000 S 
ATOM     22  O   UNL     1      -0.582  14.881  20.548  0.00  0.00    +0.000 OA
ATOM     23  O   UNL     1       0.800  13.060  21.577  0.00  0.00    +0.000 OA
BRANCH  21  24
ATOM     24  C   UNL     1       2.005  15.174  20.643  0.00  0.00    +0.000 A 
ATOM     25  C   UNL     1       3.012  14.900  21.588  0.00  0.00    +0.000 A 
ATOM     26  C   UNL     1       4.171  15.674  21.631  0.00  0.00    +0.000 A 
ATOM     27  C   UNL     1       4.342  16.712  20.720  0.00  0.00    +0.000 A 
ATOM     28  C   UNL     1       3.344  16.988  19.782  0.00  0.00    +0.000 A 
ATOM     29  C   UNL     1       2.164  16.230  19.746  0.00  0.00    +0.000 A 
ATOM     30 CL   UNL     1       0.977  16.696  18.584  0.00  0.00    +0.000 Cl
ENDBRANCH  21  24
ENDBRANCH   3  21
TORSDOF 6
ENDMDL
MODEL 9
REMARK VINA RESULT:      -5.8      3.276      5.988
REMARK  Name = 
REMARK  6 active torsions:
REMARK  status: ('A' for Active; 'I' for Inactive)
REMARK    1  A    between atoms: C_2  and  C_3
REMARK    2  A    between atoms: C_3  and  N_4
REMARK    3  A    between atoms: C_5  and  C_7
REMARK    4  A    between atoms: N_9  and  S_10
REMARK    5  A    between atoms: S_10  and  C_13
REMARK    6  A    between atoms: C_21  and  C_22
REMARK                            x       y       z     vdW  Elec       q    Type
REMARK                         _______ _______ _______ _____ _____    ______ ____
ROOT
ATOM      1  C   UNL     1       4.363   6.324  16.913  0.00  0.00    +0.000 C 
ATOM      2  C   UNL     1       4.550   7.704  17.519  0.00  0.00    +0.000 C 
ATOM      3  N   UNL     1       3.487   7.789  18.548  0.00  0.00    +0.000 NA
ATOM      4  C   UNL     1       3.363   6.400  19.108  0.00  0.00    +0.000 C 
ATOM      5  C   UNL     1       4.110   5.458  18.151  0.00  0.00    +0.000 C 
ENDROOT
BRANCH   5   6
ATOM      6  C   UNL     1       3.305   4.196  17.854  0.00  0.00    +0.000 C 
ATOM      7  O   UNL     1       3.586   3.482  16.895  0.00  0.00    +0.000 OA
ATOM      8  N   UNL     1       2.300   3.850  18.745  0.00  0.00    +0.000 N 
ATOM      9  C   UNL     1       1.900   4.579  19.956  0.00  0.00    +0.000 C 
ATOM     10  C   UNL     1       1.842   3.635  21.159  0.00  0.00    +0.000 C 
ATOM     11  O   UNL     1       0.977   2.522  20.900  0.00  0.00    +0.000 OA
ATOM     12  C   UNL     1       1.439   1.771  19.763  0.00  0.00    +0.000 C 
ATOM     13  C   UNL     1       1.491   2.649  18.505  0.00  0.00    +0.000 C 
ENDBRANCH   5   6
BRANCH   1  15
ATOM     14  N   UNL     1       5.400   4.915  15.191  0.00  0.00    +0.000 N 
ATOM     15  C   UNL     1       5.555   5.958  16.063  0.00  0.00    +0.000 C 
ATOM     16  O   UNL     1       6.646   6.506  16.209  0.00  0.00    +0.000 OA
ATOM     17  H   UNL     1       4.495   4.505  15.003  0.00  0.00    +0.000 HD
BRANCH  14  18
ATOM     18  C   UNL     1       6.530   4.480  14.398  0.00  0.00    +0.000 C 
BRANCH  18  20
ATOM     19  N   UNL     1       5.644   3.133  12.132  0.00  0.00    +0.000 NA
ATOM     20  C   UNL     1       6.046   3.743  13.159  0.00  0.00    +0.000 C 
ENDBRANCH  18  20
ENDBRANCH  14  18
ENDBRANCH   1  15
BRANCH   3  21
ATOM     21  S   UNL     1       1.982   8.449  18.063  0.00  0.00    +0.000 S 
ATOM     22  O   UNL     1       2.286   9.645  17.294  0.00  0.00    +0.000 OA
ATOM     23  O   UNL     1       1.200   7.392  17.457  0.00  0.00    +0.000 OA
BRANCH  21  24
ATOM     24  C   UNL     1       1.159   8.957  19.540  0.00  0.00    +0.000 A 
ATOM     25  C   UNL     1       1.684   8.520  20.771  0.00  0.00    +0.000 A 
ATOM     26  C   UNL     1       1.138   8.973  21.973  0.00  0.00    +0.000 A 
ATOM     27  C   UNL     1       0.082   9.877  21.953  0.00  0.00    +0.000 A 
ATOM     28  C   UNL     1      -0.442  10.311  20.733  0.00  0.00    +0.000 A 
ATOM     29  C   UNL     1       0.084   9.844  19.520  0.00  0.00    +0.000 A 
ATOM     30 CL   UNL     1      -0.678  10.403  18.076  0.00  0.00    +0.000 Cl
ENDBRANCH  21  24
ENDBRANCH   3  21
TORSDOF 6
ENDMDL
