MODEL 1
REMARK VINA RESULT:      -7.3      0.000      0.000
REMARK  Name = 
REMARK  11 active torsions:
REMARK  status: ('A' for Active; 'I' for Inactive)
REMARK    1  A    between atoms: C_1  and  C_2
REMARK    2  A    between atoms: C_2  and  C_3
REMARK    3  A    between atoms: C_2  and  C_4
REMARK    4  A    between atoms: C_4  and  N_5
REMARK    5  A    between atoms: N_5  and  N_6
REMARK    6  A    between atoms: N_5  and  C_22
REMARK    7  A    between atoms: C_7  and  C_9
REMARK    8  A    between atoms: C_12  and  C_13
REMARK    9  A    between atoms: C_13  and  N_14
REMARK   10  A    between atoms: N_17  and  C_18
REMARK   11  A    between atoms: C_24  and  C_25
REMARK                            x       y       z     vdW  Elec       q    Type
REMARK                         _______ _______ _______ _____ _____    ______ ____
ROOT
ATOM      1  N   UNL     1       3.939   5.949  18.245  0.00  0.00    +0.000 N 
ATOM      2  C   UNL     1       2.566   6.225  18.233  0.00  0.00    +0.000 C 
ATOM      3  O   UNL     1       1.713   5.375  17.982  0.00  0.00    +0.000 OA
ATOM      4  H   UNL     1       4.610   6.708  18.253  0.00  0.00    +0.000 HD
ENDROOT
BRANCH   2   5
ATOM      5  C   UNL     1       2.175   7.596  18.565  0.00  0.00    +0.000 A 
ATOM      6  C   UNL     1       1.987   8.669  17.708  0.00  0.00    +0.000 A 
ATOM      7  C   UNL     1       1.402   9.715  18.456  0.00  0.00    +0.000 A 
ATOM      8  C   UNL     1       1.285   9.247  19.748  0.00  0.00    +0.000 A 
ATOM      9  O   UNL     1       1.800   7.969  19.838  0.00  0.00    +0.000 OA
BRANCH   8  10
ATOM     10  C   UNL     1       0.665   9.847  20.976  0.00  0.00    +0.000 C 
BRANCH  10  11
ATOM     11  N   UNL     1      -0.013  11.125  20.712  0.00  0.00    +0.000 NA
ATOM     12  C   UNL     1       0.905  12.267  20.879  0.00  0.00    +0.000 C 
ATOM     13  C   UNL     1       0.204  13.625  20.639  0.00  0.00    +0.000 C 
ATOM     14  N   UNL     1      -1.014  13.851  21.440  0.00  0.00    +0.000 NA
ATOM     15  C   UNL     1      -0.698  14.167  22.830  0.00  0.00    +0.000 C 
ATOM     16  C   UNL     1      -1.890  12.666  21.334  0.00  0.00    +0.000 C 
ATOM     17  C   UNL     1      -1.183  11.312  21.596  0.00  0.00    +0.000 C 
ENDBRANCH  10  11
ENDBRANCH   8  10
ENDBRANCH   2   5
BRANCH   1  18
ATOM     18  N   UNL     1       4.427   4.617  17.944  0.00  0.00    +0.000 N 
BRANCH  18  19
ATOM     19  C   UNL     1       5.506   4.659  17.004  0.00  0.00    +0.000 A 
ATOM     20  N   UNL     1       5.197   4.235  15.748  0.00  0.00    +0.000 NA
ATOM     21  C   UNL     1       6.160   4.238  14.798  0.00  0.00    +0.000 A 
ATOM     22  N   UNL     1       7.415   4.673  14.980  0.00  0.00    +0.000 NA
ATOM     23  C   UNL     1       7.702   5.092  16.211  0.00  0.00    +0.000 A 
ATOM     24  C   UNL     1       6.814   5.092  17.275  0.00  0.00    +0.000 A 
ATOM     25 BR   UNL     1       7.614   5.740  18.876  0.00  0.00    +0.000 Br
BRANCH  21  26
ATOM     26  C   UNL     1       5.836   3.734  13.479  0.00  0.00    +0.000 C 
ATOM     27  N   UNL     1       5.568   3.379  12.412  0.00  0.00    +0.000 NA
ENDBRANCH  21  26
ENDBRANCH  18  19
BRANCH  18  28
ATOM     28  C   UNL     1       4.647   3.731  19.101  0.00  0.00    +0.000 C 
BRANCH  28  30
ATOM     29  C   UNL     1       2.599   2.820  20.328  0.00  0.00    +0.000 C 
ATOM     30  C   UNL     1       3.720   2.541  19.344  0.00  0.00    +0.000 C 
ATOM     31  C   UNL     1       3.116   2.117  17.983  0.00  0.00    +0.000 C 
ENDBRANCH  28  30
ENDBRANCH  18  28
ENDBRANCH   1  18
TORSDOF 8
ENDMDL
MODEL 2
REMARK VINA RESULT:      -7.2      1.140      1.651
REMARK  Name = 
REMARK  11 active torsions:
REMARK  status: ('A' for Active; 'I' for Inactive)
REMARK    1  A    between atoms: C_1  and  C_2
REMARK    2  A    between atoms: C_2  and  C_3
REMARK    3  A    between atoms: C_2  and  C_4
REMARK    4  A    between atoms: C_4  and  N_5
REMARK    5  A    between atoms: N_5  and  N_6
REMARK    6  A    between atoms: N_5  and  C_22
REMARK    7  A    between atoms: C_7  and  C_9
REMARK    8  A    between atoms: C_12  and  C_13
REMARK    9  A    between atoms: C_13  and  N_14
REMARK   10  A    between atoms: N_17  and  C_18
REMARK   11  A    between atoms: C_24  and  C_25
REMARK                            x       y       z     vdW  Elec       q    Type
REMARK                         _______ _______ _______ _____ _____    ______ ____
ROOT
ATOM      1  N   UNL     1       3.901   5.442  18.685  0.00  0.00    +0.000 N 
ATOM      2  C   UNL     1       2.565   5.741  18.394  0.00  0.00    +0.000 C 
ATOM      3  O   UNL     1       1.836   4.993  17.744  0.00  0.00    +0.000 OA
ATOM      4  H   UNL     1       4.518   6.162  19.039  0.00  0.00    +0.000 HD
ENDROOT
BRANCH   2   5
ATOM      5  C   UNL     1       2.049   7.002  18.931  0.00  0.00    +0.000 A 
ATOM      6  C   UNL     1       1.858   7.358  20.256  0.00  0.00    +0.000 A 
ATOM      7  C   UNL     1       1.558   8.738  20.287  0.00  0.00    +0.000 A 
ATOM      8  C   UNL     1       1.549   9.161  18.975  0.00  0.00    +0.000 A 
ATOM      9  O   UNL     1       1.800   8.097  18.132  0.00  0.00    +0.000 OA
BRANCH   8  10
ATOM     10  C   UNL     1       1.385  10.523  18.365  0.00  0.00    +0.000 C 
BRANCH  10  11
ATOM     11  N   UNL     1       0.701  11.473  19.254  0.00  0.00    +0.000 NA
ATOM     12  C   UNL     1      -0.499  12.043  18.613  0.00  0.00    +0.000 C 
ATOM     13  C   UNL     1      -1.217  13.071  19.519  0.00  0.00    +0.000 C 
ATOM     14  N   UNL     1      -0.364  14.163  20.025  0.00  0.00    +0.000 NA
ATOM     15  C   UNL     1      -0.077  15.152  18.989  0.00  0.00    +0.000 C 
ATOM     16  C   UNL     1       0.874  13.588  20.589  0.00  0.00    +0.000 C 
ATOM     17  C   UNL     1       1.598  12.574  19.666  0.00  0.00    +0.000 C 
ENDBRANCH  10  11
ENDBRANCH   8  10
ENDBRANCH   2   5
BRANCH   1  18
ATOM     18  N   UNL     1       4.503   4.210  18.211  0.00  0.00    +0.000 N 
BRANCH  18  19
ATOM     19  C   UNL     1       5.537   4.470  17.256  0.00  0.00    +0.000 A 
ATOM     20  N   UNL     1       5.257   4.088  15.980  0.00  0.00    +0.000 NA
ATOM     21  C   UNL     1       6.182   4.293  15.015  0.00  0.00    +0.000 A 
ATOM     22  N   UNL     1       7.366   4.893  15.203  0.00  0.00    +0.000 NA
ATOM     23  C   UNL     1       7.624   5.268  16.455  0.00  0.00    +0.000 A 
ATOM     24  C   UNL     1       6.776   5.070  17.532  0.00  0.00    +0.000 A 
ATOM     25 BR   UNL     1       7.520   5.721  19.159  0.00  0.00    +0.000 Br
BRANCH  21  26
ATOM     26  C   UNL     1       5.897   3.835  13.671  0.00  0.00    +0.000 C 
ATOM     27  N   UNL     1       5.660   3.516  12.585  0.00  0.00    +0.000 NA
ENDBRANCH  21  26
ENDBRANCH  18  19
BRANCH  18  28
ATOM     28  C   UNL     1       4.848   3.218  19.245  0.00  0.00    +0.000 C 
BRANCH  28  30
ATOM     29  C   UNL     1       2.813   2.768  20.724  0.00  0.00    +0.000 C 
ATOM     30  C   UNL     1       3.805   2.209  19.721  0.00  0.00    +0.000 C 
ATOM     31  C   UNL     1       3.040   1.687  18.479  0.00  0.00    +0.000 C 
ENDBRANCH  28  30
ENDBRANCH  18  28
ENDBRANCH   1  18
TORSDOF 8
ENDMDL
MODEL 3
REMARK VINA RESULT:      -6.9      3.525      9.462
REMARK  Name = 
REMARK  11 active torsions:
REMARK  status: ('A' for Active; 'I' for Inactive)
REMARK    1  A    between atoms: C_1  and  C_2
REMARK    2  A    between atoms: C_2  and  C_3
REMARK    3  A    between atoms: C_2  and  C_4
REMARK    4  A    between atoms: C_4  and  N_5
REMARK    5  A    between atoms: N_5  and  N_6
REMARK    6  A    between atoms: N_5  and  C_22
REMARK    7  A    between atoms: C_7  and  C_9
REMARK    8  A    between atoms: C_12  and  C_13
REMARK    9  A    between atoms: C_13  and  N_14
REMARK   10  A    between atoms: N_17  and  C_18
REMARK   11  A    between atoms: C_24  and  C_25
REMARK                            x       y       z     vdW  Elec       q    Type
REMARK                         _______ _______ _______ _____ _____    ______ ____
ROOT
ATOM      1  N   UNL     1       0.786  10.090  19.319  0.00  0.00    +0.000 N 
ATOM      2  C   UNL     1       1.649   9.347  18.504  0.00  0.00    +0.000 C 
ATOM      3  O   UNL     1       2.088   9.764  17.435  0.00  0.00    +0.000 OA
ATOM      4  H   UNL     1       0.290   9.640  20.079  0.00  0.00    +0.000 HD
ENDROOT
BRANCH   2   5
ATOM      5  C   UNL     1       2.037   8.025  19.004  0.00  0.00    +0.000 A 
ATOM      6  C   UNL     1       1.782   7.466  20.246  0.00  0.00    +0.000 A 
ATOM      7  C   UNL     1       2.151   6.104  20.184  0.00  0.00    +0.000 A 
ATOM      8  C   UNL     1       2.646   5.896  18.913  0.00  0.00    +0.000 A 
ATOM      9  O   UNL     1       2.626   7.076  18.197  0.00  0.00    +0.000 OA
BRANCH   8  10
ATOM     10  C   UNL     1       3.109   4.651  18.214  0.00  0.00    +0.000 C 
BRANCH  10  11
ATOM     11  N   UNL     1       4.574   4.539  18.150  0.00  0.00    +0.000 NA
ATOM     12  C   UNL     1       5.224   5.382  19.171  0.00  0.00    +0.000 C 
ATOM     13  C   UNL     1       6.767   5.305  19.100  0.00  0.00    +0.000 C 
ATOM     14  N   UNL     1       7.350   5.598  17.776  0.00  0.00    +0.000 NA
ATOM     15  C   UNL     1       7.324   7.028  17.478  0.00  0.00    +0.000 C 
ATOM     16  C   UNL     1       6.635   4.812  16.750  0.00  0.00    +0.000 C 
ATOM     17  C   UNL     1       5.089   4.912  16.815  0.00  0.00    +0.000 C 
ENDBRANCH  10  11
ENDBRANCH   8  10
ENDBRANCH   2   5
BRANCH   1  18
ATOM     18  N   UNL     1       0.355  11.416  18.921  0.00  0.00    +0.000 N 
BRANCH  18  19
ATOM     19  C   UNL     1      -1.036  11.431  18.582  0.00  0.00    +0.000 A 
ATOM     20  N   UNL     1      -1.332  10.985  17.330  0.00  0.00    +0.000 NA
ATOM     21  C   UNL     1      -2.623  10.969  16.927  0.00  0.00    +0.000 A 
ATOM     22  N   UNL     1      -3.668  11.325  17.687  0.00  0.00    +0.000 NA
ATOM     23  C   UNL     1      -3.365  11.752  18.911  0.00  0.00    +0.000 A 
ATOM     24  C   UNL     1      -2.080  11.857  19.419  0.00  0.00    +0.000 A 
ATOM     25 BR   UNL     1      -2.064  12.536  21.196  0.00  0.00    +0.000 Br
BRANCH  21  26
ATOM     26  C   UNL     1      -2.923  10.544  15.575  0.00  0.00    +0.000 C 
ATOM     27  N   UNL     1      -3.169  10.252  14.483  0.00  0.00    +0.000 NA
ENDBRANCH  21  26
ENDBRANCH  18  19
BRANCH  18  28
ATOM     28  C   UNL     1       0.794  12.527  19.784  0.00  0.00    +0.000 C 
BRANCH  28  30
ATOM     29  C   UNL     1       2.266  14.574  20.198  0.00  0.00    +0.000 C 
ATOM     30  C   UNL     1       1.526  13.725  19.182  0.00  0.00    +0.000 C 
ATOM     31  C   UNL     1       2.528  13.195  18.128  0.00  0.00    +0.000 C 
ENDBRANCH  28  30
ENDBRANCH  18  28
ENDBRANCH   1  18
TORSDOF 8
ENDMDL
MODEL 4
REMARK VINA RESULT:      -6.9      4.098      9.742
REMARK  Name = 
REMARK  11 active torsions:
REMARK  status: ('A' for Active; 'I' for Inactive)
REMARK    1  A    between atoms: C_1  and  C_2
REMARK    2  A    between atoms: C_2  and  C_3
REMARK    3  A    between atoms: C_2  and  C_4
REMARK    4  A    between atoms: C_4  and  N_5
REMARK    5  A    between atoms: N_5  and  N_6
REMARK    6  A    between atoms: N_5  and  C_22
REMARK    7  A    between atoms: C_7  and  C_9
REMARK    8  A    between atoms: C_12  and  C_13
REMARK    9  A    between atoms: C_13  and  N_14
REMARK   10  A    between atoms: N_17  and  C_18
REMARK   11  A    between atoms: C_24  and  C_25
REMARK                            x       y       z     vdW  Elec       q    Type
REMARK                         _______ _______ _______ _____ _____    ______ ____
ROOT
ATOM      1  N   UNL     1      -0.643  10.315  19.134  0.00  0.00    +0.000 N 
ATOM      2  C   UNL     1       0.731  10.450  18.899  0.00  0.00    +0.000 C 
ATOM      3  O   UNL     1       1.310  11.534  18.904  0.00  0.00    +0.000 OA
ATOM      4  H   UNL     1      -1.113   9.444  18.922  0.00  0.00    +0.000 HD
ENDROOT
BRANCH   2   5
ATOM      5  C   UNL     1       1.474   9.210  18.665  0.00  0.00    +0.000 A 
ATOM      6  C   UNL     1       2.366   8.921  17.644  0.00  0.00    +0.000 A 
ATOM      7  C   UNL     1       2.994   7.696  17.961  0.00  0.00    +0.000 A 
ATOM      8  C   UNL     1       2.437   7.272  19.150  0.00  0.00    +0.000 A 
ATOM      9  O   UNL     1       1.471   8.166  19.566  0.00  0.00    +0.000 OA
BRANCH   8  10
ATOM     10  C   UNL     1       2.746   6.101  20.036  0.00  0.00    +0.000 C 
BRANCH  10  11
ATOM     11  N   UNL     1       2.147   4.846  19.561  0.00  0.00    +0.000 NA
ATOM     12  C   UNL     1       2.415   3.733  20.492  0.00  0.00    +0.000 C 
ATOM     13  C   UNL     1       1.822   2.395  19.994  0.00  0.00    +0.000 C 
ATOM     14  N   UNL     1       2.221   2.001  18.629  0.00  0.00    +0.000 NA
ATOM     15  C   UNL     1       3.593   1.503  18.588  0.00  0.00    +0.000 C 
ATOM     16  C   UNL     1       2.028   3.149  17.719  0.00  0.00    +0.000 C 
ATOM     17  C   UNL     1       2.644   4.482  18.216  0.00  0.00    +0.000 C 
ENDBRANCH  10  11
ENDBRANCH   8  10
ENDBRANCH   2   5
BRANCH   1  18
ATOM     18  N   UNL     1      -1.466  11.482  19.391  0.00  0.00    +0.000 N 
BRANCH  18  19
ATOM     19  C   UNL     1      -2.596  11.524  18.515  0.00  0.00    +0.000 A 
ATOM     20  N   UNL     1      -2.386  11.011  17.272  0.00  0.00    +0.000 NA
ATOM     21  C   UNL     1      -3.401  11.015  16.378  0.00  0.00    +0.000 A 
ATOM     22  N   UNL     1      -4.642  11.455  16.630  0.00  0.00    +0.000 NA
ATOM     23  C   UNL     1      -4.837  11.948  17.852  0.00  0.00    +0.000 A 
ATOM     24  C   UNL     1      -3.863  12.039  18.834  0.00  0.00    +0.000 A 
ATOM     25 BR   UNL     1      -4.529  12.829  20.433  0.00  0.00    +0.000 Br
BRANCH  21  26
ATOM     26  C   UNL     1      -3.153  10.516  15.041  0.00  0.00    +0.000 C 
ATOM     27  N   UNL     1      -2.906  10.130  13.979  0.00  0.00    +0.000 NA
ENDBRANCH  21  26
ENDBRANCH  18  19
BRANCH  18  28
ATOM     28  C   UNL     1      -1.767  11.763  20.806  0.00  0.00    +0.000 C 
BRANCH  28  30
ATOM     29  C   UNL     1      -0.849  13.130  22.761  0.00  0.00    +0.000 C 
ATOM     30  C   UNL     1      -0.632  11.969  21.808  0.00  0.00    +0.000 C 
ATOM     31  C   UNL     1      -0.466  10.662  22.621  0.00  0.00    +0.000 C 
ENDBRANCH  28  30
ENDBRANCH  18  28
ENDBRANCH   1  18
TORSDOF 8
ENDMDL
MODEL 5
REMARK VINA RESULT:      -6.8      2.207      3.153
REMARK  Name = 
REMARK  11 active torsions:
REMARK  status: ('A' for Active; 'I' for Inactive)
REMARK    1  A    between atoms: C_1  and  C_2
REMARK    2  A    between atoms: C_2  and  C_3
REMARK    3  A    between atoms: C_2  and  C_4
REMARK    4  A    between atoms: C_4  and  N_5
REMARK    5  A    between atoms: N_5  and  N_6
REMARK    6  A    between atoms: N_5  and  C_22
REMARK    7  A    between atoms: C_7  and  C_9
REMARK    8  A    between atoms: C_12  and  C_13
REMARK    9  A    between atoms: C_13  and  N_14
REMARK   10  A    between atoms: N_17  and  C_18
REMARK   11  A    between atoms: C_24  and  C_25
REMARK                            x       y       z     vdW  Elec       q    Type
REMARK                         _______ _______ _______ _____ _____    ______ ____
ROOT
ATOM      1  N   UNL     1       2.324   7.013  18.984  0.00  0.00    +0.000 N 
ATOM      2  C   UNL     1       1.641   7.705  19.991  0.00  0.00    +0.000 C 
ATOM      3  O   UNL     1       1.302   7.185  21.052  0.00  0.00    +0.000 OA
ATOM      4  H   UNL     1       2.403   7.411  18.056  0.00  0.00    +0.000 HD
ENDROOT
BRANCH   2   5
ATOM      5  C   UNL     1       1.361   9.119  19.732  0.00  0.00    +0.000 A 
ATOM      6  C   UNL     1       1.198   9.755  18.512  0.00  0.00    +0.000 A 
ATOM      7  C   UNL     1       0.725  11.061  18.771  0.00  0.00    +0.000 A 
ATOM      8  C   UNL     1       0.647  11.178  20.143  0.00  0.00    +0.000 A 
ATOM      9  O   UNL     1       1.080  10.013  20.744  0.00  0.00    +0.000 OA
BRANCH   8  10
ATOM     10  C   UNL     1       0.135  12.280  21.024  0.00  0.00    +0.000 C 
BRANCH  10  11
ATOM     11  N   UNL     1      -1.256  12.074  21.453  0.00  0.00    +0.000 NA
ATOM     12  C   UNL     1      -2.180  12.976  20.739  0.00  0.00    +0.000 C 
ATOM     13  C   UNL     1      -3.646  12.800  21.200  0.00  0.00    +0.000 C 
ATOM     14  N   UNL     1      -3.865  12.921  22.654  0.00  0.00    +0.000 NA
ATOM     15  C   UNL     1      -3.806  14.312  23.097  0.00  0.00    +0.000 C 
ATOM     16  C   UNL     1      -2.880  12.080  23.364  0.00  0.00    +0.000 C 
ATOM     17  C   UNL     1      -1.411  12.278  22.910  0.00  0.00    +0.000 C 
ENDBRANCH  10  11
ENDBRANCH   8  10
ENDBRANCH   2   5
BRANCH   1  18
ATOM     18  N   UNL     1       2.662   5.612  19.149  0.00  0.00    +0.000 N 
BRANCH  18  19
ATOM     19  C   UNL     1       3.729   5.228  18.275  0.00  0.00    +0.000 A 
ATOM     20  N   UNL     1       4.729   6.142  18.146  0.00  0.00    +0.000 NA
ATOM     21  C   UNL     1       5.775   5.860  17.336  0.00  0.00    +0.000 A 
ATOM     22  N   UNL     1       5.936   4.712  16.663  0.00  0.00    +0.000 NA
ATOM     23  C   UNL     1       4.953   3.825  16.803  0.00  0.00    +0.000 A 
ATOM     24  C   UNL     1       3.813   4.019  17.567  0.00  0.00    +0.000 A 
ATOM     25 BR   UNL     1       2.634   2.527  17.487  0.00  0.00    +0.000 Br
BRANCH  21  26
ATOM     26  C   UNL     1       6.809   6.860  17.163  0.00  0.00    +0.000 C 
ATOM     27  N   UNL     1       7.638   7.662  17.075  0.00  0.00    +0.000 NA
ENDBRANCH  21  26
ENDBRANCH  18  19
BRANCH  18  28
ATOM     28  C   UNL     1       2.796   5.137  20.538  0.00  0.00    +0.000 C 
BRANCH  28  30
ATOM     29  C   UNL     1       0.679   3.756  20.168  0.00  0.00    +0.000 C 
ATOM     30  C   UNL     1       1.853   4.064  21.077  0.00  0.00    +0.000 C 
ATOM     31  C   UNL     1       2.676   2.772  21.307  0.00  0.00    +0.000 C 
ENDBRANCH  28  30
ENDBRANCH  18  28
ENDBRANCH   1  18
TORSDOF 8
ENDMDL
MODEL 6
REMARK VINA RESULT:      -6.8      0.816      1.488
REMARK  Name = 
REMARK  11 active torsions:
REMARK  status: ('A' for Active; 'I' for Inactive)
REMARK    1  A    between atoms: C_1  and  C_2
REMARK    2  A    between atoms: C_2  and  C_3
REMARK    3  A    between atoms: C_2  and  C_4
REMARK    4  A    between atoms: C_4  and  N_5
REMARK    5  A    between atoms: N_5  and  N_6
REMARK    6  A    between atoms: N_5  and  C_22
REMARK    7  A    between atoms: C_7  and  C_9
REMARK    8  A    between atoms: C_12  and  C_13
REMARK    9  A    between atoms: C_13  and  N_14
REMARK   10  A    between atoms: N_17  and  C_18
REMARK   11  A    between atoms: C_24  and  C_25
REMARK                            x       y       z     vdW  Elec       q    Type
REMARK                         _______ _______ _______ _____ _____    ______ ____
ROOT
ATOM      1  N   UNL     1       4.025   5.973  18.279  0.00  0.00    +0.000 N 
ATOM      2  C   UNL     1       2.653   6.231  18.176  0.00  0.00    +0.000 C 
ATOM      3  O   UNL     1       1.843   5.400  17.769  0.00  0.00    +0.000 OA
ATOM      4  H   UNL     1       4.677   6.735  18.420  0.00  0.00    +0.000 HD
ENDROOT
BRANCH   2   5
ATOM      5  C   UNL     1       2.207   7.557  18.606  0.00  0.00    +0.000 A 
ATOM      6  C   UNL     1       1.876   8.651  17.821  0.00  0.00    +0.000 A 
ATOM      7  C   UNL     1       1.294   9.622  18.666  0.00  0.00    +0.000 A 
ATOM      8  C   UNL     1       1.320   9.091  19.939  0.00  0.00    +0.000 A 
ATOM      9  O   UNL     1       1.920   7.849  19.923  0.00  0.00    +0.000 OA
BRANCH   8  10
ATOM     10  C   UNL     1       0.772   9.595  21.242  0.00  0.00    +0.000 C 
BRANCH  10  11
ATOM     11  N   UNL     1       0.208  10.950  21.144  0.00  0.00    +0.000 NA
ATOM     12  C   UNL     1      -0.985  10.976  20.277  0.00  0.00    +0.000 C 
ATOM     13  C   UNL     1      -1.574  12.399  20.133  0.00  0.00    +0.000 C 
ATOM     14  N   UNL     1      -0.619  13.431  19.686  0.00  0.00    +0.000 NA
ATOM     15  C   UNL     1      -0.326  13.318  18.260  0.00  0.00    +0.000 C 
ATOM     16  C   UNL     1       0.607  13.341  20.505  0.00  0.00    +0.000 C 
ATOM     17  C   UNL     1       1.203  11.915  20.628  0.00  0.00    +0.000 C 
ENDBRANCH  10  11
ENDBRANCH   8  10
ENDBRANCH   2   5
BRANCH   1  18
ATOM     18  N   UNL     1       4.566   4.684  17.893  0.00  0.00    +0.000 N 
BRANCH  18  19
ATOM     19  C   UNL     1       5.575   4.824  16.887  0.00  0.00    +0.000 A 
ATOM     20  N   UNL     1       5.251   4.314  15.667  0.00  0.00    +0.000 NA
ATOM     21  C   UNL     1       6.150   4.400  14.660  0.00  0.00    +0.000 A 
ATOM     22  N   UNL     1       7.347   4.997  14.749  0.00  0.00    +0.000 NA
ATOM     23  C   UNL     1       7.647   5.498  15.945  0.00  0.00    +0.000 A 
ATOM     24  C   UNL     1       6.830   5.429  17.062  0.00  0.00    +0.000 A 
ATOM     25 BR   UNL     1       7.630   6.237  18.588  0.00  0.00    +0.000 Br
BRANCH  21  26
ATOM     26  C   UNL     1       5.818   3.807  13.380  0.00  0.00    +0.000 C 
ATOM     27  N   UNL     1       5.563   3.377  12.337  0.00  0.00    +0.000 NA
ENDBRANCH  21  26
ENDBRANCH  18  19
BRANCH  18  28
ATOM     28  C   UNL     1       4.913   3.769  18.995  0.00  0.00    +0.000 C 
BRANCH  28  30
ATOM     29  C   UNL     1       3.415   1.809  18.328  0.00  0.00    +0.000 C 
ATOM     30  C   UNL     1       3.920   2.700  19.448  0.00  0.00    +0.000 C 
ATOM     31  C   UNL     1       4.610   1.829  20.526  0.00  0.00    +0.000 C 
ENDBRANCH  28  30
ENDBRANCH  18  28
ENDBRANCH   1  18
TORSDOF 8
ENDMDL
MODEL 7
REMARK VINA RESULT:      -6.7      3.046      8.835
REMARK  Name = 
REMARK  11 active torsions:
REMARK  status: ('A' for Active; 'I' for Inactive)
REMARK    1  A    between atoms: C_1  and  C_2
REMARK    2  A    between atoms: C_2  and  C_3
REMARK    3  A    between atoms: C_2  and  C_4
REMARK    4  A    between atoms: C_4  and  N_5
REMARK    5  A    between atoms: N_5  and  N_6
REMARK    6  A    between atoms: N_5  and  C_22
REMARK    7  A    between atoms: C_7  and  C_9
REMARK    8  A    between atoms: C_12  and  C_13
REMARK    9  A    between atoms: C_13  and  N_14
REMARK   10  A    between atoms: N_17  and  C_18
REMARK   11  A    between atoms: C_24  and  C_25
REMARK                            x       y       z     vdW  Elec       q    Type
REMARK                         _______ _______ _______ _____ _____    ______ ____
ROOT
ATOM      1  N   UNL     1       1.440   9.012  17.962  0.00  0.00    +0.000 N 
ATOM      2  C   UNL     1       2.080   8.025  18.721  0.00  0.00    +0.000 C 
ATOM      3  O   UNL     1       1.801   7.795  19.897  0.00  0.00    +0.000 OA
ATOM      4  H   UNL     1       1.831   9.307  17.076  0.00  0.00    +0.000 HD
ENDROOT
BRANCH   2   5
ATOM      5  C   UNL     1       3.107   7.240  18.033  0.00  0.00    +0.000 A 
ATOM      6  C   UNL     1       4.432   7.574  17.798  0.00  0.00    +0.000 A 
ATOM      7  C   UNL     1       5.081   6.420  17.305  0.00  0.00    +0.000 A 
ATOM      8  C   UNL     1       4.117   5.437  17.231  0.00  0.00    +0.000 A 
ATOM      9  O   UNL     1       2.894   5.940  17.628  0.00  0.00    +0.000 OA
BRANCH   8  10
ATOM     10  C   UNL     1       4.200   3.981  16.873  0.00  0.00    +0.000 C 
BRANCH  10  11
ATOM     11  N   UNL     1       3.656   3.100  17.917  0.00  0.00    +0.000 NA
ATOM     12  C   UNL     1       2.184   3.034  17.853  0.00  0.00    +0.000 C 
ATOM     13  C   UNL     1       1.588   2.139  18.964  0.00  0.00    +0.000 C 
ATOM     14  N   UNL     1       2.007   2.480  20.338  0.00  0.00    +0.000 NA
ATOM     15  C   UNL     1       1.331   3.679  20.827  0.00  0.00    +0.000 C 
ATOM     16  C   UNL     1       3.476   2.628  20.372  0.00  0.00    +0.000 C 
ATOM     17  C   UNL     1       4.063   3.543  19.268  0.00  0.00    +0.000 C 
ENDBRANCH  10  11
ENDBRANCH   8  10
ENDBRANCH   2   5
BRANCH   1  18
ATOM     18  N   UNL     1       0.397   9.833  18.548  0.00  0.00    +0.000 N 
BRANCH  18  19
ATOM     19  C   UNL     1       0.951  10.939  19.269  0.00  0.00    +0.000 A 
ATOM     20  N   UNL     1       1.685  11.809  18.523  0.00  0.00    +0.000 NA
ATOM     21  C   UNL     1       2.247  12.881  19.127  0.00  0.00    +0.000 A 
ATOM     22  N   UNL     1       2.107  13.191  20.424  0.00  0.00    +0.000 NA
ATOM     23  C   UNL     1       1.381  12.335  21.141  0.00  0.00    +0.000 A 
ATOM     24  C   UNL     1       0.796  11.182  20.644  0.00  0.00    +0.000 A 
ATOM     25 BR   UNL     1      -0.135  10.211  21.991  0.00  0.00    +0.000 Br
BRANCH  21  26
ATOM     26  C   UNL     1       3.070  13.772  18.336  0.00  0.00    +0.000 C 
ATOM     27  N   UNL     1       3.715  14.457  17.664  0.00  0.00    +0.000 NA
ENDBRANCH  21  26
ENDBRANCH  18  19
BRANCH  18  28
ATOM     28  C   UNL     1      -0.733  10.172  17.665  0.00  0.00    +0.000 C 
BRANCH  28  30
ATOM     29  C   UNL     1      -2.565  11.657  18.651  0.00  0.00    +0.000 C 
ATOM     30  C   UNL     1      -2.150  10.259  18.230  0.00  0.00    +0.000 C 
ATOM     31  C   UNL     1      -3.130   9.735  17.153  0.00  0.00    +0.000 C 
ENDBRANCH  28  30
ENDBRANCH  18  28
ENDBRANCH   1  18
TORSDOF 8
ENDMDL
MODEL 8
REMARK VINA RESULT:      -6.7      2.201      3.181
REMARK  Name = 
REMARK  11 active torsions:
REMARK  status: ('A' for Active; 'I' for Inactive)
REMARK    1  A    between atoms: C_1  and  C_2
REMARK    2  A    between atoms: C_2  and  C_3
REMARK    3  A    between atoms: C_2  and  C_4
REMARK    4  A    between atoms: C_4  and  N_5
REMARK    5  A    between atoms: N_5  and  N_6
REMARK    6  A    between atoms: N_5  and  C_22
REMARK    7  A    between atoms: C_7  and  C_9
REMARK    8  A    between atoms: C_12  and  C_13
REMARK    9  A    between atoms: C_13  and  N_14
REMARK   10  A    between atoms: N_17  and  C_18
REMARK   11  A    between atoms: C_24  and  C_25
REMARK                            x       y       z     vdW  Elec       q    Type
REMARK                         _______ _______ _______ _____ _____    ______ ____
ROOT
ATOM      1  N   UNL     1       3.812   5.997  19.090  0.00  0.00    +0.000 N 
ATOM      2  C   UNL     1       2.529   6.327  18.638  0.00  0.00    +0.000 C 
ATOM      3  O   UNL     1       1.955   5.716  17.738  0.00  0.00    +0.000 OA
ATOM      4  H   UNL     1       4.325   6.640  19.680  0.00  0.00    +0.000 HD
ENDROOT
BRANCH   2   5
ATOM      5  C   UNL     1       1.869   7.445  19.316  0.00  0.00    +0.000 A 
ATOM      6  C   UNL     1       1.708   7.653  20.676  0.00  0.00    +0.000 A 
ATOM      7  C   UNL     1       1.214   8.964  20.852  0.00  0.00    +0.000 A 
ATOM      8  C   UNL     1       1.066   9.494  19.588  0.00  0.00    +0.000 A 
ATOM      9  O   UNL     1       1.417   8.557  18.637  0.00  0.00    +0.000 OA
BRANCH   8  10
ATOM     10  C   UNL     1       0.672  10.864  19.119  0.00  0.00    +0.000 C 
BRANCH  10  11
ATOM     11  N   UNL     1       1.621  11.909  19.529  0.00  0.00    +0.000 NA
ATOM     12  C   UNL     1       1.014  12.838  20.501  0.00  0.00    +0.000 C 
ATOM     13  C   UNL     1       1.986  13.966  20.921  0.00  0.00    +0.000 C 
ATOM     14  N   UNL     1       2.574  14.734  19.807  0.00  0.00    +0.000 NA
ATOM     15  C   UNL     1       1.613  15.666  19.224  0.00  0.00    +0.000 C 
ATOM     16  C   UNL     1       3.105  13.793  18.799  0.00  0.00    +0.000 C 
ATOM     17  C   UNL     1       2.117  12.678  18.368  0.00  0.00    +0.000 C 
ENDBRANCH  10  11
ENDBRANCH   8  10
ENDBRANCH   2   5
BRANCH   1  18
ATOM     18  N   UNL     1       4.543   4.895  18.494  0.00  0.00    +0.000 N 
BRANCH  18  19
ATOM     19  C   UNL     1       5.609   5.368  17.663  0.00  0.00    +0.000 A 
ATOM     20  N   UNL     1       6.247   6.482  18.116  0.00  0.00    +0.000 NA
ATOM     21  C   UNL     1       7.264   6.998  17.389  0.00  0.00    +0.000 A 
ATOM     22  N   UNL     1       7.738   6.471  16.251  0.00  0.00    +0.000 NA
ATOM     23  C   UNL     1       7.110   5.378  15.823  0.00  0.00    +0.000 A 
ATOM     24  C   UNL     1       6.028   4.786  16.456  0.00  0.00    +0.000 A 
ATOM     25 BR   UNL     1       5.394   3.259  15.514  0.00  0.00    +0.000 Br
BRANCH  21  26
ATOM     26  C   UNL     1       7.902   8.213  17.852  0.00  0.00    +0.000 C 
ATOM     27  N   UNL     1       8.456   9.159  18.222  0.00  0.00    +0.000 NA
ENDBRANCH  21  26
ENDBRANCH  18  19
BRANCH  18  28
ATOM     28  C   UNL     1       4.908   3.792  19.401  0.00  0.00    +0.000 C 
BRANCH  28  30
ATOM     29  C   UNL     1       2.874   2.983  20.720  0.00  0.00    +0.000 C 
ATOM     30  C   UNL     1       3.919   2.659  19.668  0.00  0.00    +0.000 C 
ATOM     31  C   UNL     1       3.213   2.312  18.334  0.00  0.00    +0.000 C 
ENDBRANCH  28  30
ENDBRANCH  18  28
ENDBRANCH   1  18
TORSDOF 8
ENDMDL
MODEL 9
REMARK VINA RESULT:      -6.7      4.092     10.051
REMARK  Name = 
REMARK  11 active torsions:
REMARK  status: ('A' for Active; 'I' for Inactive)
REMARK    1  A    between atoms: C_1  and  C_2
REMARK    2  A    between atoms: C_2  and  C_3
REMARK    3  A    between atoms: C_2  and  C_4
REMARK    4  A    between atoms: C_4  and  N_5
REMARK    5  A    between atoms: N_5  and  N_6
REMARK    6  A    between atoms: N_5  and  C_22
REMARK    7  A    between atoms: C_7  and  C_9
REMARK    8  A    between atoms: C_12  and  C_13
REMARK    9  A    between atoms: C_13  and  N_14
REMARK   10  A    between atoms: N_17  and  C_18
REMARK   11  A    between atoms: C_24  and  C_25
REMARK                            x       y       z     vdW  Elec       q    Type
REMARK                         _______ _______ _______ _____ _____    ______ ____
ROOT
ATOM      1  N   UNL     1      -0.806  10.932  20.067  0.00  0.00    +0.000 N 
ATOM      2  C   UNL     1       0.469  10.607  19.589  0.00  0.00    +0.000 C 
ATOM      3  O   UNL     1       1.108  11.336  18.832  0.00  0.00    +0.000 OA
ATOM      4  H   UNL     1      -1.376  10.225  20.516  0.00  0.00    +0.000 HD
ENDROOT
BRANCH   2   5
ATOM      5  C   UNL     1       1.038   9.343  20.060  0.00  0.00    +0.000 A 
ATOM      6  C   UNL     1       0.690   8.607  21.182  0.00  0.00    +0.000 A 
ATOM      7  C   UNL     1       1.352   7.362  21.098  0.00  0.00    +0.000 A 
ATOM      8  C   UNL     1       2.102   7.401  19.942  0.00  0.00    +0.000 A 
ATOM      9  O   UNL     1       1.956   8.626  19.323  0.00  0.00    +0.000 OA
BRANCH   8  10
ATOM     10  C   UNL     1       2.944   6.361  19.262  0.00  0.00    +0.000 C 
BRANCH  10  11
ATOM     11  N   UNL     1       2.285   5.049  19.183  0.00  0.00    +0.000 NA
ATOM     12  C   UNL     1       2.737   4.152  20.263  0.00  0.00    +0.000 C 
ATOM     13  C   UNL     1       2.082   2.754  20.178  0.00  0.00    +0.000 C 
ATOM     14  N   UNL     1       2.226   2.071  18.878  0.00  0.00    +0.000 NA
ATOM     15  C   UNL     1       3.575   1.541  18.692  0.00  0.00    +0.000 C 
ATOM     16  C   UNL     1       1.852   3.005  17.797  0.00  0.00    +0.000 C 
ATOM     17  C   UNL     1       2.529   4.397  17.878  0.00  0.00    +0.000 C 
ENDBRANCH  10  11
ENDBRANCH   8  10
ENDBRANCH   2   5
BRANCH   1  18
ATOM     18  N   UNL     1      -1.450  12.170  19.672  0.00  0.00    +0.000 N 
BRANCH  18  19
ATOM     19  C   UNL     1      -2.610  11.919  18.872  0.00  0.00    +0.000 A 
ATOM     20  N   UNL     1      -2.361  11.423  17.629  0.00  0.00    +0.000 NA
ATOM     21  C   UNL     1      -3.401  11.162  16.805  0.00  0.00    +0.000 A 
ATOM     22  N   UNL     1      -4.693  11.315  17.129  0.00  0.00    +0.000 NA
ATOM     23  C   UNL     1      -4.923  11.794  18.350  0.00  0.00    +0.000 A 
ATOM     24  C   UNL     1      -3.940  12.141  19.263  0.00  0.00    +0.000 A 
ATOM     25 BR   UNL     1      -4.674  12.816  20.884  0.00  0.00    +0.000 Br
BRANCH  21  26
ATOM     26  C   UNL     1      -3.124  10.684  15.466  0.00  0.00    +0.000 C 
ATOM     27  N   UNL     1      -2.877  10.345  14.388  0.00  0.00    +0.000 NA
ENDBRANCH  21  26
ENDBRANCH  18  19
BRANCH  18  28
ATOM     28  C   UNL     1      -1.636  13.173  20.736  0.00  0.00    +0.000 C 
BRANCH  28  30
ATOM     29  C   UNL     1      -0.486  14.380  22.673  0.00  0.00    +0.000 C 
ATOM     30  C   UNL     1      -0.867  13.049  22.050  0.00  0.00    +0.000 C 
ATOM     31  C   UNL     1      -1.742  12.249  23.046  0.00  0.00    +0.000 C 
ENDBRANCH  28  30
ENDBRANCH  18  28
ENDBRANCH   1  18
TORSDOF 8
ENDMDL
