MODEL 1
REMARK VINA RESULT:      -9.1      0.000      0.000
REMARK  Name = 
REMARK  7 active torsions:
REMARK  status: ('A' for Active; 'I' for Inactive)
REMARK    1  A    between atoms: N_1  and  C_2
REMARK    2  A    between atoms: C_2  and  C_3
REMARK    3  A    between atoms: C_2  and  C_21
REMARK    4  A    between atoms: C_3  and  O_4
REMARK    5  A    between atoms: O_4  and  C_5
REMARK    6  A    between atoms: C_9  and  C_10
REMARK    7  A    between atoms: C_21  and  C_22
REMARK                            x       y       z     vdW  Elec       q    Type
REMARK                         _______ _______ _______ _____ _____    ______ ____
ROOT
ATOM      1  O   UNL     1       3.100   5.264  19.757  0.00  0.00    +0.000 OA
ENDROOT
BRANCH   1   2
ATOM      2  C   UNL     1       2.580   6.494  19.469  0.00  0.00    +0.000 A 
ATOM      3  C   UNL     1       2.833   6.999  18.202  0.00  0.00    +0.000 A 
ATOM      4  N   UNL     1       2.415   8.209  17.767  0.00  0.00    +0.000 NA
ATOM      5  C   UNL     1       1.702   8.949  18.649  0.00  0.00    +0.000 A 
ATOM      6  C   UNL     1       1.374   8.557  19.950  0.00  0.00    +0.000 A 
ATOM      7  C   UNL     1       1.838   7.290  20.339  0.00  0.00    +0.000 A 
BRANCH   6   8
ATOM      8  C   UNL     1       0.604   9.416  20.875  0.00  0.00    +0.000 A 
ATOM      9  C   UNL     1       0.336   9.007  22.196  0.00  0.00    +0.000 A 
ATOM     10  C   UNL     1      -0.392   9.791  23.101  0.00  0.00    +0.000 A 
ATOM     11  C   UNL     1      -0.873  11.015  22.632  0.00  0.00    +0.000 A 
ATOM     12  N   UNL     1      -1.607  11.999  23.239  0.00  0.00    +0.000 N 
ATOM     13  N   UNL     1      -1.885  13.048  22.444  0.00  0.00    +0.000 NA
ATOM     14  C   UNL     1      -1.300  12.724  21.292  0.00  0.00    +0.000 A 
ATOM     15 CL   UNL     1      -1.386  13.762  19.953  0.00  0.00    +0.000 Cl
ATOM     16  C   UNL     1      -0.647  11.469  21.339  0.00  0.00    +0.000 A 
ATOM     17  C   UNL     1       0.101  10.668  20.456  0.00  0.00    +0.000 A 
ATOM     18  H   UNL     1      -1.951  12.011  24.192  0.00  0.00    +0.000 HD
ENDBRANCH   6   8
ENDBRANCH   1   2
BRANCH   1  19
ATOM     19  C   UNL     1       3.128   4.319  18.679  0.00  0.00    +0.000 C 
BRANCH  19  20
ATOM     20  C   UNL     1       4.583   4.038  18.258  0.00  0.00    +0.000 C 
BRANCH  20  21
ATOM     21  N   UNL     1       5.158   3.009  19.147  0.00  0.00    +0.000 NA
ATOM     22  H   UNL     1       4.580   2.946  19.988  0.00  0.00    +0.000 HD
ATOM     23  H   UNL     1       6.067   3.342  19.474  0.00  0.00    +0.000 HD
ENDBRANCH  20  21
BRANCH  20  24
ATOM     24  C   UNL     1       4.647   3.661  16.760  0.00  0.00    +0.000 C 
BRANCH  24  25
ATOM     25  C   UNL     1       5.727   4.381  16.012  0.00  0.00    +0.000 A 
ATOM     26  C   UNL     1       6.604   5.317  16.523  0.00  0.00    +0.000 A 
ATOM     27  N   UNL     1       7.437   5.721  15.516  0.00  0.00    +0.000 N 
ATOM     28  C   UNL     1       7.122   5.068  14.346  0.00  0.00    +0.000 A 
ATOM     29  C   UNL     1       7.700   5.163  13.075  0.00  0.00    +0.000 A 
ATOM     30  C   UNL     1       7.170   4.361  12.060  0.00  0.00    +0.000 A 
ATOM     31  C   UNL     1       6.105   3.499  12.308  0.00  0.00    +0.000 A 
ATOM     32  C   UNL     1       5.537   3.421  13.583  0.00  0.00    +0.000 A 
ATOM     33  C   UNL     1       6.051   4.221  14.625  0.00  0.00    +0.000 A 
ATOM     34  H   UNL     1       8.179   6.400  15.609  0.00  0.00    +0.000 HD
ENDBRANCH  24  25
ENDBRANCH  20  24
ENDBRANCH  19  20
ENDBRANCH   1  19
TORSDOF 7
ENDMDL
MODEL 2
REMARK VINA RESULT:      -9.0      3.758     11.000
REMARK  Name = 
REMARK  7 active torsions:
REMARK  status: ('A' for Active; 'I' for Inactive)
REMARK    1  A    between atoms: N_1  and  C_2
REMARK    2  A    between atoms: C_2  and  C_3
REMARK    3  A    between atoms: C_2  and  C_21
REMARK    4  A    between atoms: C_3  and  O_4
REMARK    5  A    between atoms: O_4  and  C_5
REMARK    6  A    between atoms: C_9  and  C_10
REMARK    7  A    between atoms: C_21  and  C_22
REMARK                            x       y       z     vdW  Elec       q    Type
REMARK                         _______ _______ _______ _____ _____    ______ ____
ROOT
ATOM      1  O   UNL     1       0.533  10.125  20.880  0.00  0.00    +0.000 OA
ENDROOT
BRANCH   1   2
ATOM      2  C   UNL     1       1.157   9.472  19.855  0.00  0.00    +0.000 A 
ATOM      3  C   UNL     1       1.084  10.061  18.602  0.00  0.00    +0.000 A 
ATOM      4  N   UNL     1       1.624   9.533  17.480  0.00  0.00    +0.000 NA
ATOM      5  C   UNL     1       2.273   8.353  17.625  0.00  0.00    +0.000 A 
ATOM      6  C   UNL     1       2.422   7.658  18.829  0.00  0.00    +0.000 A 
ATOM      7  C   UNL     1       1.839   8.261  19.955  0.00  0.00    +0.000 A 
BRANCH   6   8
ATOM      8  C   UNL     1       3.130   6.364  18.923  0.00  0.00    +0.000 A 
ATOM      9  C   UNL     1       4.263   6.094  18.130  0.00  0.00    +0.000 A 
ATOM     10  C   UNL     1       4.960   4.880  18.189  0.00  0.00    +0.000 A 
ATOM     11  C   UNL     1       4.470   3.913  19.069  0.00  0.00    +0.000 A 
ATOM     12  N   UNL     1       4.900   2.646  19.361  0.00  0.00    +0.000 N 
ATOM     13  N   UNL     1       4.151   2.009  20.278  0.00  0.00    +0.000 NA
ATOM     14  C   UNL     1       3.214   2.905  20.586  0.00  0.00    +0.000 A 
ATOM     15 CL   UNL     1       2.009   2.544  21.723  0.00  0.00    +0.000 Cl
ATOM     16  C   UNL     1       3.356   4.118  19.871  0.00  0.00    +0.000 A 
ATOM     17  C   UNL     1       2.684   5.353  19.803  0.00  0.00    +0.000 A 
ATOM     18  H   UNL     1       5.697   2.160  18.966  0.00  0.00    +0.000 HD
ENDBRANCH   6   8
ENDBRANCH   1   2
BRANCH   1  19
ATOM     19  C   UNL     1      -0.480   9.387  21.578  0.00  0.00    +0.000 C 
BRANCH  19  20
ATOM     20  C   UNL     1      -0.795  10.066  22.925  0.00  0.00    +0.000 C 
BRANCH  20  21
ATOM     21  N   UNL     1       0.162   9.594  23.945  0.00  0.00    +0.000 NA
ATOM     22  H   UNL     1       1.109   9.815  23.629  0.00  0.00    +0.000 HD
ATOM     23  H   UNL     1       0.122   8.574  23.972  0.00  0.00    +0.000 HD
ENDBRANCH  20  21
BRANCH  20  24
ATOM     24  C   UNL     1      -0.812  11.603  22.763  0.00  0.00    +0.000 C 
BRANCH  24  25
ATOM     25  C   UNL     1      -2.080  12.122  22.156  0.00  0.00    +0.000 A 
ATOM     26  C   UNL     1      -2.292  12.438  20.828  0.00  0.00    +0.000 A 
ATOM     27  N   UNL     1      -3.584  12.865  20.689  0.00  0.00    +0.000 N 
ATOM     28  C   UNL     1      -4.229  12.838  21.905  0.00  0.00    +0.000 A 
ATOM     29  C   UNL     1      -5.543  13.183  22.238  0.00  0.00    +0.000 A 
ATOM     30  C   UNL     1      -5.931  13.047  23.574  0.00  0.00    +0.000 A 
ATOM     31  C   UNL     1      -5.039  12.584  24.537  0.00  0.00    +0.000 A 
ATOM     32  C   UNL     1      -3.727  12.248  24.187  0.00  0.00    +0.000 A 
ATOM     33  C   UNL     1      -3.309  12.378  22.846  0.00  0.00    +0.000 A 
ATOM     34  H   UNL     1      -4.012  13.158  19.822  0.00  0.00    +0.000 HD
ENDBRANCH  24  25
ENDBRANCH  20  24
ENDBRANCH  19  20
ENDBRANCH   1  19
TORSDOF 7
ENDMDL
MODEL 3
REMARK VINA RESULT:      -8.9      3.412      9.768
REMARK  Name = 
REMARK  7 active torsions:
REMARK  status: ('A' for Active; 'I' for Inactive)
REMARK    1  A    between atoms: N_1  and  C_2
REMARK    2  A    between atoms: C_2  and  C_3
REMARK    3  A    between atoms: C_2  and  C_21
REMARK    4  A    between atoms: C_3  and  O_4
REMARK    5  A    between atoms: O_4  and  C_5
REMARK    6  A    between atoms: C_9  and  C_10
REMARK    7  A    between atoms: C_21  and  C_22
REMARK                            x       y       z     vdW  Elec       q    Type
REMARK                         _______ _______ _______ _____ _____    ______ ____
ROOT
ATOM      1  O   UNL     1       1.051   6.539  21.086  0.00  0.00    +0.000 OA
ENDROOT
BRANCH   1   2
ATOM      2  C   UNL     1       1.751   5.614  20.363  0.00  0.00    +0.000 A 
ATOM      3  C   UNL     1       1.356   4.291  20.494  0.00  0.00    +0.000 A 
ATOM      4  N   UNL     1       1.958   3.253  19.870  0.00  0.00    +0.000 NA
ATOM      5  C   UNL     1       3.008   3.560  19.072  0.00  0.00    +0.000 A 
ATOM      6  C   UNL     1       3.502   4.848  18.852  0.00  0.00    +0.000 A 
ATOM      7  C   UNL     1       2.833   5.881  19.527  0.00  0.00    +0.000 A 
BRANCH   6   8
ATOM      8  C   UNL     1       4.664   5.121  17.979  0.00  0.00    +0.000 A 
ATOM      9  C   UNL     1       5.751   5.893  18.433  0.00  0.00    +0.000 A 
ATOM     10  C   UNL     1       6.868   6.176  17.636  0.00  0.00    +0.000 A 
ATOM     11  C   UNL     1       6.861   5.668  16.336  0.00  0.00    +0.000 A 
ATOM     12  N   UNL     1       7.771   5.760  15.317  0.00  0.00    +0.000 N 
ATOM     13  N   UNL     1       7.398   5.130  14.188  0.00  0.00    +0.000 NA
ATOM     14  C   UNL     1       6.212   4.611  14.503  0.00  0.00    +0.000 A 
ATOM     15 CL   UNL     1       5.330   3.712  13.367  0.00  0.00    +0.000 Cl
ATOM     16  C   UNL     1       5.817   4.906  15.829  0.00  0.00    +0.000 A 
ATOM     17  C   UNL     1       4.714   4.624  16.657  0.00  0.00    +0.000 A 
ATOM     18  H   UNL     1       8.663   6.241  15.329  0.00  0.00    +0.000 HD
ENDBRANCH   6   8
ENDBRANCH   1   2
BRANCH   1  19
ATOM     19  C   UNL     1       1.420   7.911  20.886  0.00  0.00    +0.000 C 
BRANCH  19  20
ATOM     20  C   UNL     1       0.169   8.809  20.933  0.00  0.00    +0.000 C 
BRANCH  20  21
ATOM     21  N   UNL     1      -0.286   8.939  22.331  0.00  0.00    +0.000 NA
ATOM     22  H   UNL     1      -1.283   9.162  22.329  0.00  0.00    +0.000 HD
ATOM     23  H   UNL     1       0.170   9.757  22.739  0.00  0.00    +0.000 HD
ENDBRANCH  20  21
BRANCH  20  24
ATOM     24  C   UNL     1       0.456  10.166  20.250  0.00  0.00    +0.000 C 
BRANCH  24  25
ATOM     25  C   UNL     1      -0.786  10.913  19.869  0.00  0.00    +0.000 A 
ATOM     26  C   UNL     1      -1.388  11.933  20.580  0.00  0.00    +0.000 A 
ATOM     27  N   UNL     1      -2.489  12.350  19.883  0.00  0.00    +0.000 N 
ATOM     28  C   UNL     1      -2.625  11.620  18.724  0.00  0.00    +0.000 A 
ATOM     29  C   UNL     1      -3.592  11.698  17.716  0.00  0.00    +0.000 A 
ATOM     30  C   UNL     1      -3.474  10.820  16.634  0.00  0.00    +0.000 A 
ATOM     31  C   UNL     1      -2.429   9.903  16.565  0.00  0.00    +0.000 A 
ATOM     32  C   UNL     1      -1.474   9.836  17.584  0.00  0.00    +0.000 A 
ATOM     33  C   UNL     1      -1.572  10.708  18.689  0.00  0.00    +0.000 A 
ATOM     34  H   UNL     1      -3.117  13.087  20.170  0.00  0.00    +0.000 HD
ENDBRANCH  24  25
ENDBRANCH  20  24
ENDBRANCH  19  20
ENDBRANCH   1  19
TORSDOF 7
ENDMDL
MODEL 4
REMARK VINA RESULT:      -8.8      1.316      2.020
REMARK  Name = 
REMARK  7 active torsions:
REMARK  status: ('A' for Active; 'I' for Inactive)
REMARK    1  A    between atoms: N_1  and  C_2
REMARK    2  A    between atoms: C_2  and  C_3
REMARK    3  A    between atoms: C_2  and  C_21
REMARK    4  A    between atoms: C_3  and  O_4
REMARK    5  A    between atoms: O_4  and  C_5
REMARK    6  A    between atoms: C_9  and  C_10
REMARK    7  A    between atoms: C_21  and  C_22
REMARK                            x       y       z     vdW  Elec       q    Type
REMARK                         _______ _______ _______ _____ _____    ______ ____
ROOT
ATOM      1  O   UNL     1       1.968   4.751  20.384  0.00  0.00    +0.000 OA
ENDROOT
BRANCH   1   2
ATOM      2  C   UNL     1       1.892   6.077  20.063  0.00  0.00    +0.000 A 
ATOM      3  C   UNL     1       2.573   6.485  18.926  0.00  0.00    +0.000 A 
ATOM      4  N   UNL     1       2.621   7.763  18.486  0.00  0.00    +0.000 NA
ATOM      5  C   UNL     1       1.947   8.677  19.224  0.00  0.00    +0.000 A 
ATOM      6  C   UNL     1       1.220   8.398  20.384  0.00  0.00    +0.000 A 
ATOM      7  C   UNL     1       1.210   7.053  20.786  0.00  0.00    +0.000 A 
BRANCH   6   8
ATOM      8  C   UNL     1       0.515   9.442  21.157  0.00  0.00    +0.000 A 
ATOM      9  C   UNL     1       0.092   9.208  22.481  0.00  0.00    +0.000 A 
ATOM     10  C   UNL     1      -0.580  10.170  23.245  0.00  0.00    +0.000 A 
ATOM     11  C   UNL     1      -0.841  11.396  22.629  0.00  0.00    +0.000 A 
ATOM     12  N   UNL     1      -1.468  12.527  23.080  0.00  0.00    +0.000 N 
ATOM     13  N   UNL     1      -1.530  13.520  22.175  0.00  0.00    +0.000 NA
ATOM     14  C   UNL     1      -0.913  13.005  21.112  0.00  0.00    +0.000 A 
ATOM     15 CL   UNL     1      -0.747  13.907  19.685  0.00  0.00    +0.000 Cl
ATOM     16  C   UNL     1      -0.455  11.684  21.327  0.00  0.00    +0.000 A 
ATOM     17  C   UNL     1       0.233  10.704  20.587  0.00  0.00    +0.000 A 
ATOM     18  H   UNL     1      -1.877  12.682  23.995  0.00  0.00    +0.000 HD
ENDBRANCH   6   8
ENDBRANCH   1   2
BRANCH   1  19
ATOM     19  C   UNL     1       1.231   3.852  19.544  0.00  0.00    +0.000 C 
BRANCH  19  20
ATOM     20  C   UNL     1       2.156   2.738  19.019  0.00  0.00    +0.000 C 
BRANCH  20  21
ATOM     21  N   UNL     1       1.396   1.475  18.930  0.00  0.00    +0.000 NA
ATOM     22  H   UNL     1       1.158   1.172  19.877  0.00  0.00    +0.000 HD
ATOM     23  H   UNL     1       2.020   0.752  18.567  0.00  0.00    +0.000 HD
ENDBRANCH  20  21
BRANCH  20  24
ATOM     24  C   UNL     1       2.802   3.162  17.680  0.00  0.00    +0.000 C 
BRANCH  24  25
ATOM     25  C   UNL     1       4.221   3.620  17.824  0.00  0.00    +0.000 A 
ATOM     26  C   UNL     1       4.945   3.710  18.996  0.00  0.00    +0.000 A 
ATOM     27  N   UNL     1       6.202   4.159  18.692  0.00  0.00    +0.000 N 
ATOM     28  C   UNL     1       6.318   4.369  17.337  0.00  0.00    +0.000 A 
ATOM     29  C   UNL     1       7.407   4.820  16.583  0.00  0.00    +0.000 A 
ATOM     30  C   UNL     1       7.236   4.932  15.199  0.00  0.00    +0.000 A 
ATOM     31  C   UNL     1       6.024   4.605  14.597  0.00  0.00    +0.000 A 
ATOM     32  C   UNL     1       4.945   4.161  15.367  0.00  0.00    +0.000 A 
ATOM     33  C   UNL     1       5.090   4.041  16.765  0.00  0.00    +0.000 A 
ATOM     34  H   UNL     1       6.943   4.316  19.360  0.00  0.00    +0.000 HD
ENDBRANCH  24  25
ENDBRANCH  20  24
ENDBRANCH  19  20
ENDBRANCH   1  19
TORSDOF 7
ENDMDL
MODEL 5
REMARK VINA RESULT:      -8.6      3.588     11.187
REMARK  Name = 
REMARK  7 active torsions:
REMARK  status: ('A' for Active; 'I' for Inactive)
REMARK    1  A    between atoms: N_1  and  C_2
REMARK    2  A    between atoms: C_2  and  C_3
REMARK    3  A    between atoms: C_2  and  C_21
REMARK    4  A    between atoms: C_3  and  O_4
REMARK    5  A    between atoms: O_4  and  C_5
REMARK    6  A    between atoms: C_9  and  C_10
REMARK    7  A    between atoms: C_21  and  C_22
REMARK                            x       y       z     vdW  Elec       q    Type
REMARK                         _______ _______ _______ _____ _____    ______ ____
ROOT
ATOM      1  O   UNL     1       0.820   9.779  21.483  0.00  0.00    +0.000 OA
ENDROOT
BRANCH   1   2
ATOM      2  C   UNL     1       1.263   9.376  20.255  0.00  0.00    +0.000 A 
ATOM      3  C   UNL     1       1.100  10.270  19.207  0.00  0.00    +0.000 A 
ATOM      4  N   UNL     1       1.459  10.016  17.928  0.00  0.00    +0.000 NA
ATOM      5  C   UNL     1       2.013   8.804  17.690  0.00  0.00    +0.000 A 
ATOM      6  C   UNL     1       2.238   7.817  18.654  0.00  0.00    +0.000 A 
ATOM      7  C   UNL     1       1.843   8.144  19.962  0.00  0.00    +0.000 A 
BRANCH   6   8
ATOM      8  C   UNL     1       2.835   6.504  18.331  0.00  0.00    +0.000 A 
ATOM      9  C   UNL     1       4.133   6.408  17.792  0.00  0.00    +0.000 A 
ATOM     10  C   UNL     1       4.733   5.183  17.470  0.00  0.00    +0.000 A 
ATOM     11  C   UNL     1       3.975   4.032  17.690  0.00  0.00    +0.000 A 
ATOM     12  N   UNL     1       4.251   2.706  17.485  0.00  0.00    +0.000 N 
ATOM     13  N   UNL     1       3.247   1.877  17.822  0.00  0.00    +0.000 NA
ATOM     14  C   UNL     1       2.301   2.703  18.265  0.00  0.00    +0.000 A 
ATOM     15 CL   UNL     1       0.810   2.104  18.806  0.00  0.00    +0.000 Cl
ATOM     16  C   UNL     1       2.689   4.063  18.214  0.00  0.00    +0.000 A 
ATOM     17  C   UNL     1       2.117   5.306  18.542  0.00  0.00    +0.000 A 
ATOM     18  H   UNL     1       5.105   2.305  17.116  0.00  0.00    +0.000 HD
ENDBRANCH   6   8
ENDBRANCH   1   2
BRANCH   1  19
ATOM     19  C   UNL     1       0.096  11.016  21.521  0.00  0.00    +0.000 C 
BRANCH  19  20
ATOM     20  C   UNL     1      -1.084  10.909  22.506  0.00  0.00    +0.000 C 
BRANCH  20  21
ATOM     21  N   UNL     1      -0.712  10.011  23.617  0.00  0.00    +0.000 NA
ATOM     22  H   UNL     1      -0.479  10.581  24.432  0.00  0.00    +0.000 HD
ATOM     23  H   UNL     1       0.157   9.537  23.366  0.00  0.00    +0.000 HD
ENDBRANCH  20  21
BRANCH  20  24
ATOM     24  C   UNL     1      -1.524  12.315  22.973  0.00  0.00    +0.000 C 
BRANCH  24  25
ATOM     25  C   UNL     1      -3.011  12.465  23.089  0.00  0.00    +0.000 A 
ATOM     26  C   UNL     1      -3.754  12.456  24.252  0.00  0.00    +0.000 A 
ATOM     27  N   UNL     1      -5.070  12.634  23.922  0.00  0.00    +0.000 N 
ATOM     28  C   UNL     1      -5.208  12.758  22.559  0.00  0.00    +0.000 A 
ATOM     29  C   UNL     1      -6.354  12.952  21.780  0.00  0.00    +0.000 A 
ATOM     30  C   UNL     1      -6.189  13.051  20.395  0.00  0.00    +0.000 A 
ATOM     31  C   UNL     1      -4.927  12.958  19.814  0.00  0.00    +0.000 A 
ATOM     32  C   UNL     1      -3.793  12.759  20.607  0.00  0.00    +0.000 A 
ATOM     33  C   UNL     1      -3.932  12.654  22.008  0.00  0.00    +0.000 A 
ATOM     34  H   UNL     1      -5.837  12.671  24.579  0.00  0.00    +0.000 HD
ENDBRANCH  24  25
ENDBRANCH  20  24
ENDBRANCH  19  20
ENDBRANCH   1  19
TORSDOF 7
ENDMDL
MODEL 6
REMARK VINA RESULT:      -8.6      2.668      4.592
REMARK  Name = 
REMARK  7 active torsions:
REMARK  status: ('A' for Active; 'I' for Inactive)
REMARK    1  A    between atoms: N_1  and  C_2
REMARK    2  A    between atoms: C_2  and  C_3
REMARK    3  A    between atoms: C_2  and  C_21
REMARK    4  A    between atoms: C_3  and  O_4
REMARK    5  A    between atoms: O_4  and  C_5
REMARK    6  A    between atoms: C_9  and  C_10
REMARK    7  A    between atoms: C_21  and  C_22
REMARK                            x       y       z     vdW  Elec       q    Type
REMARK                         _______ _______ _______ _____ _____    ______ ____
ROOT
ATOM      1  O   UNL     1       4.087   7.540  16.730  0.00  0.00    +0.000 OA
ENDROOT
BRANCH   1   2
ATOM      2  C   UNL     1       3.197   7.759  17.743  0.00  0.00    +0.000 A 
ATOM      3  C   UNL     1       3.370   7.013  18.900  0.00  0.00    +0.000 A 
ATOM      4  N   UNL     1       2.563   7.090  19.983  0.00  0.00    +0.000 NA
ATOM      5  C   UNL     1       1.532   7.963  19.901  0.00  0.00    +0.000 A 
ATOM      6  C   UNL     1       1.249   8.775  18.798  0.00  0.00    +0.000 A 
ATOM      7  C   UNL     1       2.125   8.648  17.709  0.00  0.00    +0.000 A 
BRANCH   6   8
ATOM      8  C   UNL     1       0.097   9.701  18.761  0.00  0.00    +0.000 A 
ATOM      9  C   UNL     1      -0.129  10.625  19.801  0.00  0.00    +0.000 A 
ATOM     10  C   UNL     1      -1.209  11.517  19.804  0.00  0.00    +0.000 A 
ATOM     11  C   UNL     1      -2.090  11.445  18.722  0.00  0.00    +0.000 A 
ATOM     12  N   UNL     1      -3.224  12.152  18.423  0.00  0.00    +0.000 N 
ATOM     13  N   UNL     1      -3.812  11.784  17.270  0.00  0.00    +0.000 NA
ATOM     14  C   UNL     1      -3.020  10.814  16.816  0.00  0.00    +0.000 A 
ATOM     15 CL   UNL     1      -3.369  10.020  15.359  0.00  0.00    +0.000 Cl
ATOM     16  C   UNL     1      -1.923  10.553  17.672  0.00  0.00    +0.000 A 
ATOM     17  C   UNL     1      -0.820   9.679  17.687  0.00  0.00    +0.000 A 
ATOM     18  H   UNL     1      -3.648  12.895  18.965  0.00  0.00    +0.000 HD
ENDBRANCH   6   8
ENDBRANCH   1   2
BRANCH   1  19
ATOM     19  C   UNL     1       5.251   6.771  17.064  0.00  0.00    +0.000 C 
BRANCH  19  20
ATOM     20  C   UNL     1       5.671   5.898  15.866  0.00  0.00    +0.000 C 
BRANCH  20  21
ATOM     21  N   UNL     1       7.144   5.813  15.818  0.00  0.00    +0.000 NA
ATOM     22  H   UNL     1       7.456   6.092  14.885  0.00  0.00    +0.000 HD
ATOM     23  H   UNL     1       7.410   4.830  15.905  0.00  0.00    +0.000 HD
ENDBRANCH  20  21
BRANCH  20  24
ATOM     24  C   UNL     1       4.977   4.518  15.937  0.00  0.00    +0.000 C 
BRANCH  24  25
ATOM     25  C   UNL     1       4.788   4.019  17.337  0.00  0.00    +0.000 A 
ATOM     26  C   UNL     1       5.774   3.809  18.280  0.00  0.00    +0.000 A 
ATOM     27  N   UNL     1       5.181   3.363  19.430  0.00  0.00    +0.000 N 
ATOM     28  C   UNL     1       3.818   3.274  19.260  0.00  0.00    +0.000 A 
ATOM     29  C   UNL     1       2.821   2.870  20.154  0.00  0.00    +0.000 A 
ATOM     30  C   UNL     1       1.498   2.886  19.702  0.00  0.00    +0.000 A 
ATOM     31  C   UNL     1       1.187   3.290  18.406  0.00  0.00    +0.000 A 
ATOM     32  C   UNL     1       2.197   3.686  17.524  0.00  0.00    +0.000 A 
ATOM     33  C   UNL     1       3.541   3.677  17.955  0.00  0.00    +0.000 A 
ATOM     34  H   UNL     1       5.666   3.132  20.285  0.00  0.00    +0.000 HD
ENDBRANCH  24  25
ENDBRANCH  20  24
ENDBRANCH  19  20
ENDBRANCH   1  19
TORSDOF 7
ENDMDL
MODEL 7
REMARK VINA RESULT:      -8.6      2.101      2.594
REMARK  Name = 
REMARK  7 active torsions:
REMARK  status: ('A' for Active; 'I' for Inactive)
REMARK    1  A    between atoms: N_1  and  C_2
REMARK    2  A    between atoms: C_2  and  C_3
REMARK    3  A    between atoms: C_2  and  C_21
REMARK    4  A    between atoms: C_3  and  O_4
REMARK    5  A    between atoms: O_4  and  C_5
REMARK    6  A    between atoms: C_9  and  C_10
REMARK    7  A    between atoms: C_21  and  C_22
REMARK                            x       y       z     vdW  Elec       q    Type
REMARK                         _______ _______ _______ _____ _____    ______ ____
ROOT
ATOM      1  O   UNL     1       3.137   6.294  18.275  0.00  0.00    +0.000 OA
ENDROOT
BRANCH   1   2
ATOM      2  C   UNL     1       2.385   7.110  19.072  0.00  0.00    +0.000 A 
ATOM      3  C   UNL     1       2.072   6.634  20.336  0.00  0.00    +0.000 A 
ATOM      4  N   UNL     1       1.317   7.303  21.236  0.00  0.00    +0.000 NA
ATOM      5  C   UNL     1       0.854   8.515  20.847  0.00  0.00    +0.000 A 
ATOM      6  C   UNL     1       1.100   9.111  19.606  0.00  0.00    +0.000 A 
ATOM      7  C   UNL     1       1.891   8.364  18.719  0.00  0.00    +0.000 A 
BRANCH   6   8
ATOM      8  C   UNL     1       0.555  10.433  19.232  0.00  0.00    +0.000 A 
ATOM      9  C   UNL     1      -0.712  10.554  18.629  0.00  0.00    +0.000 A 
ATOM     10  C   UNL     1      -1.263  11.788  18.257  0.00  0.00    +0.000 A 
ATOM     11  C   UNL     1      -0.484  12.923  18.494  0.00  0.00    +0.000 A 
ATOM     12  N   UNL     1      -0.714  14.251  18.253  0.00  0.00    +0.000 N 
ATOM     13  N   UNL     1       0.295  15.060  18.623  0.00  0.00    +0.000 NA
ATOM     14  C   UNL     1       1.197  14.216  19.126  0.00  0.00    +0.000 A 
ATOM     15 CL   UNL     1       2.676  14.786  19.728  0.00  0.00    +0.000 Cl
ATOM     16  C   UNL     1       0.773  12.867  19.079  0.00  0.00    +0.000 A 
ATOM     17  C   UNL     1       1.295  11.615  19.457  0.00  0.00    +0.000 A 
ATOM     18  H   UNL     1      -1.538  14.668  17.836  0.00  0.00    +0.000 HD
ENDBRANCH   6   8
ENDBRANCH   1   2
BRANCH   1  19
ATOM     19  C   UNL     1       3.475   5.011  18.821  0.00  0.00    +0.000 C 
BRANCH  19  20
ATOM     20  C   UNL     1       4.779   4.491  18.184  0.00  0.00    +0.000 C 
BRANCH  20  21
ATOM     21  N   UNL     1       5.233   3.291  18.915  0.00  0.00    +0.000 NA
ATOM     22  H   UNL     1       4.442   2.910  19.437  0.00  0.00    +0.000 HD
ATOM     23  H   UNL     1       5.904   3.587  19.626  0.00  0.00    +0.000 HD
ENDBRANCH  20  21
BRANCH  20  24
ATOM     24  C   UNL     1       4.579   4.250  16.670  0.00  0.00    +0.000 C 
BRANCH  24  25
ATOM     25  C   UNL     1       5.739   4.706  15.838  0.00  0.00    +0.000 A 
ATOM     26  C   UNL     1       6.773   5.527  16.241  0.00  0.00    +0.000 A 
ATOM     27  N   UNL     1       7.630   5.688  15.186  0.00  0.00    +0.000 N 
ATOM     28  C   UNL     1       7.176   4.988  14.092  0.00  0.00    +0.000 A 
ATOM     29  C   UNL     1       7.722   4.863  12.810  0.00  0.00    +0.000 A 
ATOM     30  C   UNL     1       7.036   4.067  11.887  0.00  0.00    +0.000 A 
ATOM     31  C   UNL     1       5.852   3.423  12.235  0.00  0.00    +0.000 A 
ATOM     32  C   UNL     1       5.319   3.563  13.520  0.00  0.00    +0.000 A 
ATOM     33  C   UNL     1       5.990   4.362  14.470  0.00  0.00    +0.000 A 
ATOM     34  H   UNL     1       8.476   6.240  15.201  0.00  0.00    +0.000 HD
ENDBRANCH  24  25
ENDBRANCH  20  24
ENDBRANCH  19  20
ENDBRANCH   1  19
TORSDOF 7
ENDMDL
MODEL 8
REMARK VINA RESULT:      -8.6      2.717      4.488
REMARK  Name = 
REMARK  7 active torsions:
REMARK  status: ('A' for Active; 'I' for Inactive)
REMARK    1  A    between atoms: N_1  and  C_2
REMARK    2  A    between atoms: C_2  and  C_3
REMARK    3  A    between atoms: C_2  and  C_21
REMARK    4  A    between atoms: C_3  and  O_4
REMARK    5  A    between atoms: O_4  and  C_5
REMARK    6  A    between atoms: C_9  and  C_10
REMARK    7  A    between atoms: C_21  and  C_22
REMARK                            x       y       z     vdW  Elec       q    Type
REMARK                         _______ _______ _______ _____ _____    ______ ____
ROOT
ATOM      1  O   UNL     1       3.539   6.965  16.963  0.00  0.00    +0.000 OA
ENDROOT
BRANCH   1   2
ATOM      2  C   UNL     1       2.825   7.590  17.946  0.00  0.00    +0.000 A 
ATOM      3  C   UNL     1       2.682   6.909  19.145  0.00  0.00    +0.000 A 
ATOM      4  N   UNL     1       1.985   7.374  20.207  0.00  0.00    +0.000 NA
ATOM      5  C   UNL     1       1.404   8.588  20.057  0.00  0.00    +0.000 A 
ATOM      6  C   UNL     1       1.475   9.378  18.906  0.00  0.00    +0.000 A 
ATOM      7  C   UNL     1       2.214   8.838  17.841  0.00  0.00    +0.000 A 
BRANCH   6   8
ATOM      8  C   UNL     1       0.806  10.692  18.795  0.00  0.00    +0.000 A 
ATOM      9  C   UNL     1      -0.554  10.790  18.442  0.00  0.00    +0.000 A 
ATOM     10  C   UNL     1      -1.223  12.016  18.325  0.00  0.00    +0.000 A 
ATOM     11  C   UNL     1      -0.471  13.169  18.558  0.00  0.00    +0.000 A 
ATOM     12  N   UNL     1      -0.806  14.497  18.523  0.00  0.00    +0.000 N 
ATOM     13  N   UNL     1       0.213  15.328  18.807  0.00  0.00    +0.000 NA
ATOM     14  C   UNL     1       1.231  14.500  19.038  0.00  0.00    +0.000 A 
ATOM     15 CL   UNL     1       2.765  15.102  19.438  0.00  0.00    +0.000 Cl
ATOM     16  C   UNL     1       0.873  13.137  18.903  0.00  0.00    +0.000 A 
ATOM     17  C   UNL     1       1.516  11.892  19.029  0.00  0.00    +0.000 A 
ATOM     18  H   UNL     1      -1.711  14.899  18.311  0.00  0.00    +0.000 HD
ENDBRANCH   6   8
ENDBRANCH   1   2
BRANCH   1  19
ATOM     19  C   UNL     1       4.962   6.935  17.136  0.00  0.00    +0.000 C 
BRANCH  19  20
ATOM     20  C   UNL     1       5.613   6.083  16.029  0.00  0.00    +0.000 C 
BRANCH  20  21
ATOM     21  N   UNL     1       7.078   6.090  16.206  0.00  0.00    +0.000 NA
ATOM     22  H   UNL     1       7.286   6.279  17.188  0.00  0.00    +0.000 HD
ATOM     23  H   UNL     1       7.457   6.888  15.694  0.00  0.00    +0.000 HD
ENDBRANCH  20  21
BRANCH  20  24
ATOM     24  C   UNL     1       5.002   4.662  16.014  0.00  0.00    +0.000 C 
BRANCH  24  25
ATOM     25  C   UNL     1       4.824   4.078  17.382  0.00  0.00    +0.000 A 
ATOM     26  C   UNL     1       5.808   3.883  18.331  0.00  0.00    +0.000 A 
ATOM     27  N   UNL     1       5.228   3.338  19.445  0.00  0.00    +0.000 N 
ATOM     28  C   UNL     1       3.877   3.168  19.244  0.00  0.00    +0.000 A 
ATOM     29  C   UNL     1       2.896   2.651  20.098  0.00  0.00    +0.000 A 
ATOM     30  C   UNL     1       1.582   2.604  19.622  0.00  0.00    +0.000 A 
ATOM     31  C   UNL     1       1.265   3.056  18.343  0.00  0.00    +0.000 A 
ATOM     32  C   UNL     1       2.259   3.565  17.503  0.00  0.00    +0.000 A 
ATOM     33  C   UNL     1       3.594   3.622  17.958  0.00  0.00    +0.000 A 
ATOM     34  H   UNL     1       5.714   3.093  20.296  0.00  0.00    +0.000 HD
ENDBRANCH  24  25
ENDBRANCH  20  24
ENDBRANCH  19  20
ENDBRANCH   1  19
TORSDOF 7
ENDMDL
MODEL 9
REMARK VINA RESULT:      -8.6      3.376      9.515
REMARK  Name = 
REMARK  7 active torsions:
REMARK  status: ('A' for Active; 'I' for Inactive)
REMARK    1  A    between atoms: N_1  and  C_2
REMARK    2  A    between atoms: C_2  and  C_3
REMARK    3  A    between atoms: C_2  and  C_21
REMARK    4  A    between atoms: C_3  and  O_4
REMARK    5  A    between atoms: O_4  and  C_5
REMARK    6  A    between atoms: C_9  and  C_10
REMARK    7  A    between atoms: C_21  and  C_22
REMARK                            x       y       z     vdW  Elec       q    Type
REMARK                         _______ _______ _______ _____ _____    ______ ____
ROOT
ATOM      1  O   UNL     1       1.685   6.384  20.829  0.00  0.00    +0.000 OA
ENDROOT
BRANCH   1   2
ATOM      2  C   UNL     1       2.130   5.518  19.871  0.00  0.00    +0.000 A 
ATOM      3  C   UNL     1       1.452   4.313  19.754  0.00  0.00    +0.000 A 
ATOM      4  N   UNL     1       1.781   3.337  18.877  0.00  0.00    +0.000 NA
ATOM      5  C   UNL     1       2.842   3.586  18.074  0.00  0.00    +0.000 A 
ATOM      6  C   UNL     1       3.605   4.757  18.086  0.00  0.00    +0.000 A 
ATOM      7  C   UNL     1       3.212   5.729  19.019  0.00  0.00    +0.000 A 
BRANCH   6   8
ATOM      8  C   UNL     1       4.765   4.965  17.193  0.00  0.00    +0.000 A 
ATOM      9  C   UNL     1       5.882   5.714  17.612  0.00  0.00    +0.000 A 
ATOM     10  C   UNL     1       6.998   5.936  16.796  0.00  0.00    +0.000 A 
ATOM     11  C   UNL     1       6.958   5.392  15.510  0.00  0.00    +0.000 A 
ATOM     12  N   UNL     1       7.858   5.425  14.479  0.00  0.00    +0.000 N 
ATOM     13  N   UNL     1       7.451   4.775  13.373  0.00  0.00    +0.000 NA
ATOM     14  C   UNL     1       6.252   4.306  13.716  0.00  0.00    +0.000 A 
ATOM     15 CL   UNL     1       5.327   3.405  12.617  0.00  0.00    +0.000 Cl
ATOM     16  C   UNL     1       5.883   4.651  15.038  0.00  0.00    +0.000 A 
ATOM     17  C   UNL     1       4.782   4.430  15.886  0.00  0.00    +0.000 A 
ATOM     18  H   UNL     1       8.765   5.876  14.467  0.00  0.00    +0.000 HD
ENDBRANCH   6   8
ENDBRANCH   1   2
BRANCH   1  19
ATOM     19  C   UNL     1       1.769   7.780  20.510  0.00  0.00    +0.000 C 
BRANCH  19  20
ATOM     20  C   UNL     1       0.808   8.587  21.403  0.00  0.00    +0.000 C 
BRANCH  20  21
ATOM     21  N   UNL     1       1.578   9.247  22.476  0.00  0.00    +0.000 NA
ATOM     22  H   UNL     1       2.568   9.027  22.348  0.00  0.00    +0.000 HD
ATOM     23  H   UNL     1       1.322   8.814  23.365  0.00  0.00    +0.000 HD
ENDBRANCH  20  21
BRANCH  20  24
ATOM     24  C   UNL     1      -0.023   9.571  20.548  0.00  0.00    +0.000 C 
BRANCH  24  25
ATOM     25  C   UNL     1       0.791  10.302  19.525  0.00  0.00    +0.000 A 
ATOM     26  C   UNL     1       1.131   9.852  18.264  0.00  0.00    +0.000 A 
ATOM     27  N   UNL     1       1.869  10.825  17.645  0.00  0.00    +0.000 N 
ATOM     28  C   UNL     1       2.023  11.909  18.479  0.00  0.00    +0.000 A 
ATOM     29  C   UNL     1       2.695  13.119  18.272  0.00  0.00    +0.000 A 
ATOM     30  C   UNL     1       2.681  14.055  19.310  0.00  0.00    +0.000 A 
ATOM     31  C   UNL     1       2.020  13.789  20.507  0.00  0.00    +0.000 A 
ATOM     32  C   UNL     1       1.359  12.573  20.698  0.00  0.00    +0.000 A 
ATOM     33  C   UNL     1       1.360  11.610  19.667  0.00  0.00    +0.000 A 
ATOM     34  H   UNL     1       2.248  10.764  16.711  0.00  0.00    +0.000 HD
ENDBRANCH  24  25
ENDBRANCH  20  24
ENDBRANCH  19  20
ENDBRANCH   1  19
TORSDOF 7
ENDMDL
