MODEL 1
REMARK VINA RESULT:      -8.8      0.000      0.000
REMARK  Name = 
REMARK  7 active torsions:
REMARK  status: ('A' for Active; 'I' for Inactive)
REMARK    1  A    between atoms: C_1  and  C_2
REMARK    2  A    between atoms: C_5  and  C_6
REMARK    3  A    between atoms: C_6  and  C_7
REMARK    4  A    between atoms: C_6  and  O_8
REMARK    5  A    between atoms: C_10  and  C_11
REMARK    6  A    between atoms: C_16  and  N_17
REMARK    7  A    between atoms: C_18  and  C_20
REMARK                            x       y       z     vdW  Elec       q    Type
REMARK                         _______ _______ _______ _____ _____    ______ ____
ROOT
ATOM      1  C   UNL     1       2.621   7.199  18.471  0.00  0.00    +0.000 A 
ATOM      2  C   UNL     1       2.136   8.191  17.602  0.00  0.00    +0.000 A 
ATOM      3  C   UNL     1       1.417   9.303  18.059  0.00  0.00    +0.000 A 
ATOM      4  C   UNL     1       1.077   9.422  19.409  0.00  0.00    +0.000 A 
ATOM      5  C   UNL     1       0.328  10.503  19.894  0.00  0.00    +0.000 A 
ATOM      6  C   UNL     1      -0.025  10.540  21.239  0.00  0.00    +0.000 A 
ATOM      7  N   UNL     1       0.331   9.566  22.093  0.00  0.00    +0.000 NA
ATOM      8  C   UNL     1       1.069   8.539  21.618  0.00  0.00    +0.000 A 
ATOM      9  C   UNL     1       1.482   8.416  20.294  0.00  0.00    +0.000 A 
ATOM     10  C   UNL     1       2.268   7.340  19.828  0.00  0.00    +0.000 A 
ENDROOT
BRANCH   1  17
ATOM     11  C   UNL     1       1.452   4.414  17.702  0.00  0.00    +0.000 C 
ATOM     12  C   UNL     1       2.917   4.767  17.657  0.00  0.00    +0.000 A 
ATOM     13  C   UNL     1       3.788   3.741  17.240  0.00  0.00    +0.000 A 
ATOM     14  C   UNL     1       5.156   3.957  17.099  0.00  0.00    +0.000 A 
ATOM     15  C   UNL     1       5.708   5.206  17.379  0.00  0.00    +0.000 A 
ATOM     16  C   UNL     1       4.846   6.209  17.864  0.00  0.00    +0.000 A 
ATOM     17  C   UNL     1       3.443   6.040  18.003  0.00  0.00    +0.000 A 
BRANCH  15  18
ATOM     18  C   UNL     1       7.198   5.430  17.186  0.00  0.00    +0.000 C 
ATOM     19  C   UNL     1       7.801   6.354  18.246  0.00  0.00    +0.000 C 
BRANCH  18  20
ATOM     20  O   UNL     1       7.926   4.202  17.214  0.00  0.00    +0.000 OA
ATOM     21  H   UNL     1       7.548   3.663  17.929  0.00  0.00    +0.000 HD
ENDBRANCH  18  20
ENDBRANCH  15  18
ENDBRANCH   1  17
BRANCH   6  22
ATOM     22  N   UNL     1      -0.773  11.636  21.680  0.00  0.00    +0.000 N 
ATOM     23  C   UNL     1      -0.269  12.893  21.906  0.00  0.00    +0.000 C 
ATOM     24  O   UNL     1       0.881  13.285  21.768  0.00  0.00    +0.000 OA
ATOM     25  H   UNL     1      -1.757  11.486  21.835  0.00  0.00    +0.000 HD
BRANCH  23  26
ATOM     26  C   UNL     1      -1.320  13.861  22.355  0.00  0.00    +0.000 C 
ATOM     27  C   UNL     1      -1.497  14.179  23.819  0.00  0.00    +0.000 C 
ATOM     28  C   UNL     1      -0.900  15.204  22.898  0.00  0.00    +0.000 C 
ENDBRANCH  23  26
ENDBRANCH   6  22
TORSDOF 5
ENDMDL
MODEL 2
REMARK VINA RESULT:      -8.6      0.845      1.514
REMARK  Name = 
REMARK  7 active torsions:
REMARK  status: ('A' for Active; 'I' for Inactive)
REMARK    1  A    between atoms: C_1  and  C_2
REMARK    2  A    between atoms: C_5  and  C_6
REMARK    3  A    between atoms: C_6  and  C_7
REMARK    4  A    between atoms: C_6  and  O_8
REMARK    5  A    between atoms: C_10  and  C_11
REMARK    6  A    between atoms: C_16  and  N_17
REMARK    7  A    between atoms: C_18  and  C_20
REMARK                            x       y       z     vdW  Elec       q    Type
REMARK                         _______ _______ _______ _____ _____    ______ ____
ROOT
ATOM      1  C   UNL     1       2.617   6.890  18.827  0.00  0.00    +0.000 A 
ATOM      2  C   UNL     1       2.218   6.734  20.165  0.00  0.00    +0.000 A 
ATOM      3  C   UNL     1       1.433   7.684  20.830  0.00  0.00    +0.000 A 
ATOM      4  C   UNL     1       1.086   8.883  20.202  0.00  0.00    +0.000 A 
ATOM      5  C   UNL     1       0.332   9.871  20.851  0.00  0.00    +0.000 A 
ATOM      6  C   UNL     1       0.063  11.066  20.191  0.00  0.00    +0.000 A 
ATOM      7  N   UNL     1       0.505  11.305  18.946  0.00  0.00    +0.000 NA
ATOM      8  C   UNL     1       1.214  10.337  18.324  0.00  0.00    +0.000 A 
ATOM      9  C   UNL     1       1.527   9.105  18.892  0.00  0.00    +0.000 A 
ATOM     10  C   UNL     1       2.254   8.106  18.213  0.00  0.00    +0.000 A 
ENDROOT
BRANCH   1  17
ATOM     11  C   UNL     1       1.464   4.153  17.882  0.00  0.00    +0.000 C 
ATOM     12  C   UNL     1       2.885   4.604  17.658  0.00  0.00    +0.000 A 
ATOM     13  C   UNL     1       3.721   3.697  16.977  0.00  0.00    +0.000 A 
ATOM     14  C   UNL     1       5.037   4.018  16.657  0.00  0.00    +0.000 A 
ATOM     15  C   UNL     1       5.571   5.255  17.012  0.00  0.00    +0.000 A 
ATOM     16  C   UNL     1       4.756   6.131  17.755  0.00  0.00    +0.000 A 
ATOM     17  C   UNL     1       3.403   5.854  18.086  0.00  0.00    +0.000 A 
BRANCH  15  18
ATOM     18  C   UNL     1       6.999   5.598  16.623  0.00  0.00    +0.000 C 
ATOM     19  C   UNL     1       7.536   6.826  17.360  0.00  0.00    +0.000 C 
BRANCH  18  20
ATOM     20  O   UNL     1       7.892   4.513  16.877  0.00  0.00    +0.000 OA
ATOM     21  H   UNL     1       8.481   4.792  17.598  0.00  0.00    +0.000 HD
ENDBRANCH  18  20
ENDBRANCH  15  18
ENDBRANCH   1  17
BRANCH   6  22
ATOM     22  N   UNL     1      -0.691  12.024  20.876  0.00  0.00    +0.000 N 
ATOM     23  C   UNL     1      -0.170  13.089  21.568  0.00  0.00    +0.000 C 
ATOM     24  O   UNL     1       1.004  13.399  21.711  0.00  0.00    +0.000 OA
ATOM     25  H   UNL     1      -1.693  11.922  20.849  0.00  0.00    +0.000 HD
BRANCH  23  26
ATOM     26  C   UNL     1      -1.231  13.951  22.180  0.00  0.00    +0.000 C 
ATOM     27  C   UNL     1      -1.753  13.659  23.565  0.00  0.00    +0.000 C 
ATOM     28  C   UNL     1      -0.871  14.852  23.335  0.00  0.00    +0.000 C 
ENDBRANCH  23  26
ENDBRANCH   6  22
TORSDOF 5
ENDMDL
MODEL 3
REMARK VINA RESULT:      -8.6      1.404      1.933
REMARK  Name = 
REMARK  7 active torsions:
REMARK  status: ('A' for Active; 'I' for Inactive)
REMARK    1  A    between atoms: C_1  and  C_2
REMARK    2  A    between atoms: C_5  and  C_6
REMARK    3  A    between atoms: C_6  and  C_7
REMARK    4  A    between atoms: C_6  and  O_8
REMARK    5  A    between atoms: C_10  and  C_11
REMARK    6  A    between atoms: C_16  and  N_17
REMARK    7  A    between atoms: C_18  and  C_20
REMARK                            x       y       z     vdW  Elec       q    Type
REMARK                         _______ _______ _______ _____ _____    ______ ____
ROOT
ATOM      1  C   UNL     1       2.599   6.903  18.829  0.00  0.00    +0.000 A 
ATOM      2  C   UNL     1       2.193   6.729  20.162  0.00  0.00    +0.000 A 
ATOM      3  C   UNL     1       1.397   7.667  20.832  0.00  0.00    +0.000 A 
ATOM      4  C   UNL     1       1.046   8.870  20.215  0.00  0.00    +0.000 A 
ATOM      5  C   UNL     1       0.280   9.846  20.869  0.00  0.00    +0.000 A 
ATOM      6  C   UNL     1       0.006  11.046  20.220  0.00  0.00    +0.000 A 
ATOM      7  N   UNL     1       0.454  11.301  18.981  0.00  0.00    +0.000 NA
ATOM      8  C   UNL     1       1.174  10.345  18.353  0.00  0.00    +0.000 A 
ATOM      9  C   UNL     1       1.492   9.109  18.909  0.00  0.00    +0.000 A 
ATOM     10  C   UNL     1       2.231   8.122  18.225  0.00  0.00    +0.000 A 
ENDROOT
BRANCH   1  17
ATOM     11  C   UNL     1       1.473   4.165  17.853  0.00  0.00    +0.000 C 
ATOM     12  C   UNL     1       2.891   4.629  17.640  0.00  0.00    +0.000 A 
ATOM     13  C   UNL     1       3.738   3.736  16.955  0.00  0.00    +0.000 A 
ATOM     14  C   UNL     1       5.053   4.071  16.643  0.00  0.00    +0.000 A 
ATOM     15  C   UNL     1       5.575   5.310  17.013  0.00  0.00    +0.000 A 
ATOM     16  C   UNL     1       4.749   6.172  17.760  0.00  0.00    +0.000 A 
ATOM     17  C   UNL     1       3.397   5.880  18.082  0.00  0.00    +0.000 A 
BRANCH  15  18
ATOM     18  C   UNL     1       7.002   5.668  16.633  0.00  0.00    +0.000 C 
ATOM     19  C   UNL     1       7.547   6.854  17.430  0.00  0.00    +0.000 C 
BRANCH  18  20
ATOM     20  O   UNL     1       7.893   4.568  16.824  0.00  0.00    +0.000 OA
ATOM     21  H   UNL     1       8.777   4.942  16.974  0.00  0.00    +0.000 HD
ENDBRANCH  18  20
ENDBRANCH  15  18
ENDBRANCH   1  17
BRANCH   6  22
ATOM     22  N   UNL     1      -0.759  11.991  20.910  0.00  0.00    +0.000 N 
ATOM     23  C   UNL     1      -2.024  12.390  20.556  0.00  0.00    +0.000 C 
ATOM     24  O   UNL     1      -2.702  12.011  19.611  0.00  0.00    +0.000 OA
ATOM     25  H   UNL     1      -0.347  12.401  21.734  0.00  0.00    +0.000 HD
BRANCH  23  26
ATOM     26  C   UNL     1      -2.593  13.403  21.501  0.00  0.00    +0.000 C 
ATOM     27  C   UNL     1      -3.566  12.989  22.577  0.00  0.00    +0.000 C 
ATOM     28  C   UNL     1      -2.165  13.382  22.947  0.00  0.00    +0.000 C 
ENDBRANCH  23  26
ENDBRANCH   6  22
TORSDOF 5
ENDMDL
MODEL 4
REMARK VINA RESULT:      -8.5      1.285      1.495
REMARK  Name = 
REMARK  7 active torsions:
REMARK  status: ('A' for Active; 'I' for Inactive)
REMARK    1  A    between atoms: C_1  and  C_2
REMARK    2  A    between atoms: C_5  and  C_6
REMARK    3  A    between atoms: C_6  and  C_7
REMARK    4  A    between atoms: C_6  and  O_8
REMARK    5  A    between atoms: C_10  and  C_11
REMARK    6  A    between atoms: C_16  and  N_17
REMARK    7  A    between atoms: C_18  and  C_20
REMARK                            x       y       z     vdW  Elec       q    Type
REMARK                         _______ _______ _______ _____ _____    ______ ____
ROOT
ATOM      1  C   UNL     1       2.705   7.070  18.304  0.00  0.00    +0.000 A 
ATOM      2  C   UNL     1       2.325   8.147  17.485  0.00  0.00    +0.000 A 
ATOM      3  C   UNL     1       1.719   9.301  17.996  0.00  0.00    +0.000 A 
ATOM      4  C   UNL     1       1.386   9.387  19.350  0.00  0.00    +0.000 A 
ATOM      5  C   UNL     1       0.747  10.513  19.888  0.00  0.00    +0.000 A 
ATOM      6  C   UNL     1       0.394  10.519  21.234  0.00  0.00    +0.000 A 
ATOM      7  N   UNL     1       0.648   9.474  22.039  0.00  0.00    +0.000 NA
ATOM      8  C   UNL     1       1.282   8.403  21.513  0.00  0.00    +0.000 A 
ATOM      9  C   UNL     1       1.686   8.304  20.185  0.00  0.00    +0.000 A 
ATOM     10  C   UNL     1       2.362   7.180  19.666  0.00  0.00    +0.000 A 
ENDROOT
BRANCH   1  17
ATOM     11  C   UNL     1       1.406   4.246  18.071  0.00  0.00    +0.000 C 
ATOM     12  C   UNL     1       2.825   4.569  17.675  0.00  0.00    +0.000 A 
ATOM     13  C   UNL     1       3.587   3.494  17.177  0.00  0.00    +0.000 A 
ATOM     14  C   UNL     1       4.891   3.673  16.723  0.00  0.00    +0.000 A 
ATOM     15  C   UNL     1       5.486   4.933  16.758  0.00  0.00    +0.000 A 
ATOM     16  C   UNL     1       4.748   5.991  17.322  0.00  0.00    +0.000 A 
ATOM     17  C   UNL     1       3.409   5.859  17.779  0.00  0.00    +0.000 A 
BRANCH  15  18
ATOM     18  C   UNL     1       6.898   5.112  16.226  0.00  0.00    +0.000 C 
ATOM     19  C   UNL     1       7.007   4.834  14.726  0.00  0.00    +0.000 C 
BRANCH  18  20
ATOM     20  O   UNL     1       7.390   6.432  16.461  0.00  0.00    +0.000 OA
ATOM     21  H   UNL     1       8.129   6.574  15.848  0.00  0.00    +0.000 HD
ENDBRANCH  18  20
ENDBRANCH  15  18
ENDBRANCH   1  17
BRANCH   6  22
ATOM     22  N   UNL     1      -0.243  11.662  21.728  0.00  0.00    +0.000 N 
ATOM     23  C   UNL     1      -1.176  11.669  22.735  0.00  0.00    +0.000 C 
ATOM     24  O   UNL     1      -1.611  10.721  23.373  0.00  0.00    +0.000 OA
ATOM     25  H   UNL     1       0.013  12.544  21.314  0.00  0.00    +0.000 HD
BRANCH  23  26
ATOM     26  C   UNL     1      -1.663  13.049  23.056  0.00  0.00    +0.000 C 
ATOM     27  C   UNL     1      -2.855  13.630  22.336  0.00  0.00    +0.000 C 
ATOM     28  C   UNL     1      -2.979  13.216  23.774  0.00  0.00    +0.000 C 
ENDBRANCH  23  26
ENDBRANCH   6  22
TORSDOF 5
ENDMDL
MODEL 5
REMARK VINA RESULT:      -8.4      1.097      1.185
REMARK  Name = 
REMARK  7 active torsions:
REMARK  status: ('A' for Active; 'I' for Inactive)
REMARK    1  A    between atoms: C_1  and  C_2
REMARK    2  A    between atoms: C_5  and  C_6
REMARK    3  A    between atoms: C_6  and  C_7
REMARK    4  A    between atoms: C_6  and  O_8
REMARK    5  A    between atoms: C_10  and  C_11
REMARK    6  A    between atoms: C_16  and  N_17
REMARK    7  A    between atoms: C_18  and  C_20
REMARK                            x       y       z     vdW  Elec       q    Type
REMARK                         _______ _______ _______ _____ _____    ______ ____
ROOT
ATOM      1  C   UNL     1       2.652   7.225  18.561  0.00  0.00    +0.000 A 
ATOM      2  C   UNL     1       2.275   8.272  17.704  0.00  0.00    +0.000 A 
ATOM      3  C   UNL     1       1.553   9.385  18.153  0.00  0.00    +0.000 A 
ATOM      4  C   UNL     1       1.098   9.452  19.472  0.00  0.00    +0.000 A 
ATOM      5  C   UNL     1       0.342  10.534  19.944  0.00  0.00    +0.000 A 
ATOM      6  C   UNL     1      -0.126  10.518  21.254  0.00  0.00    +0.000 A 
ATOM      7  N   UNL     1       0.124   9.494  22.085  0.00  0.00    +0.000 NA
ATOM      8  C   UNL     1       0.870   8.466  21.625  0.00  0.00    +0.000 A 
ATOM      9  C   UNL     1       1.394   8.391  20.337  0.00  0.00    +0.000 A 
ATOM     10  C   UNL     1       2.185   7.313  19.888  0.00  0.00    +0.000 A 
ENDROOT
BRANCH   1  17
ATOM     11  C   UNL     1       1.476   4.490  17.637  0.00  0.00    +0.000 C 
ATOM     12  C   UNL     1       2.948   4.811  17.692  0.00  0.00    +0.000 A 
ATOM     13  C   UNL     1       3.820   3.778  17.297  0.00  0.00    +0.000 A 
ATOM     14  C   UNL     1       5.199   3.968  17.246  0.00  0.00    +0.000 A 
ATOM     15  C   UNL     1       5.758   5.196  17.597  0.00  0.00    +0.000 A 
ATOM     16  C   UNL     1       4.890   6.203  18.059  0.00  0.00    +0.000 A 
ATOM     17  C   UNL     1       3.477   6.061  18.108  0.00  0.00    +0.000 A 
BRANCH  15  18
ATOM     18  C   UNL     1       7.262   5.391  17.502  0.00  0.00    +0.000 C 
ATOM     19  C   UNL     1       7.870   5.944  18.792  0.00  0.00    +0.000 C 
BRANCH  18  20
ATOM     20  O   UNL     1       7.936   4.172  17.191  0.00  0.00    +0.000 OA
ATOM     21  H   UNL     1       8.548   3.990  17.923  0.00  0.00    +0.000 HD
ENDBRANCH  18  20
ENDBRANCH  15  18
ENDBRANCH   1  17
BRANCH   6  22
ATOM     22  N   UNL     1      -0.877  11.617  21.683  0.00  0.00    +0.000 N 
ATOM     23  C   UNL     1      -1.890  12.206  20.968  0.00  0.00    +0.000 C 
ATOM     24  O   UNL     1      -2.320  11.895  19.866  0.00  0.00    +0.000 OA
ATOM     25  H   UNL     1      -0.656  11.997  22.590  0.00  0.00    +0.000 HD
BRANCH  23  26
ATOM     26  C   UNL     1      -2.519  13.352  21.698  0.00  0.00    +0.000 C 
ATOM     27  C   UNL     1      -3.764  13.147  22.525  0.00  0.00    +0.000 C 
ATOM     28  C   UNL     1      -2.448  13.393  23.204  0.00  0.00    +0.000 C 
ENDBRANCH  23  26
ENDBRANCH   6  22
TORSDOF 5
ENDMDL
MODEL 6
REMARK VINA RESULT:      -8.4      1.269      1.867
REMARK  Name = 
REMARK  7 active torsions:
REMARK  status: ('A' for Active; 'I' for Inactive)
REMARK    1  A    between atoms: C_1  and  C_2
REMARK    2  A    between atoms: C_5  and  C_6
REMARK    3  A    between atoms: C_6  and  C_7
REMARK    4  A    between atoms: C_6  and  O_8
REMARK    5  A    between atoms: C_10  and  C_11
REMARK    6  A    between atoms: C_16  and  N_17
REMARK    7  A    between atoms: C_18  and  C_20
REMARK                            x       y       z     vdW  Elec       q    Type
REMARK                         _______ _______ _______ _____ _____    ______ ____
ROOT
ATOM      1  C   UNL     1       2.612   6.802  18.899  0.00  0.00    +0.000 A 
ATOM      2  C   UNL     1       2.196   6.571  20.221  0.00  0.00    +0.000 A 
ATOM      3  C   UNL     1       1.389   7.477  20.922  0.00  0.00    +0.000 A 
ATOM      4  C   UNL     1       1.037   8.703  20.352  0.00  0.00    +0.000 A 
ATOM      5  C   UNL     1       0.262   9.647  21.040  0.00  0.00    +0.000 A 
ATOM      6  C   UNL     1      -0.012  10.871  20.439  0.00  0.00    +0.000 A 
ATOM      7  N   UNL     1       0.444  11.179  19.215  0.00  0.00    +0.000 NA
ATOM      8  C   UNL     1       1.174  10.254  18.554  0.00  0.00    +0.000 A 
ATOM      9  C   UNL     1       1.494   8.998  19.062  0.00  0.00    +0.000 A 
ATOM     10  C   UNL     1       2.244   8.043  18.343  0.00  0.00    +0.000 A 
ENDROOT
BRANCH   1  17
ATOM     11  C   UNL     1       1.508   4.102  17.800  0.00  0.00    +0.000 C 
ATOM     12  C   UNL     1       2.926   4.581  17.619  0.00  0.00    +0.000 A 
ATOM     13  C   UNL     1       3.782   3.721  16.905  0.00  0.00    +0.000 A 
ATOM     14  C   UNL     1       5.098   4.074  16.620  0.00  0.00    +0.000 A 
ATOM     15  C   UNL     1       5.612   5.298  17.045  0.00  0.00    +0.000 A 
ATOM     16  C   UNL     1       4.775   6.125  17.820  0.00  0.00    +0.000 A 
ATOM     17  C   UNL     1       3.421   5.815  18.118  0.00  0.00    +0.000 A 
BRANCH  15  18
ATOM     18  C   UNL     1       7.040   5.678  16.694  0.00  0.00    +0.000 C 
ATOM     19  C   UNL     1       7.582   6.814  17.563  0.00  0.00    +0.000 C 
BRANCH  18  20
ATOM     20  O   UNL     1       7.930   4.569  16.822  0.00  0.00    +0.000 OA
ATOM     21  H   UNL     1       7.445   3.867  17.286  0.00  0.00    +0.000 HD
ENDBRANCH  18  20
ENDBRANCH  15  18
ENDBRANCH   1  17
BRANCH   6  22
ATOM     22  N   UNL     1      -0.788  11.784  21.161  0.00  0.00    +0.000 N 
ATOM     23  C   UNL     1      -1.086  11.680  22.497  0.00  0.00    +0.000 C 
ATOM     24  O   UNL     1      -0.742  10.811  23.285  0.00  0.00    +0.000 OA
ATOM     25  H   UNL     1      -1.148  12.579  20.657  0.00  0.00    +0.000 HD
BRANCH  23  26
ATOM     26  C   UNL     1      -1.922  12.821  22.989  0.00  0.00    +0.000 C 
ATOM     27  C   UNL     1      -3.270  13.107  22.377  0.00  0.00    +0.000 C 
ATOM     28  C   UNL     1      -3.185  12.529  23.760  0.00  0.00    +0.000 C 
ENDBRANCH  23  26
ENDBRANCH   6  22
TORSDOF 5
ENDMDL
MODEL 7
REMARK VINA RESULT:      -8.3      0.848      1.144
REMARK  Name = 
REMARK  7 active torsions:
REMARK  status: ('A' for Active; 'I' for Inactive)
REMARK    1  A    between atoms: C_1  and  C_2
REMARK    2  A    between atoms: C_5  and  C_6
REMARK    3  A    between atoms: C_6  and  C_7
REMARK    4  A    between atoms: C_6  and  O_8
REMARK    5  A    between atoms: C_10  and  C_11
REMARK    6  A    between atoms: C_16  and  N_17
REMARK    7  A    between atoms: C_18  and  C_20
REMARK                            x       y       z     vdW  Elec       q    Type
REMARK                         _______ _______ _______ _____ _____    ______ ____
ROOT
ATOM      1  C   UNL     1       2.553   7.164  18.396  0.00  0.00    +0.000 A 
ATOM      2  C   UNL     1       2.077   8.199  17.574  0.00  0.00    +0.000 A 
ATOM      3  C   UNL     1       1.408   9.318  18.086  0.00  0.00    +0.000 A 
ATOM      4  C   UNL     1       1.107   9.402  19.448  0.00  0.00    +0.000 A 
ATOM      5  C   UNL     1       0.408  10.490  19.988  0.00  0.00    +0.000 A 
ATOM      6  C   UNL     1       0.092  10.493  21.344  0.00  0.00    +0.000 A 
ATOM      7  N   UNL     1       0.439   9.481  22.155  0.00  0.00    +0.000 NA
ATOM      8  C   UNL     1       1.130   8.447  21.626  0.00  0.00    +0.000 A 
ATOM      9  C   UNL     1       1.503   8.355  20.289  0.00  0.00    +0.000 A 
ATOM     10  C   UNL     1       2.241   7.271  19.767  0.00  0.00    +0.000 A 
ENDROOT
BRANCH   1  17
ATOM     11  C   UNL     1       1.380   4.297  18.053  0.00  0.00    +0.000 C 
ATOM     12  C   UNL     1       2.797   4.686  17.715  0.00  0.00    +0.000 A 
ATOM     13  C   UNL     1       3.619   3.655  17.219  0.00  0.00    +0.000 A 
ATOM     14  C   UNL     1       4.929   3.898  16.815  0.00  0.00    +0.000 A 
ATOM     15  C   UNL     1       5.471   5.179  16.900  0.00  0.00    +0.000 A 
ATOM     16  C   UNL     1       4.671   6.192  17.463  0.00  0.00    +0.000 A 
ATOM     17  C   UNL     1       3.324   5.995  17.869  0.00  0.00    +0.000 A 
BRANCH  15  18
ATOM     18  C   UNL     1       6.891   5.428  16.422  0.00  0.00    +0.000 C 
ATOM     19  C   UNL     1       7.124   4.961  14.985  0.00  0.00    +0.000 C 
BRANCH  18  20
ATOM     20  O   UNL     1       7.239   6.811  16.492  0.00  0.00    +0.000 OA
ATOM     21  H   UNL     1       7.373   7.117  15.580  0.00  0.00    +0.000 HD
ENDBRANCH  18  20
ENDBRANCH  15  18
ENDBRANCH   1  17
BRANCH   6  22
ATOM     22  N   UNL     1      -0.608  11.597  21.840  0.00  0.00    +0.000 N 
ATOM     23  C   UNL     1      -0.099  12.867  21.950  0.00  0.00    +0.000 C 
ATOM     24  O   UNL     1       1.016  13.266  21.644  0.00  0.00    +0.000 OA
ATOM     25  H   UNL     1      -1.560  11.443  22.131  0.00  0.00    +0.000 HD
BRANCH  23  26
ATOM     26  C   UNL     1      -1.095  13.840  22.500  0.00  0.00    +0.000 C 
ATOM     27  C   UNL     1      -2.040  14.575  21.582  0.00  0.00    +0.000 C 
ATOM     28  C   UNL     1      -2.561  13.486  22.474  0.00  0.00    +0.000 C 
ENDBRANCH  23  26
ENDBRANCH   6  22
TORSDOF 5
ENDMDL
MODEL 8
REMARK VINA RESULT:      -8.1      1.130      1.194
REMARK  Name = 
REMARK  7 active torsions:
REMARK  status: ('A' for Active; 'I' for Inactive)
REMARK    1  A    between atoms: C_1  and  C_2
REMARK    2  A    between atoms: C_5  and  C_6
REMARK    3  A    between atoms: C_6  and  C_7
REMARK    4  A    between atoms: C_6  and  O_8
REMARK    5  A    between atoms: C_10  and  C_11
REMARK    6  A    between atoms: C_16  and  N_17
REMARK    7  A    between atoms: C_18  and  C_20
REMARK                            x       y       z     vdW  Elec       q    Type
REMARK                         _______ _______ _______ _____ _____    ______ ____
ROOT
ATOM      1  C   UNL     1       2.600   7.279  18.831  0.00  0.00    +0.000 A 
ATOM      2  C   UNL     1       2.262   8.209  17.834  0.00  0.00    +0.000 A 
ATOM      3  C   UNL     1       1.448   9.320  18.089  0.00  0.00    +0.000 A 
ATOM      4  C   UNL     1       0.862   9.498  19.344  0.00  0.00    +0.000 A 
ATOM      5  C   UNL     1       0.014  10.579  19.623  0.00  0.00    +0.000 A 
ATOM      6  C   UNL     1      -0.580  10.674  20.877  0.00  0.00    +0.000 A 
ATOM      7  N   UNL     1      -0.367   9.757  21.835  0.00  0.00    +0.000 NA
ATOM      8  C   UNL     1       0.468   8.731  21.561  0.00  0.00    +0.000 A 
ATOM      9  C   UNL     1       1.119   8.552  20.344  0.00  0.00    +0.000 A 
ATOM     10  C   UNL     1       2.000   7.479  20.091  0.00  0.00    +0.000 A 
ENDROOT
BRANCH   1  17
ATOM     11  C   UNL     1       1.684   4.509  17.734  0.00  0.00    +0.000 C 
ATOM     12  C   UNL     1       3.106   4.857  18.093  0.00  0.00    +0.000 A 
ATOM     13  C   UNL     1       4.058   3.834  17.913  0.00  0.00    +0.000 A 
ATOM     14  C   UNL     1       5.412   4.047  18.152  0.00  0.00    +0.000 A 
ATOM     15  C   UNL     1       5.868   5.290  18.589  0.00  0.00    +0.000 A 
ATOM     16  C   UNL     1       4.906   6.290  18.836  0.00  0.00    +0.000 A 
ATOM     17  C   UNL     1       3.518   6.123  18.587  0.00  0.00    +0.000 A 
BRANCH  15  18
ATOM     18  C   UNL     1       7.354   5.511  18.812  0.00  0.00    +0.000 C 
ATOM     19  C   UNL     1       7.845   6.849  18.257  0.00  0.00    +0.000 C 
BRANCH  18  20
ATOM     20  O   UNL     1       7.695   5.463  20.198  0.00  0.00    +0.000 OA
ATOM     21  H   UNL     1       6.898   5.707  20.696  0.00  0.00    +0.000 HD
ENDBRANCH  18  20
ENDBRANCH  15  18
ENDBRANCH   1  17
BRANCH   6  22
ATOM     22  N   UNL     1      -1.420  11.767  21.111  0.00  0.00    +0.000 N 
ATOM     23  C   UNL     1      -1.291  12.649  22.156  0.00  0.00    +0.000 C 
ATOM     24  O   UNL     1      -0.452  12.653  23.045  0.00  0.00    +0.000 OA
ATOM     25  H   UNL     1      -2.170  11.918  20.455  0.00  0.00    +0.000 HD
BRANCH  23  26
ATOM     26  C   UNL     1      -2.330  13.727  22.128  0.00  0.00    +0.000 C 
ATOM     27  C   UNL     1      -3.651  13.541  22.834  0.00  0.00    +0.000 C 
ATOM     28  C   UNL     1      -2.632  14.491  23.394  0.00  0.00    +0.000 C 
ENDBRANCH  23  26
ENDBRANCH   6  22
TORSDOF 5
ENDMDL
MODEL 9
REMARK VINA RESULT:      -8.1      2.011      2.927
REMARK  Name = 
REMARK  7 active torsions:
REMARK  status: ('A' for Active; 'I' for Inactive)
REMARK    1  A    between atoms: C_1  and  C_2
REMARK    2  A    between atoms: C_5  and  C_6
REMARK    3  A    between atoms: C_6  and  C_7
REMARK    4  A    between atoms: C_6  and  O_8
REMARK    5  A    between atoms: C_10  and  C_11
REMARK    6  A    between atoms: C_16  and  N_17
REMARK    7  A    between atoms: C_18  and  C_20
REMARK                            x       y       z     vdW  Elec       q    Type
REMARK                         _______ _______ _______ _____ _____    ______ ____
ROOT
ATOM      1  C   UNL     1       2.169   7.302  18.749  0.00  0.00    +0.000 A 
ATOM      2  C   UNL     1       1.801   8.311  17.843  0.00  0.00    +0.000 A 
ATOM      3  C   UNL     1       1.306   9.552  18.263  0.00  0.00    +0.000 A 
ATOM      4  C   UNL     1       1.073   9.802  19.617  0.00  0.00    +0.000 A 
ATOM      5  C   UNL     1       0.545  11.020  20.068  0.00  0.00    +0.000 A 
ATOM      6  C   UNL     1       0.287  11.191  21.425  0.00  0.00    +0.000 A 
ATOM      7  N   UNL     1       0.530  10.221  22.321  0.00  0.00    +0.000 NA
ATOM      8  C   UNL     1       1.058   9.059  21.877  0.00  0.00    +0.000 A 
ATOM      9  C   UNL     1       1.362   8.794  20.545  0.00  0.00    +0.000 A 
ATOM     10  C   UNL     1       1.929   7.577  20.111  0.00  0.00    +0.000 A 
ENDROOT
BRANCH   1  17
ATOM     11  C   UNL     1       4.688   7.025  16.934  0.00  0.00    +0.000 C 
ATOM     12  C   UNL     1       3.902   5.863  17.486  0.00  0.00    +0.000 A 
ATOM     13  C   UNL     1       4.363   4.580  17.131  0.00  0.00    +0.000 A 
ATOM     14  C   UNL     1       3.760   3.426  17.624  0.00  0.00    +0.000 A 
ATOM     15  C   UNL     1       2.667   3.510  18.485  0.00  0.00    +0.000 A 
ATOM     16  C   UNL     1       2.163   4.792  18.781  0.00  0.00    +0.000 A 
ATOM     17  C   UNL     1       2.758   5.996  18.317  0.00  0.00    +0.000 A 
BRANCH  15  18
ATOM     18  C   UNL     1       2.045   2.239  19.037  0.00  0.00    +0.000 C 
ATOM     19  C   UNL     1       1.591   2.384  20.490  0.00  0.00    +0.000 C 
BRANCH  18  20
ATOM     20  O   UNL     1       0.916   1.823  18.268  0.00  0.00    +0.000 OA
ATOM     21  H   UNL     1       1.141   1.965  17.333  0.00  0.00    +0.000 HD
ENDBRANCH  18  20
ENDBRANCH  15  18
ENDBRANCH   1  17
BRANCH   6  22
ATOM     22  N   UNL     1      -0.241  12.420  21.830  0.00  0.00    +0.000 N 
ATOM     23  C   UNL     1      -1.386  12.579  22.572  0.00  0.00    +0.000 C 
ATOM     24  O   UNL     1      -2.132  11.715  23.008  0.00  0.00    +0.000 OA
ATOM     25  H   UNL     1       0.266  13.248  21.560  0.00  0.00    +0.000 HD
BRANCH  23  26
ATOM     26  C   UNL     1      -1.685  14.017  22.864  0.00  0.00    +0.000 C 
ATOM     27  C   UNL     1      -1.308  14.626  24.192  0.00  0.00    +0.000 C 
ATOM     28  C   UNL     1      -0.547  15.003  22.955  0.00  0.00    +0.000 C 
ENDBRANCH  23  26
ENDBRANCH   6  22
TORSDOF 5
ENDMDL
